data_ja512311a_si_007_tobacco
_audit_creation_date              2017-02-27
_audit_creation_method            'Materials Studio'
_symmetry_space_group_name_H-M    'P1'
_symmetry_Int_Tables_number       1
_symmetry_cell_setting            triclinic
loop_
_symmetry_equiv_pos_as_xyz
  x,y,z
_cell_length_a                    37.1295
_cell_length_b                    37.1295
_cell_length_c                    30.0520
_cell_angle_alpha                 90.0000
_cell_angle_beta                  90.0000
_cell_angle_gamma                 120.0000
loop_
_atom_site_label
_atom_site_type_symbol
_atom_site_fract_x
_atom_site_fract_y
_atom_site_fract_z
_atom_site_U_iso_or_equiv
_atom_site_adp_type
_atom_site_occupancy
X1     C     1.02103   0.97886   0.24928   0.00000  Uiso   1.00
C2     C     0.97707   0.95748   0.24667   0.00000  Uiso   1.00
X3     C     0.95449   0.97875   0.24701   0.00000  Uiso   1.00
C4     C     0.97671   1.02266   0.24824   0.00000  Uiso   1.00
X5     C     1.02082   1.04580   0.25020   0.00000  Uiso   1.00
C6     C     1.04213   1.02292   0.25143   0.00000  Uiso   1.00
H7     H     0.95989   0.92384   0.24728   0.00000  Uiso   1.00
H8     H     0.95900   1.03852   0.24888   0.00000  Uiso   1.00
H9     H     1.07567   1.03947   0.25004   0.00000  Uiso   1.00
X10    C     1.04387   1.02348   0.74909   0.00000  Uiso   1.00
C11    C     1.02127   1.04502   0.74753   0.00000  Uiso   1.00
X12    C     0.97730   1.02380   0.74906   0.00000  Uiso   1.00
C13    C     0.95565   0.97992   0.75099   0.00000  Uiso   1.00
X14    C     0.97694   0.95742   0.75133   0.00000  Uiso   1.00
C15    C     1.02077   0.97942   0.75089   0.00000  Uiso   1.00
H16    H     1.03782   1.07865   0.74797   0.00000  Uiso   1.00
H17    H     0.92197   0.96298   0.75085   0.00000  Uiso   1.00
H18    H     1.03663   0.96165   0.75055   0.00000  Uiso   1.00
X19    C     0.30905   0.62384   0.25249   0.00000  Uiso   1.00
C20    C     0.35279   0.64614   0.25381   0.00000  Uiso   1.00
X21    C     0.37498   0.68989   0.25504   0.00000  Uiso   1.00
C22    C     0.35264   0.71136   0.25517   0.00000  Uiso   1.00
X23    C     0.30878   0.68990   0.25357   0.00000  Uiso   1.00
C24    C     0.28742   0.64603   0.25219   0.00000  Uiso   1.00
H25    H     0.36966   0.62934   0.25382   0.00000  Uiso   1.00
H26    H     0.36958   0.74495   0.25762   0.00000  Uiso   1.00
H27    H     0.25385   0.62899   0.24965   0.00000  Uiso   1.00
X28    C     0.62045   0.31249   0.75370   0.00000  Uiso   1.00
C29    C     0.64297   0.29119   0.75414   0.00000  Uiso   1.00
X30    C     0.68672   0.31281   0.75357   0.00000  Uiso   1.00
C31    C     0.70815   0.35656   0.75284   0.00000  Uiso   1.00
X32    C     0.68664   0.37888   0.75287   0.00000  Uiso   1.00
C33    C     0.64274   0.35639   0.75321   0.00000  Uiso   1.00
H34    H     0.62646   0.25757   0.75605   0.00000  Uiso   1.00
H35    H     0.74177   0.37321   0.75103   0.00000  Uiso   1.00
H36    H     0.62584   0.37312   0.75306   0.00000  Uiso   1.00
X37    C     0.38143   0.27174   0.03615   0.00000  Uiso   1.00
C38    C     0.35382   0.27824   0.06297   0.00000  Uiso   1.00
X39    C     0.36439   0.29411   0.10662   0.00000  Uiso   1.00
C40    C     0.40294   0.30260   0.12434   0.00000  Uiso   1.00
X41    C     0.43115   0.29616   0.09900   0.00000  Uiso   1.00
C42    C     0.42023   0.28115   0.05504   0.00000  Uiso   1.00
H43    H     0.32439   0.27254   0.04955   0.00000  Uiso   1.00
H44    H     0.41106   0.31441   0.15799   0.00000  Uiso   1.00
H45    H     0.44186   0.27569   0.03618   0.00000  Uiso   1.00
X46    C     0.38867   1.11034   0.46810   0.00000  Uiso   1.00
C47    C     0.36043   1.07549   0.44325   0.00000  Uiso   1.00
X48    C     0.36953   1.06885   0.39966   0.00000  Uiso   1.00
C49    C     0.40792   1.09809   0.38079   0.00000  Uiso   1.00
X50    C     0.43725   1.13452   0.40403   0.00000  Uiso   1.00
C51    C     0.42705   1.13939   0.44848   0.00000  Uiso   1.00
H52    H     0.33139   1.05277   0.45845   0.00000  Uiso   1.00
H53    H     0.41463   1.09158   0.34778   0.00000  Uiso   1.00
H54    H     0.44750   1.16688   0.46743   0.00000  Uiso   1.00
X55    C     0.72760   1.10903   0.03924   0.00000  Uiso   1.00
C56    C     0.71843   1.07345   0.06430   0.00000  Uiso   1.00
X57    C     0.70182   1.06774   0.10757   0.00000  Uiso   1.00
C58    C     0.69355   1.09797   0.12546   0.00000  Uiso   1.00
X59    C     0.70214   1.13422   0.10130   0.00000  Uiso   1.00
C60    C     0.71944   1.13908   0.05814   0.00000  Uiso   1.00
H61    H     0.72557   1.05073   0.05067   0.00000  Uiso   1.00
H62    H     0.68152   1.09344   0.15902   0.00000  Uiso   1.00
H63    H     0.72477   1.16533   0.03780   0.00000  Uiso   1.00
X64    C     0.27850   0.38575   0.53407   0.00000  Uiso   1.00
C65    C     0.28690   0.42385   0.55336   0.00000  Uiso   1.00
X66    C     0.30337   0.43511   0.59671   0.00000  Uiso   1.00
C67    C     0.31176   0.40750   0.62087   0.00000  Uiso   1.00
X68    C     0.30321   0.36900   0.60261   0.00000  Uiso   1.00
C69    C     0.28711   0.35885   0.55899   0.00000  Uiso   1.00
H70    H     0.28102   0.44514   0.53433   0.00000  Uiso   1.00
H71    H     0.32313   0.41514   0.65470   0.00000  Uiso   1.00
H72    H     0.28037   0.32936   0.54469   0.00000  Uiso   1.00
X73    C     1.10882   0.72520   0.53582   0.00000  Uiso   1.00
C74    C     1.13849   0.71657   0.55473   0.00000  Uiso   1.00
X75    C     1.13344   0.69959   0.59818   0.00000  Uiso   1.00
C76    C     1.09701   0.69118   0.62211   0.00000  Uiso   1.00
X77    C     1.06745   0.70050   0.60422   0.00000  Uiso   1.00
C78    C     1.07375   0.71724   0.56101   0.00000  Uiso   1.00
H79    H     1.16501   0.72228   0.53466   0.00000  Uiso   1.00
H80    H     1.09266   0.67999   0.65601   0.00000  Uiso   1.00
H81    H     1.05063   0.72328   0.54636   0.00000  Uiso   1.00
X82    C     1.10981   0.38719   0.96530   0.00000  Uiso   1.00
C83    C     1.07416   0.35998   0.94020   0.00000  Uiso   1.00
X84    C     1.06844   0.36943   0.89634   0.00000  Uiso   1.00
C85    C     1.09854   0.40714   0.87730   0.00000  Uiso   1.00
X86    C     1.13477   0.43589   0.90071   0.00000  Uiso   1.00
C87    C     1.13944   0.42533   0.94492   0.00000  Uiso   1.00
H88    H     1.05161   0.32994   0.95343   0.00000  Uiso   1.00
H89    H     1.09201   0.41456   0.84459   0.00000  Uiso   1.00
H90    H     1.16652   0.44687   0.96355   0.00000  Uiso   1.00
X91    C    -0.11026   0.27615   0.46407   0.00000  Uiso   1.00
C92    C    -0.13993   0.28460   0.44434   0.00000  Uiso   1.00
X93    C    -0.13568   0.29924   0.39989   0.00000  Uiso   1.00
C94    C    -0.09967   0.30613   0.37616   0.00000  Uiso   1.00
X95    C    -0.06967   0.29815   0.39503   0.00000  Uiso   1.00
C96    C    -0.07528   0.28330   0.43900   0.00000  Uiso   1.00
H97    H    -0.16702   0.27824   0.46363   0.00000  Uiso   1.00
H98    H    -0.09321   0.31984   0.34335   0.00000  Uiso   1.00
H99    H    -0.05291   0.27597   0.45325   0.00000  Uiso   1.00
X100   C     0.72490   0.61385   0.46501   0.00000  Uiso   1.00
C101   C     0.71686   0.57573   0.44582   0.00000  Uiso   1.00
X102   C     0.70246   0.56536   0.40149   0.00000  Uiso   1.00
C103   C     0.69534   0.59373   0.37693   0.00000  Uiso   1.00
X104   C     0.70277   0.63170   0.39539   0.00000  Uiso   1.00
C105   C     0.71770   0.64140   0.43936   0.00000  Uiso   1.00
H106   H     0.72322   0.55484   0.46499   0.00000  Uiso   1.00
H107   H     0.68288   0.58586   0.34352   0.00000  Uiso   1.00
H108   H     0.72362   0.67059   0.45383   0.00000  Uiso   1.00
X109   C    -0.10933   0.61560   0.03303   0.00000  Uiso   1.00
C110   C    -0.13827   0.57671   0.05202   0.00000  Uiso   1.00
X111   C    -0.13364   0.56587   0.09584   0.00000  Uiso   1.00
C112   C    -0.09867   0.59418   0.12082   0.00000  Uiso   1.00
X113   C    -0.06933   0.63318   0.10322   0.00000  Uiso   1.00
C114   C    -0.07517   0.64343   0.05960   0.00000  Uiso   1.00
H115   H    -0.16555   0.55501   0.03347   0.00000  Uiso   1.00
H116   H    -0.09517   0.58650   0.15472   0.00000  Uiso   1.00
H117   H    -0.05143   0.67258   0.04566   0.00000  Uiso   1.00
X118   C     0.61716  -0.10847   0.53772   0.00000  Uiso   1.00
C119   C     0.57899  -0.13820   0.55756   0.00000  Uiso   1.00
X120   C     0.56769  -0.13309   0.60085   0.00000  Uiso   1.00
C121   C     0.59512  -0.09736   0.62509   0.00000  Uiso   1.00
X122   C     0.63307  -0.06687   0.60660   0.00000  Uiso   1.00
C123   C     0.64352  -0.07246   0.56291   0.00000  Uiso   1.00
H124   H     0.55653  -0.16485   0.53876   0.00000  Uiso   1.00
H125   H     0.58694  -0.09326   0.65856   0.00000  Uiso   1.00
H126   H     0.67355  -0.04957   0.54997   0.00000  Uiso   1.00
X127   C     0.27775  -0.11050   0.96788   0.00000  Uiso   1.00
C128   C     0.28695  -0.13964   0.94828   0.00000  Uiso   1.00
X129   C     0.30227  -0.13466   0.90394   0.00000  Uiso   1.00
C130   C     0.30982  -0.09804   0.88081   0.00000  Uiso   1.00
X131   C     0.30083  -0.06870   0.89970   0.00000  Uiso   1.00
C132   C     0.28481  -0.07543   0.94316   0.00000  Uiso   1.00
H133   H     0.27959  -0.16728   0.96711   0.00000  Uiso   1.00
H134   H     0.32326  -0.09149   0.84790   0.00000  Uiso   1.00
H135   H     0.27859  -0.05265   0.95837   0.00000  Uiso   1.00
X136   C     0.60872   0.71765   0.96995   0.00000  Uiso   1.00
C137   C     0.57098   0.70944   0.94897   0.00000  Uiso   1.00
X138   C     0.56094   0.69376   0.90514   0.00000  Uiso   1.00
C139   C     0.58930   0.68578   0.88194   0.00000  Uiso   1.00
X140   C     0.62713   0.69380   0.90129   0.00000  Uiso   1.00
C141   C     0.63602   0.70898   0.94531   0.00000  Uiso   1.00
H142   H     0.54873   0.71475   0.96663   0.00000  Uiso   1.00
H143   H     0.58232   0.67400   0.84823   0.00000  Uiso   1.00
H144   H     0.66553   0.71573   0.95934   0.00000  Uiso   1.00
Zn145  Zn    0.71483   0.33761   0.22623   0.00000  Uiso   1.00
Zn146  Zn    0.66675   0.33261   0.30988   0.00000  Uiso   1.00
Zn147  Zn    0.66151   0.37613   0.22662   0.00000  Uiso   1.00
Zn148  Zn    0.62292   0.28397   0.22728   0.00000  Uiso   1.00
O149   O     0.66649   0.33262   0.24785   0.00000  Uiso   1.00
O150   O     0.74581   0.33488   0.27008   0.00000  Uiso   1.00
O151   O     0.67271   0.38168   0.33230   0.00000  Uiso   1.00
O152   O     0.70412   0.41078   0.19075   0.00000  Uiso   1.00
O153   O     0.71026   0.32705   0.33194   0.00000  Uiso   1.00
O154   O     0.74678   0.38565   0.19575   0.00000  Uiso   1.00
O155   O     0.66506   0.41015   0.27078   0.00000  Uiso   1.00
O156   O     0.58805   0.29184   0.19197   0.00000  Uiso   1.00
O157   O     0.61795   0.28930   0.33299   0.00000  Uiso   1.00
O158   O     0.61300   0.35970   0.19666   0.00000  Uiso   1.00
O159   O     0.58951   0.25330   0.27164   0.00000  Uiso   1.00
O160   O     0.63898   0.25176   0.19726   0.00000  Uiso   1.00
O161   O     0.70670   0.29480   0.19084   0.00000  Uiso   1.00
X162   C     0.74130   0.32844   0.31177   0.00000  Uiso   1.00
X163   C     0.67180   0.41170   0.31242   0.00000  Uiso   1.00
X164   C     0.73899   0.41356   0.18218   0.00000  Uiso   1.00
X165   C     0.58509   0.32383   0.18340   0.00000  Uiso   1.00
X166   C     0.58807   0.25804   0.31336   0.00000  Uiso   1.00
X167   C     0.67461   0.25968   0.18328   0.00000  Uiso   1.00
Zn168  Zn    0.37642   0.66206   0.72759   0.00000  Uiso   1.00
Zn169  Zn    0.28445   0.62310   0.72664   0.00000  Uiso   1.00
Zn170  Zn    0.33224   0.66643   0.81034   0.00000  Uiso   1.00
Zn171  Zn    0.33729   0.71514   0.72707   0.00000  Uiso   1.00
O172   O     0.33259   0.66672   0.74827   0.00000  Uiso   1.00
O173   O     0.36089   0.61435   0.69685   0.00000  Uiso   1.00
O174   O     0.25348   0.58943   0.77045   0.00000  Uiso   1.00
O175   O     0.38064   0.67101   0.83328   0.00000  Uiso   1.00
O176   O     0.29302   0.58853   0.69138   0.00000  Uiso   1.00
O177   O     0.40970   0.66441   0.77179   0.00000  Uiso   1.00
O178   O     0.28847   0.61765   0.83245   0.00000  Uiso   1.00
O179   O     0.33467   0.74594   0.77143   0.00000  Uiso   1.00
O180   O     0.25222   0.63897   0.69629   0.00000  Uiso   1.00
O181   O     0.32727   0.71015   0.83300   0.00000  Uiso   1.00
O182   O     0.29435   0.70699   0.69154   0.00000  Uiso   1.00
O183   O     0.38551   0.74729   0.69684   0.00000  Uiso   1.00
O184   O     0.41129   0.70509   0.69291   0.00000  Uiso   1.00
X185   C     0.32541   0.58618   0.68313   0.00000  Uiso   1.00
X186   C     0.25766   0.58781   0.81223   0.00000  Uiso   1.00
X187   C     0.41065   0.66992   0.81359   0.00000  Uiso   1.00
X188   C     0.32872   0.74139   0.81321   0.00000  Uiso   1.00
X189   C     0.25966   0.67464   0.68302   0.00000  Uiso   1.00
X190   C     0.41384   0.73978   0.68407   0.00000  Uiso   1.00
Zn191  Zn    0.16462   0.36778   0.29307   0.00000  Uiso   1.00
Zn192  Zn    0.18630   0.30171   0.27310   0.00000  Uiso   1.00
Zn193  Zn    0.11390   0.30253   0.22626   0.00000  Uiso   1.00
Zn194  Zn    0.20250   0.36834   0.20765   0.00000  Uiso   1.00
O195   O     0.16650   0.33448   0.24996   0.00000  Uiso   1.00
O196   O     0.18872   0.36497   0.34300   0.00000  Uiso   1.00
O197   O     0.14656   0.24693   0.27080   0.00000  Uiso   1.00
O198   O     0.07417   0.30589   0.25937   0.00000  Uiso   1.00
O199   O     0.20484   0.31595   0.33094   0.00000  Uiso   1.00
O200   O     0.11278   0.35337   0.30921   0.00000  Uiso   1.00
O201   O     0.09785   0.24732   0.22827   0.00000  Uiso   1.00
O202   O     0.17612   0.36607   0.15751   0.00000  Uiso   1.00
O203   O     0.22922   0.30474   0.24032   0.00000  Uiso   1.00
O204   O     0.11055   0.31769   0.16821   0.00000  Uiso   1.00
O205   O     0.24018   0.35388   0.19178   0.00000  Uiso   1.00
O206   O     0.22979   0.42279   0.22259   0.00000  Uiso   1.00
O207   O     0.19121   0.42216   0.27867   0.00000  Uiso   1.00
X208   C     0.20439   0.34338   0.35632   0.00000  Uiso   1.00
X209   C     0.11221   0.22741   0.24961   0.00000  Uiso   1.00
X210   C     0.07728   0.32692   0.29421   0.00000  Uiso   1.00
X211   C     0.13905   0.34526   0.14339   0.00000  Uiso   1.00
X212   C     0.24824   0.32655   0.20633   0.00000  Uiso   1.00
X213   C     0.22014   0.44218   0.25068   0.00000  Uiso   1.00
Zn214  Zn    0.29954   0.15957   0.70353   0.00000  Uiso   1.00
Zn215  Zn    0.36520   0.14332   0.74022   0.00000  Uiso   1.00
Zn216  Zn    0.36438   0.22127   0.76542   0.00000  Uiso   1.00
Zn217  Zn    0.29800   0.13863   0.79976   0.00000  Uiso   1.00
O218   O     0.33178   0.16567   0.75224   0.00000  Uiso   1.00
O219   O     0.31500   0.14165   0.65446   0.00000  Uiso   1.00
O220   O     0.41960   0.18042   0.74929   0.00000  Uiso   1.00
O221   O     0.35136   0.25467   0.73242   0.00000  Uiso   1.00
O222   O     0.36381   0.13040   0.68193   0.00000  Uiso   1.00
O223   O     0.30423   0.20805   0.68713   0.00000  Uiso   1.00
O224   O     0.41897   0.23938   0.75770   0.00000  Uiso   1.00
O225   O     0.31154   0.17119   0.84939   0.00000  Uiso   1.00
O226   O     0.35163   0.09666   0.77324   0.00000  Uiso   1.00
O227   O     0.36133   0.23163   0.82358   0.00000  Uiso   1.00
O228   O     0.30243   0.09463   0.81640   0.00000  Uiso   1.00
O229   O     0.24309   0.11684   0.78710   0.00000  Uiso   1.00
O230   O     0.24417   0.12640   0.71410   0.00000  Uiso   1.00
X231   C     0.34331   0.13216   0.64887   0.00000  Uiso   1.00
X232   C     0.43880   0.21981   0.75365   0.00000  Uiso   1.00
X233   C     0.32545   0.24537   0.70058   0.00000  Uiso   1.00
X234   C     0.33973   0.20887   0.85583   0.00000  Uiso   1.00
X235   C     0.32459   0.07921   0.80399   0.00000  Uiso   1.00
X236   C     0.22411   0.11198   0.75030   0.00000  Uiso   1.00
Zn237  Zn    0.13914   0.84166   0.20307   0.00000  Uiso   1.00
Zn238  Zn    0.14213   0.77941   0.26397   0.00000  Uiso   1.00
Zn239  Zn    0.22097   0.85749   0.23964   0.00000  Uiso   1.00
Zn240  Zn    0.15876   0.86194   0.29943   0.00000  Uiso   1.00
O241   O     0.16524   0.83515   0.25154   0.00000  Uiso   1.00
O242   O     0.09469   0.79347   0.18674   0.00000  Uiso   1.00
O243   O     0.17864   0.76126   0.25554   0.00000  Uiso   1.00
O244   O     0.23240   0.87014   0.18138   0.00000  Uiso   1.00
O245   O     0.09531   0.74639   0.23119   0.00000  Uiso   1.00
O246   O     0.17245   0.85923   0.15389   0.00000  Uiso   1.00
O247   O     0.23827   0.82050   0.24898   0.00000  Uiso   1.00
O248   O     0.20722   0.90596   0.31619   0.00000  Uiso   1.00
O249   O     0.12887   0.76864   0.32210   0.00000  Uiso   1.00
O250   O     0.25419   0.90420   0.27252   0.00000  Uiso   1.00
O251   O     0.14012   0.82896   0.34878   0.00000  Uiso   1.00
O252   O     0.12554   0.88380   0.28730   0.00000  Uiso   1.00
O253   O     0.11774   0.87545   0.21408   0.00000  Uiso   1.00
X254   C     0.07841   0.75604   0.19992   0.00000  Uiso   1.00
X255   C     0.21813   0.78104   0.25239   0.00000  Uiso   1.00
X256   C     0.21016   0.86838   0.14830   0.00000  Uiso   1.00
X257   C     0.24474   0.92150   0.30354   0.00000  Uiso   1.00
X258   C     0.13040   0.79115   0.35479   0.00000  Uiso   1.00
X259   C     0.11188   0.88939   0.25053   0.00000  Uiso   1.00
Zn260  Zn    0.63026   0.83331   0.21057   0.00000  Uiso   1.00
Zn261  Zn    0.69629   0.81098   0.22856   0.00000  Uiso   1.00
Zn262  Zn    0.69703   0.88409   0.27565   0.00000  Uiso   1.00
Zn263  Zn    0.63116   0.79603   0.29569   0.00000  Uiso   1.00
O264   O     0.66433   0.83139   0.25264   0.00000  Uiso   1.00
O265   O     0.63113   0.80793   0.16081   0.00000  Uiso   1.00
O266   O     0.75140   0.85070   0.22929   0.00000  Uiso   1.00
O267   O     0.69346   0.92377   0.24285   0.00000  Uiso   1.00
O268   O     0.68020   0.79162   0.17102   0.00000  Uiso   1.00
O269   O     0.64505   0.88513   0.19384   0.00000  Uiso   1.00
O270   O     0.75187   0.89957   0.27231   0.00000  Uiso   1.00
O271   O     0.63479   0.82306   0.34579   0.00000  Uiso   1.00
O272   O     0.69356   0.76815   0.26164   0.00000  Uiso   1.00
O273   O     0.68347   0.88831   0.33398   0.00000  Uiso   1.00
O274   O     0.64547   0.75821   0.31118   0.00000  Uiso   1.00
O275   O     0.57643   0.76883   0.28192   0.00000  Uiso   1.00
O276   O     0.57632   0.80780   0.22667   0.00000  Uiso   1.00
X277   C     0.65191   0.79164   0.14667   0.00000  Uiso   1.00
X278   C     0.77135   0.88515   0.25033   0.00000  Uiso   1.00
X279   C     0.67195   0.92063   0.20843   0.00000  Uiso   1.00
X280   C     0.65631   0.86023   0.35946   0.00000  Uiso   1.00
X281   C     0.67223   0.74958   0.29611   0.00000  Uiso   1.00
X282   C     0.55666   0.77881   0.25468   0.00000  Uiso   1.00
Zn283  Zn    0.79713   0.16771   0.70852   0.00000  Uiso   1.00
Zn284  Zn    0.81228   0.11626   0.77419   0.00000  Uiso   1.00
Zn285  Zn    0.88523   0.18996   0.72816   0.00000  Uiso   1.00
Zn286  Zn    0.83388   0.20383   0.79535   0.00000  Uiso   1.00
O287   O     0.83240   0.16921   0.75154   0.00000  Uiso   1.00
O288   O     0.75877   0.11588   0.69306   0.00000  Uiso   1.00
O289   O     0.85149   0.10061   0.77063   0.00000  Uiso   1.00
O290   O     0.88908   0.20809   0.66992   0.00000  Uiso   1.00
O291   O     0.76880   0.07695   0.74147   0.00000  Uiso   1.00
O292   O     0.82362   0.19077   0.65810   0.00000  Uiso   1.00
O293   O     0.90137   0.15091   0.73034   0.00000  Uiso   1.00
O294   O     0.88571   0.24239   0.81048   0.00000  Uiso   1.00
O295   O     0.79493   0.11158   0.83271   0.00000  Uiso   1.00
O296   O     0.92462   0.23325   0.76122   0.00000  Uiso   1.00
O297   O     0.81167   0.17671   0.84575   0.00000  Uiso   1.00
O298   O     0.80506   0.22981   0.78261   0.00000  Uiso   1.00
O299   O     0.77083   0.19590   0.72249   0.00000  Uiso   1.00
X300   C     0.75006   0.08029   0.70751   0.00000  Uiso   1.00
X301   C     0.88629   0.11590   0.75028   0.00000  Uiso   1.00
X302   C     0.86077   0.20664   0.64441   0.00000  Uiso   1.00
X303   C     0.92130   0.25153   0.79563   0.00000  Uiso   1.00
X304   C     0.79642   0.13945   0.85890   0.00000  Uiso   1.00
X305   C     0.77802   0.22259   0.75275   0.00000  Uiso   1.00
Zn306  Zn    0.85876   0.70071   0.70289   0.00000  Uiso   1.00
Zn307  Zn    0.77648   0.63469   0.73812   0.00000  Uiso   1.00
Zn308  Zn    0.85480   0.63451   0.76321   0.00000  Uiso   1.00
Zn309  Zn    0.83864   0.70055   0.79912   0.00000  Uiso   1.00
O310   O     0.83215   0.66759   0.75087   0.00000  Uiso   1.00
O311   O     0.82606   0.68587   0.65335   0.00000  Uiso   1.00
O312   O     0.75874   0.58018   0.74633   0.00000  Uiso   1.00
O313   O     0.90151   0.64804   0.73036   0.00000  Uiso   1.00
O314   O     0.76554   0.63702   0.67983   0.00000  Uiso   1.00
O315   O     0.90316   0.69679   0.68679   0.00000  Uiso   1.00
O316   O     0.81789   0.57996   0.75492   0.00000  Uiso   1.00
O317   O     0.85781   0.68643   0.84818   0.00000  Uiso   1.00
O318   O     0.74323   0.64769   0.77155   0.00000  Uiso   1.00
O319   O     0.86820   0.63681   0.82128   0.00000  Uiso   1.00
O320   O     0.79002   0.69553   0.81618   0.00000  Uiso   1.00
O321   O     0.87155   0.75571   0.78748   0.00000  Uiso   1.00
O322   O     0.87995   0.75577   0.71444   0.00000  Uiso   1.00
X323   C     0.78827   0.65782   0.64716   0.00000  Uiso   1.00
X324   C     0.77849   0.56056   0.75071   0.00000  Uiso   1.00
X325   C     0.91892   0.67505   0.69960   0.00000  Uiso   1.00
X326   C     0.86728   0.65815   0.85393   0.00000  Uiso   1.00
X327   C     0.75254   0.67373   0.80329   0.00000  Uiso   1.00
X328   C     0.88545   0.77536   0.75097   0.00000  Uiso   1.00
C329   C     0.08296   0.34797   0.03676   0.00000  Uiso   1.00
X330   C     0.11632   0.37603   0.00920   0.00000  Uiso   1.00
C331   C     0.15679   0.39222   0.02663   0.00000  Uiso   1.00
C332   C     0.16379   0.38169   0.06919   0.00000  Uiso   1.00
X333   C     0.13043   0.35437   0.09697   0.00000  Uiso   1.00
C334   C     0.08982   0.33746   0.07984   0.00000  Uiso   1.00
H335   H     0.05104   0.33518   0.02618   0.00000  Uiso   1.00
H336   H     0.18397   0.41192   0.00687   0.00000  Uiso   1.00
H337   H     0.12211   0.43788   0.09113   0.00000  Uiso   1.00
H338   H     0.02318   0.25047   0.18482   0.00000  Uiso   1.00
F339   F     0.05646   0.31134   0.10492   0.00000  Uiso   1.00
F340   F     0.20391   0.39828   0.08263   0.00000  Uiso   1.00
C341   C     0.27069   0.35224   0.45811   0.00000  Uiso   1.00
X342   C     0.25901   0.37332   0.48878   0.00000  Uiso   1.00
C343   C     0.22785   0.38214   0.47612   0.00000  Uiso   1.00
C344   C     0.20961   0.37141   0.43390   0.00000  Uiso   1.00
X345   C     0.22197   0.35127   0.40253   0.00000  Uiso   1.00
C346   C     0.25244   0.34129   0.41552   0.00000  Uiso   1.00
H347   H     0.29472   0.34504   0.46668   0.00000  Uiso   1.00
H348   H     0.21715   0.39718   0.49920   0.00000  Uiso   1.00
H349   H     0.26501   0.47663   0.45705   0.00000  Uiso   1.00
H350   H     0.30590   0.44247   0.40997   0.00000  Uiso   1.00
F351   F     0.26569   0.32226   0.38666   0.00000  Uiso   1.00
F352   F     0.17945   0.38066   0.42408   0.00000  Uiso   1.00
C353   C     0.32880   0.23033   0.97821   0.00000  Uiso   1.00
X354   C     0.37066   0.25659   0.99143   0.00000  Uiso   1.00
C355   C     0.40155   0.26740   0.95848   0.00000  Uiso   1.00
C356   C     0.39125   0.25300   0.91457   0.00000  Uiso   1.00
X357   C     0.34960   0.22619   0.90199   0.00000  Uiso   1.00
C358   C     0.31850   0.21483   0.93450   0.00000  Uiso   1.00
H359   H     0.30371   0.21987   1.00205   0.00000  Uiso   1.00
H360   H     0.43400   0.28846   0.96584   0.00000  Uiso   1.00
H361   H     0.36830   0.16854   0.97012   0.00000  Uiso   1.00
H362   H     0.23665   0.09511   0.88314   0.00000  Uiso   1.00
F363   F     0.27798   0.18886   0.92402   0.00000  Uiso   1.00
F364   F     0.42249   0.26444   0.88461   0.00000  Uiso   1.00
C365   C     0.33710   0.10939   0.52389   0.00000  Uiso   1.00
X366   C     0.37722   0.11627   0.51438   0.00000  Uiso   1.00
C367   C     0.40572   0.12767   0.54963   0.00000  Uiso   1.00
C368   C     0.39444   0.13175   0.59323   0.00000  Uiso   1.00
X369   C     0.35422   0.12505   0.60281   0.00000  Uiso   1.00
C370   C     0.32578   0.11398   0.56727   0.00000  Uiso   1.00
H371   H     0.31445   0.10086   0.49744   0.00000  Uiso   1.00
H372   H     0.43673   0.13294   0.54353   0.00000  Uiso   1.00
H373   H     0.40924   0.21022   0.50780   0.00000  Uiso   1.00
H374   H     0.33378   0.21161   0.59365   0.00000  Uiso   1.00
F375   F     0.28677   0.10719   0.57439   0.00000  Uiso   1.00
F376   F     0.42350   0.14339   0.62579   0.00000  Uiso   1.00
C377   C     0.77756   0.15523   0.98028   0.00000  Uiso   1.00
X378   C     0.74641   0.11547   0.99359   0.00000  Uiso   1.00
C379   C     0.73348   0.08254   0.96287   0.00000  Uiso   1.00
C380   C     0.75028   0.08955   0.91953   0.00000  Uiso   1.00
X381   C     0.78057   0.12986   0.90585   0.00000  Uiso   1.00
C382   C     0.79441   0.16243   0.93737   0.00000  Uiso   1.00
H383   H     0.78917   0.18108   1.00332   0.00000  Uiso   1.00
H384   H     0.70943   0.05147   0.97194   0.00000  Uiso   1.00
H385   H     0.73007   0.12688   0.78715   0.00000  Uiso   1.00
H386   H     0.69648   0.14168   0.92881   0.00000  Uiso   1.00
F387   F     0.82459   0.20168   0.92694   0.00000  Uiso   1.00
F388   F     0.73571   0.05719   0.89062   0.00000  Uiso   1.00
C389   C     0.27699   0.87207   0.04941   0.00000  Uiso   1.00
X390   C     0.26009   0.88351   0.01401   0.00000  Uiso   1.00
C391   C     0.22695   0.89061   0.02327   0.00000  Uiso   1.00
C392   C     0.21096   0.88622   0.06659   0.00000  Uiso   1.00
X393   C     0.22817   0.87516   0.10228   0.00000  Uiso   1.00
C394   C     0.26158   0.86821   0.09293   0.00000  Uiso   1.00
H395   H     0.30268   0.86667   0.04349   0.00000  Uiso   1.00
H396   H     0.21302   0.89922  -0.00331   0.00000  Uiso   1.00
H397   H     0.11752   0.79039   0.09272   0.00000  Uiso   1.00
H398   H     0.16292   0.77299   0.16049   0.00000  Uiso   1.00
F399   F     0.27888   0.85663   0.12567   0.00000  Uiso   1.00
F400   F     0.17886   0.89324   0.07349   0.00000  Uiso   1.00
C401   C     0.12539   0.72476   0.45441   0.00000  Uiso   1.00
X402   C     0.11394   0.74202   0.48943   0.00000  Uiso   1.00
C403   C     0.10667   0.77494   0.47962   0.00000  Uiso   1.00
C404   C     0.11137   0.79066   0.43611   0.00000  Uiso   1.00
X405   C     0.12283   0.77330   0.40089   0.00000  Uiso   1.00
C406   C     0.12955   0.73987   0.41078   0.00000  Uiso   1.00
H407   H     0.13080   0.69914   0.46074   0.00000  Uiso   1.00
H408   H     0.09793   0.78902   0.50592   0.00000  Uiso   1.00
H409   H     0.20820   0.81834   0.45695   0.00000  Uiso   1.00
H410   H     0.22584   0.83279   0.34455   0.00000  Uiso   1.00
F411   F     0.14147   0.72240   0.37853   0.00000  Uiso   1.00
F412   F     0.10444   0.82274   0.42857   0.00000  Uiso   1.00
C413   C     0.91655   0.27018   0.54024   0.00000  Uiso   1.00
X414   C     0.88325   0.25803   0.51014   0.00000  Uiso   1.00
C415   C     0.84340   0.22763   0.52411   0.00000  Uiso   1.00
C416   C     0.83659   0.21054   0.56692   0.00000  Uiso   1.00
X417   C     0.86968   0.22326   0.59766   0.00000  Uiso   1.00
C418   C     0.90996   0.25307   0.58340   0.00000  Uiso   1.00
H419   H     0.94771   0.29365   0.53071   0.00000  Uiso   1.00
H420   H     0.81721   0.21652   0.50160   0.00000  Uiso   1.00
H421   H     0.85254   0.31530   0.54935   0.00000  Uiso   1.00
H422   H     0.83553   0.11099   0.66404   0.00000  Uiso   1.00
F423   F     0.94283   0.26668   0.61150   0.00000  Uiso   1.00
F424   F     0.79722   0.18106   0.57789   0.00000  Uiso   1.00
C425   C     0.72359   0.59631   0.54653   0.00000  Uiso   1.00
X426   C     0.74095   0.62531   0.51174   0.00000  Uiso   1.00
C427   C     0.77330   0.66565   0.52211   0.00000  Uiso   1.00
C428   C     0.78833   0.67659   0.56587   0.00000  Uiso   1.00
X429   C     0.77085   0.64752   0.60085   0.00000  Uiso   1.00
C430   C     0.73801   0.60719   0.59045   0.00000  Uiso   1.00
H431   H     0.69844   0.56512   0.53978   0.00000  Uiso   1.00
H432   H     0.78754   0.68870   0.49605   0.00000  Uiso   1.00
H433   H     0.81810   0.60890   0.54673   0.00000  Uiso   1.00
H434   H     0.78974   0.72347   0.71364   0.00000  Uiso   1.00
F435   F     0.72052   0.57760   0.62250   0.00000  Uiso   1.00
F436   F     0.81987   0.71577   0.57387   0.00000  Uiso   1.00
C437   C     0.90096   0.66840   0.97573   0.00000  Uiso   1.00
X438   C     0.88567   0.62648   0.98857   0.00000  Uiso   1.00
C439   C     0.86520   0.59574   0.95557   0.00000  Uiso   1.00
C440   C     0.86051   0.60626   0.91194   0.00000  Uiso   1.00
X441   C     0.87515   0.64797   0.89976   0.00000  Uiso   1.00
C442   C     0.89523   0.67890   0.93234   0.00000  Uiso   1.00
H443   H     0.91577   0.69338   0.99966   0.00000  Uiso   1.00
H444   H     0.85393   0.56326   0.96265   0.00000  Uiso   1.00
H445   H     0.79868   0.62849   0.96607   0.00000  Uiso   1.00
H446   H     0.93361   0.72805   0.78554   0.00000  Uiso   1.00
F447   F     0.90961   0.71947   0.92223   0.00000  Uiso   1.00
F448   F     0.84037   0.57518   0.88188   0.00000  Uiso   1.00
C449   C     0.60323   0.75972   0.03087   0.00000  Uiso   1.00
X450   C     0.61963   0.73550   0.01378   0.00000  Uiso   1.00
C451   C     0.64790   0.73069   0.04152   0.00000  Uiso   1.00
C452   C     0.65884   0.74889   0.08415   0.00000  Uiso   1.00
X453   C     0.64202   0.77282   0.10079   0.00000  Uiso   1.00
C454   C     0.61414   0.77803   0.07307   0.00000  Uiso   1.00
H455   H     0.58316   0.76663   0.01104   0.00000  Uiso   1.00
H456   H     0.66069   0.71144   0.03143   0.00000  Uiso   1.00
H457   H     0.70055   0.82729   0.01322   0.00000  Uiso   1.00
H458   H     0.72385   0.88854   0.15934   0.00000  Uiso   1.00
F459   F     0.59747   0.80157   0.08616   0.00000  Uiso   1.00
F460   F     0.68533   0.74226   0.10929   0.00000  Uiso   1.00
C461   C     0.65648   0.91774   0.46620   0.00000  Uiso   1.00
X462   C     0.62854   0.88473   0.49412   0.00000  Uiso   1.00
C463   C     0.61211   0.84404   0.47721   0.00000  Uiso   1.00
C464   C     0.62178   0.83650   0.43453   0.00000  Uiso   1.00
X465   C     0.64853   0.86949   0.40612   0.00000  Uiso   1.00
C466   C     0.66614   0.91033   0.42291   0.00000  Uiso   1.00
H467   H     0.66969   0.94976   0.47660   0.00000  Uiso   1.00
H468   H     0.59265   0.81711   0.49743   0.00000  Uiso   1.00
H469   H     0.69248   0.81170   0.42125   0.00000  Uiso   1.00
H470   H     0.54681   0.80582   0.35461   0.00000  Uiso   1.00
F471   F     0.69199   0.94335   0.39727   0.00000  Uiso   1.00
F472   F     0.60482   0.79620   0.42157   0.00000  Uiso   1.00
C473   C     0.30001   0.55553   0.22514   0.00000  Uiso   1.00
X474   C     0.28600   0.57735   0.25149   0.00000  Uiso   1.00
C475   C     0.25005   0.55441   0.27734   0.00000  Uiso   1.00
C476   C     0.22875   0.51082   0.27721   0.00000  Uiso   1.00
X477   C     0.24280   0.48876   0.25083   0.00000  Uiso   1.00
C478   C     0.27879   0.51193   0.22462   0.00000  Uiso   1.00
H479   H     0.32734   0.57229   0.20443   0.00000  Uiso   1.00
H480   H     0.23870   0.57029   0.29835   0.00000  Uiso   1.00
H481   H     0.24673   0.45477   0.36028   0.00000  Uiso   1.00
H482   H     0.19076   0.45316   0.15213   0.00000  Uiso   1.00
F483   F     0.29392   0.49264   0.19860   0.00000  Uiso   1.00
F484   F     0.19425   0.49044   0.30294   0.00000  Uiso   1.00
C485   C     0.24651   0.69704   0.27438   0.00000  Uiso   1.00
X486   C     0.28541   0.71323   0.25322   0.00000  Uiso   1.00
C487   C     0.30180   0.75200   0.23175   0.00000  Uiso   1.00
C488   C     0.28028   0.77409   0.23171   0.00000  Uiso   1.00
X489   C     0.24121   0.75768   0.25266   0.00000  Uiso   1.00
C490   C     0.22455   0.71871   0.27390   0.00000  Uiso   1.00
H491   H     0.23318   0.66776   0.29207   0.00000  Uiso   1.00
H492   H     0.33116   0.76517   0.21424   0.00000  Uiso   1.00
H493   H     0.30810   0.77885   0.12456   0.00000  Uiso   1.00
H494   H     0.22943   0.76688   0.14351   0.00000  Uiso   1.00
F495   F     0.18744   0.70191   0.29533   0.00000  Uiso   1.00
F496   F     0.29738   0.81113   0.21010   0.00000  Uiso   1.00
C497   C     0.44416   0.74918   0.23008   0.00000  Uiso   1.00
X498   C     0.42148   0.71312   0.25583   0.00000  Uiso   1.00
C499   C     0.44358   0.69908   0.28168   0.00000  Uiso   1.00
C500   C     0.48719   0.72031   0.28167   0.00000  Uiso   1.00
X501   C     0.51009   0.75636   0.25546   0.00000  Uiso   1.00
C502   C     0.48774   0.77053   0.22975   0.00000  Uiso   1.00
H503   H     0.42809   0.76057   0.20942   0.00000  Uiso   1.00
H504   H     0.42705   0.67167   0.30232   0.00000  Uiso   1.00
H505   H     0.42696   0.65773   0.18246   0.00000  Uiso   1.00
H506   H     0.56914   0.84779   0.13809   0.00000  Uiso   1.00
F507   F     0.50783   0.80517   0.20417   0.00000  Uiso   1.00
F508   F     0.50676   0.70509   0.30711   0.00000  Uiso   1.00
C509   C     0.55163   0.25071   0.73091   0.00000  Uiso   1.00
X510   C     0.57378   0.28878   0.75376   0.00000  Uiso   1.00
C511   C     0.55089   0.30385   0.77660   0.00000  Uiso   1.00
C512   C     0.50727   0.28172   0.77647   0.00000  Uiso   1.00
X513   C     0.48519   0.24344   0.75385   0.00000  Uiso   1.00
C514   C     0.50803   0.22818   0.73115   0.00000  Uiso   1.00
H515   H     0.56801   0.23848   0.71210   0.00000  Uiso   1.00
H516   H     0.56670   0.33256   0.79530   0.00000  Uiso   1.00
H517   H     0.57476   0.34537   0.67706   0.00000  Uiso   1.00
H518   H     0.39620   0.22753   0.66164   0.00000  Uiso   1.00
F519   F     0.48828   0.19195   0.70805   0.00000  Uiso   1.00
F520   F     0.48674   0.29741   0.79950   0.00000  Uiso   1.00
C521   C     0.69670   0.25396   0.72714   0.00000  Uiso   1.00
X522   C     0.71002   0.28964   0.75355   0.00000  Uiso   1.00
C523   C     0.74582   0.30307   0.77979   0.00000  Uiso   1.00
C524   C     0.76777   0.28142   0.77981   0.00000  Uiso   1.00
X525   C     0.75455   0.24563   0.75315   0.00000  Uiso   1.00
C526   C     0.71858   0.23226   0.72675   0.00000  Uiso   1.00
H527   H     0.66947   0.24307   0.70620   0.00000  Uiso   1.00
H528   H     0.75666   0.33025   0.80081   0.00000  Uiso   1.00
H529   H     0.77143   0.34471   0.68054   0.00000  Uiso   1.00
H530   H     0.73940   0.18973   0.85338   0.00000  Uiso   1.00
F531   F     0.70410   0.19791   0.70070   0.00000  Uiso   1.00
F532   F     0.80224   0.29598   0.80566   0.00000  Uiso   1.00
C533   C     0.69483   0.44804   0.72903   0.00000  Uiso   1.00
X534   C     0.71009   0.42556   0.75235   0.00000  Uiso   1.00
C535   C     0.74820   0.44813   0.77503   0.00000  Uiso   1.00
C536   C     0.77055   0.49172   0.77422   0.00000  Uiso   1.00
X537   C     0.75506   0.51416   0.75109   0.00000  Uiso   1.00
C538   C     0.71677   0.49167   0.72859   0.00000  Uiso   1.00
H539   H     0.66612   0.43191   0.71036   0.00000  Uiso   1.00
H540   H     0.76062   0.43208   0.79413   0.00000  Uiso   1.00
H541   H     0.76518   0.42506   0.67518   0.00000  Uiso   1.00
H542   H     0.83000   0.60436   0.65918   0.00000  Uiso   1.00
F543   F     0.70090   0.51179   0.70511   0.00000  Uiso   1.00
F544   F     0.80684   0.51189   0.79717   0.00000  Uiso   1.00
C545   C     0.48608   0.27617   0.11279   0.00000  Uiso   1.00
X546   C     0.47178   0.30449   0.11873   0.00000  Uiso   1.00
C547   C     0.49621   0.34034   0.14438   0.00000  Uiso   1.00
C548   C     0.53360   0.34747   0.16405   0.00000  Uiso   1.00
X549   C     0.54743   0.31851   0.15903   0.00000  Uiso   1.00
C550   C     0.52313   0.28284   0.13275   0.00000  Uiso   1.00
H551   H     0.46794   0.24811   0.09353   0.00000  Uiso   1.00
H552   H     0.48633   0.36299   0.14927   0.00000  Uiso   1.00
H553   H     0.50949   0.27323   0.25133   0.00000  Uiso   1.00
H554   H     0.58023   0.33683   0.28927   0.00000  Uiso   1.00
F555   F     0.53503   0.25410   0.12633   0.00000  Uiso   1.00
F556   F     0.55536   0.38207   0.18933   0.00000  Uiso   1.00
C557   C     0.47794   0.16837   0.33572   0.00000  Uiso   1.00
X558   C     0.47499   0.16540   0.38263   0.00000  Uiso   1.00
C559   C     0.51063   0.19461   0.40673   0.00000  Uiso   1.00
C560   C     0.54729   0.22450   0.38495   0.00000  Uiso   1.00
X561   C     0.54979   0.22642   0.33807   0.00000  Uiso   1.00
C562   C     0.51417   0.19777   0.31401   0.00000  Uiso   1.00
H563   H     0.45159   0.14927   0.31469   0.00000  Uiso   1.00
H564   H     0.51123   0.19388   0.44265   0.00000  Uiso   1.00
H565   H     0.44387   0.22722   0.41099   0.00000  Uiso   1.00
H566   H     0.66315   0.24170   0.28896   0.00000  Uiso   1.00
F567   F     0.51346   0.19851   0.26885   0.00000  Uiso   1.00
F568   F     0.58044   0.25108   0.41000   0.00000  Uiso   1.00
C569   C     0.71751   0.20736   0.10752   0.00000  Uiso   1.00
X570   C     0.69398   0.16500   0.12000   0.00000  Uiso   1.00
C571   C     0.66240   0.15449   0.15215   0.00000  Uiso   1.00
C572   C     0.65497   0.18476   0.17116   0.00000  Uiso   1.00
X573   C     0.67950   0.22698   0.15950   0.00000  Uiso   1.00
C574   C     0.71081   0.23782   0.12728   0.00000  Uiso   1.00
H575   H     0.74290   0.21784   0.08408   0.00000  Uiso   1.00
H576   H     0.64220   0.12252   0.16204   0.00000  Uiso   1.00
H577   H     0.62782   0.18085   0.06562   0.00000  Uiso   1.00
H578   H     0.72485   0.23231   0.25091   0.00000  Uiso   1.00
F579   F     0.73527   0.27810   0.11487   0.00000  Uiso   1.00
F580   F     0.62461   0.17272   0.20231   0.00000  Uiso   1.00
C581   C     0.28043   0.48756   0.61211   0.00000  Uiso   1.00
X582   C     0.31010   0.47486   0.61730   0.00000  Uiso   1.00
C583   C     0.34575   0.50009   0.64284   0.00000  Uiso   1.00
C584   C     0.35147   0.53679   0.66297   0.00000  Uiso   1.00
X585   C     0.32123   0.54907   0.65858   0.00000  Uiso   1.00
C586   C     0.28569   0.52390   0.63253   0.00000  Uiso   1.00
H587   H     0.25245   0.46874   0.59297   0.00000  Uiso   1.00
H588   H     0.36939   0.49144   0.64718   0.00000  Uiso   1.00
H589   H     0.35759   0.55774   0.55545   0.00000  Uiso   1.00
H590   H     0.39128   0.63741   0.60531   0.00000  Uiso   1.00
F591   F     0.25577   0.53429   0.62669   0.00000  Uiso   1.00
F592   F     0.38608   0.55946   0.68796   0.00000  Uiso   1.00
C593   C     0.82977   0.30599   0.33229   0.00000  Uiso   1.00
X594   C     0.83346   0.30640   0.37911   0.00000  Uiso   1.00
C595   C     0.80516   0.31375   0.40380   0.00000  Uiso   1.00
C596   C     0.77542   0.32105   0.38261   0.00000  Uiso   1.00
X597   C     0.77280   0.32128   0.33580   0.00000  Uiso   1.00
C598   C     0.80051   0.31336   0.31116   0.00000  Uiso   1.00
H599   H     0.84823   0.29809   0.31098   0.00000  Uiso   1.00
H600   H     0.80658   0.31551   0.43969   0.00000  Uiso   1.00
H601   H     0.77153   0.21380   0.41119   0.00000  Uiso   1.00
H602   H     0.75761   0.42114   0.28691   0.00000  Uiso   1.00
F603   F     0.79893   0.31146   0.26602   0.00000  Uiso   1.00
F604   F     0.74974   0.32854   0.40815   0.00000  Uiso   1.00
C605   C     0.70403   0.52510   0.33451   0.00000  Uiso   1.00
X606   C     0.69556   0.52565   0.38003   0.00000  Uiso   1.00
C607   C     0.68019   0.48806   0.40398   0.00000  Uiso   1.00
C608   C     0.67277   0.45101   0.38274   0.00000  Uiso   1.00
X609   C     0.68020   0.45052   0.33675   0.00000  Uiso   1.00
C610   C     0.69634   0.48841   0.31317   0.00000  Uiso   1.00
H611   H     0.71714   0.55341   0.31507   0.00000  Uiso   1.00
H612   H     0.67303   0.48705   0.43903   0.00000  Uiso   1.00
H613   H     0.61045   0.50390   0.33761   0.00000  Uiso   1.00
H614   H     0.59688   0.42997   0.28199   0.00000  Uiso   1.00
F615   F     0.70570   0.49049   0.26922   0.00000  Uiso   1.00
F616   F     0.65728   0.41551   0.40701   0.00000  Uiso   1.00
C617   C     0.84477   0.50096   0.14183   0.00000  Uiso   1.00
X618   C     0.83376   0.52566   0.11613   0.00000  Uiso   1.00
C619   C     0.79122   0.51212   0.11078   0.00000  Uiso   1.00
C620   C     0.76055   0.47552   0.13126   0.00000  Uiso   1.00
X621   C     0.77153   0.45089   0.15748   0.00000  Uiso   1.00
C622   C     0.81423   0.46400   0.16197   0.00000  Uiso   1.00
H623   H     0.87723   0.51031   0.14637   0.00000  Uiso   1.00
H624   H     0.78159   0.53052   0.09156   0.00000  Uiso   1.00
H625   H     0.78565   0.49910   0.24624   0.00000  Uiso   1.00
H626   H     0.77309   0.37346   0.10625   0.00000  Uiso   1.00
F627   F     0.82675   0.44192   0.18716   0.00000  Uiso   1.00
F628   F     0.72004   0.46437   0.12536   0.00000  Uiso   1.00
C629   C     0.20685   0.71582   0.60540   0.00000  Uiso   1.00
X630   C     0.16442   0.69205   0.61761   0.00000  Uiso   1.00
C631   C     0.15409   0.66104   0.65042   0.00000  Uiso   1.00
C632   C     0.18457   0.65433   0.67021   0.00000  Uiso   1.00
X633   C     0.22684   0.67910   0.65879   0.00000  Uiso   1.00
C634   C     0.23751   0.70990   0.62601   0.00000  Uiso   1.00
H635   H     0.21722   0.74083   0.58150   0.00000  Uiso   1.00
H636   H     0.12211   0.64076   0.66024   0.00000  Uiso   1.00
H637   H     0.18206   0.62575   0.56561   0.00000  Uiso   1.00
H638   H     0.33344   0.66709   0.63626   0.00000  Uiso   1.00
F639   F     0.27782   0.73456   0.61380   0.00000  Uiso   1.00
F640   F     0.17267   0.62439   0.70183   0.00000  Uiso   1.00
C641   C     0.16930   0.47692   0.83304   0.00000  Uiso   1.00
X642   C     0.16552   0.47389   0.87985   0.00000  Uiso   1.00
C643   C     0.19358   0.50973   0.90442   0.00000  Uiso   1.00
C644   C     0.22326   0.54670   0.88312   0.00000  Uiso   1.00
X645   C     0.22610   0.54927   0.83632   0.00000  Uiso   1.00
C646   C     0.19858   0.51346   0.81179   0.00000  Uiso   1.00
H647   H     0.15093   0.45039   0.81189   0.00000  Uiso   1.00
H648   H     0.19197   0.51033   0.94029   0.00000  Uiso   1.00
H649   H     0.25773   0.48344   0.86001   0.00000  Uiso   1.00
H650   H     0.33467   0.57772   0.78787   0.00000  Uiso   1.00
F651   F     0.20045   0.51287   0.76668   0.00000  Uiso   1.00
F652   F     0.24872   0.58007   0.90854   0.00000  Uiso   1.00
C653   C     0.50205   0.84553   0.64530   0.00000  Uiso   1.00
X654   C     0.52733   0.83446   0.62077   0.00000  Uiso   1.00
C655   C     0.51386   0.79195   0.61550   0.00000  Uiso   1.00
C656   C     0.47670   0.76132   0.63492   0.00000  Uiso   1.00
X657   C     0.45152   0.77234   0.66008   0.00000  Uiso   1.00
C658   C     0.46456   0.81501   0.66450   0.00000  Uiso   1.00
H659   H     0.51127   0.87798   0.64955   0.00000  Uiso   1.00
H660   H     0.53265   0.78231   0.59701   0.00000  Uiso   1.00
H661   H     0.47061   0.81648   0.53880   0.00000  Uiso   1.00
H662   H     0.45195   0.65086   0.69086   0.00000  Uiso   1.00
F663   F     0.44188   0.82748   0.68870   0.00000  Uiso   1.00
F664   F     0.46556   0.72081   0.62904   0.00000  Uiso   1.00
C665   C     0.30880   0.83139   0.83560   0.00000  Uiso   1.00
X666   C     0.30892   0.83437   0.88250   0.00000  Uiso   1.00
C667   C     0.31526   0.80511   0.90659   0.00000  Uiso   1.00
C668   C     0.32188   0.77515   0.88478   0.00000  Uiso   1.00
X669   C     0.32232   0.77316   0.83790   0.00000  Uiso   1.00
C670   C     0.31540   0.80185   0.81386   0.00000  Uiso   1.00
H671   H     0.30162   0.85060   0.81463   0.00000  Uiso   1.00
H672   H     0.31669   0.80590   0.94251   0.00000  Uiso   1.00
H673   H     0.40540   0.86513   0.85918   0.00000  Uiso   1.00
H674   H     0.24221   0.66485   0.78729   0.00000  Uiso   1.00
F675   F     0.31372   0.80099   0.76870   0.00000  Uiso   1.00
F676   F     0.32843   0.74855   0.90982   0.00000  Uiso   1.00
C677   C     0.48405   0.67313   0.90590   0.00000  Uiso   1.00
X678   C     0.52188   0.68756   0.88264   0.00000  Uiso   1.00
C679   C     0.52245   0.69681   0.83720   0.00000  Uiso   1.00
C680   C     0.48667   0.69121   0.81539   0.00000  Uiso   1.00
X681   C     0.44858   0.67627   0.83837   0.00000  Uiso   1.00
C682   C     0.44792   0.66770   0.88419   0.00000  Uiso   1.00
H683   H     0.48213   0.66533   0.94085   0.00000  Uiso   1.00
H684   H     0.55103   0.70922   0.81831   0.00000  Uiso   1.00
H685   H     0.42102   0.75641   0.78828   0.00000  Uiso   1.00
H686   H     0.42876   0.59637   0.77532   0.00000  Uiso   1.00
F687   F     0.41219   0.65313   0.90787   0.00000  Uiso   1.00
F688   F     0.48989   0.70154   0.77164   0.00000  Uiso   1.00
C689   C     0.08201   0.97245   0.27207   0.00000  Uiso   1.00
X690   C     0.04351   0.95669   0.24961   0.00000  Uiso   1.00
C691   C     0.02821   0.91810   0.22747   0.00000  Uiso   1.00
C692   C     0.05066   0.89681   0.22702   0.00000  Uiso   1.00
X693   C     0.08852   0.91250   0.25015   0.00000  Uiso   1.00
C694   C     0.10372   0.95041   0.27303   0.00000  Uiso   1.00
H695   H     0.09486   1.00116   0.29077   0.00000  Uiso   1.00
H696   H    -0.00043   0.90488   0.20861   0.00000  Uiso   1.00
H697   H     0.10969   0.98260   0.16941   0.00000  Uiso   1.00
H698   H     0.20742   0.93574   0.21641   0.00000  Uiso   1.00
F699   F     0.14013   0.96665   0.29576   0.00000  Uiso   1.00
F700   F     0.03486   0.86029   0.20456   0.00000  Uiso   1.00
C701   C     0.02576   0.11394   0.23273   0.00000  Uiso   1.00
X702   C     0.04317   0.09067   0.25045   0.00000  Uiso   1.00
C703   C     0.08389   0.11382   0.26809   0.00000  Uiso   1.00
C704   C     0.10599   0.15756   0.26791   0.00000  Uiso   1.00
X705   C     0.08845   0.18046   0.24988   0.00000  Uiso   1.00
C706   C     0.04782   0.15772   0.23229   0.00000  Uiso   1.00
H707   H    -0.00455   0.09870   0.21719   0.00000  Uiso   1.00
H708   H     0.09878   0.09851   0.28386   0.00000  Uiso   1.00
H709   H     0.09252   0.08609   0.16875   0.00000  Uiso   1.00
H710   H     0.18895   0.22151   0.19790   0.00000  Uiso   1.00
F711   F     0.02899   0.17763   0.21437   0.00000  Uiso   1.00
F712   F     0.14482   0.17729   0.28562   0.00000  Uiso   1.00
C713   C     0.88486   0.91832   0.22226   0.00000  Uiso   1.00
X714   C     0.90754   0.95495   0.24738   0.00000  Uiso   1.00
C715   C     0.88491   0.96833   0.27338   0.00000  Uiso   1.00
C716   C     0.84119   0.94603   0.27436   0.00000  Uiso   1.00
X717   C     0.81830   0.90915   0.24924   0.00000  Uiso   1.00
C718   C     0.84109   0.89575   0.22308   0.00000  Uiso   1.00
H719   H     0.90104   0.90723   0.20136   0.00000  Uiso   1.00
H720   H     0.90109   0.99592   0.29382   0.00000  Uiso   1.00
H721   H     0.89604   1.01149   0.17960   0.00000  Uiso   1.00
H722   H     0.81223   0.94325   0.15578   0.00000  Uiso   1.00
F723   F     0.82125   0.86087   0.19783   0.00000  Uiso   1.00
F724   F     0.82151   0.96069   0.30044   0.00000  Uiso   1.00
C725   C     0.11193   0.08432   0.72775   0.00000  Uiso   1.00
X726   C     0.08850   0.04540   0.74920   0.00000  Uiso   1.00
C727   C     0.11107   0.02902   0.77087   0.00000  Uiso   1.00
C728   C     0.15479   0.05080   0.77178   0.00000  Uiso   1.00
X729   C     0.17766   0.08908   0.74965   0.00000  Uiso   1.00
C730   C     0.15569   0.10539   0.72724   0.00000  Uiso   1.00
H731   H     0.09663   0.09802   0.70951   0.00000  Uiso   1.00
H732   H     0.09513   0.00005   0.78908   0.00000  Uiso   1.00
H733   H     0.08303  -0.01251   0.67101   0.00000  Uiso   1.00
H734   H     0.24165   0.14563   0.61843   0.00000  Uiso   1.00
F735   F     0.17660   0.14229   0.70552   0.00000  Uiso   1.00
F736   F     0.17478   0.03398   0.79383   0.00000  Uiso   1.00
C737   C     0.91756   0.03362   0.77459   0.00000  Uiso   1.00
X738   C     0.95399   0.04743   0.74918   0.00000  Uiso   1.00
C739   C     0.96793   0.08406   0.72408   0.00000  Uiso   1.00
C740   C     0.94630   0.10621   0.72432   0.00000  Uiso   1.00
X741   C     0.90967   0.09235   0.74984   0.00000  Uiso   1.00
C742   C     0.89572   0.05551   0.77499   0.00000  Uiso   1.00
H743   H     0.90613   0.00600   0.79498   0.00000  Uiso   1.00
H744   H     0.99546   0.09546   0.70356   0.00000  Uiso   1.00
H745   H     0.98534   0.11992   0.82440   0.00000  Uiso   1.00
H746   H     0.80820   0.03104   0.70352   0.00000  Uiso   1.00
F747   F     0.86104   0.04052   0.80056   0.00000  Uiso   1.00
F748   F     0.96132   0.14110   0.69909   0.00000  Uiso   1.00
C749   C     0.92115   0.88835   0.78196   0.00000  Uiso   1.00
X750   C     0.95340   0.91078   0.75132   0.00000  Uiso   1.00
C751   C     0.96301   0.88830   0.72052   0.00000  Uiso   1.00
C752   C     0.94076   0.84457   0.71996   0.00000  Uiso   1.00
X753   C     0.90870   0.82199   0.75101   0.00000  Uiso   1.00
C754   C     0.89939   0.84459   0.78224   0.00000  Uiso   1.00
H755   H     0.91314   0.90480   0.80618   0.00000  Uiso   1.00
H756   H     0.98754   0.90470   0.69636   0.00000  Uiso   1.00
H757   H     0.87184   0.87427   0.69085   0.00000  Uiso   1.00
H758   H     0.95802   0.80827   0.82817   0.00000  Uiso   1.00
F759   F     0.86865   0.82441   0.81261   0.00000  Uiso   1.00
F760   F     0.95137   0.82440   0.68962   0.00000  Uiso   1.00
C761   C     0.31665   0.32369   0.11314   0.00000  Uiso   1.00
X762   C     0.33549   0.30302   0.13301   0.00000  Uiso   1.00
C763   C     0.32640   0.29107   0.17790   0.00000  Uiso   1.00
C764   C     0.29846   0.29880   0.20205   0.00000  Uiso   1.00
X765   C     0.27937   0.31941   0.18196   0.00000  Uiso   1.00
C766   C     0.28921   0.33196   0.13708   0.00000  Uiso   1.00
H767   H     0.32339   0.33376   0.07881   0.00000  Uiso   1.00
H768   H     0.34038   0.27500   0.19413   0.00000  Uiso   1.00
H769   H     0.40574   0.38667   0.16921   0.00000  Uiso   1.00
H770   H     0.16337   0.27466   0.15843   0.00000  Uiso   1.00
F771   F     0.27147   0.35135   0.11560   0.00000  Uiso   1.00
F772   F     0.29036   0.28624   0.24510   0.00000  Uiso   1.00
C773   C    -0.03559   0.29369   0.32372   0.00000  Uiso   1.00
X774   C    -0.03223   0.30565   0.36871   0.00000  Uiso   1.00
C775   C     0.00730   0.32498   0.38849   0.00000  Uiso   1.00
C776   C     0.04257   0.33228   0.36424   0.00000  Uiso   1.00
X777   C     0.03936   0.32010   0.31913   0.00000  Uiso   1.00
C778   C    -0.00040   0.30051   0.29926   0.00000  Uiso   1.00
H779   H    -0.06570   0.27843   0.30757   0.00000  Uiso   1.00
H780   H     0.01105   0.33489   0.42290   0.00000  Uiso   1.00
H781   H     0.10885   0.27372   0.34194   0.00000  Uiso   1.00
H782   H     0.02969   0.22257   0.30071   0.00000  Uiso   1.00
F783   F    -0.00536   0.28821   0.25609   0.00000  Uiso   1.00
F784   F     0.07977   0.35056   0.38560   0.00000  Uiso   1.00
C785   C     0.29571   1.01897   0.37633   0.00000  Uiso   1.00
X786   C     0.33821   1.03172   0.37364   0.00000  Uiso   1.00
C787   C     0.35009   1.00866   0.34619   0.00000  Uiso   1.00
C788   C     0.32023   0.97337   0.32283   0.00000  Uiso   1.00
X789   C     0.27744   0.96014   0.32634   0.00000  Uiso   1.00
C790   C     0.26582   0.98393   0.35322   0.00000  Uiso   1.00
H791   H     0.28543   1.03646   0.39622   0.00000  Uiso   1.00
H792   H     0.38253   1.01736   0.34355   0.00000  Uiso   1.00
H793   H     0.29922   0.94535   0.42938   0.00000  Uiso   1.00
H794   H     0.14178   0.90697   0.38198   0.00000  Uiso   1.00
F795   F     0.22538   0.97373   0.35711   0.00000  Uiso   1.00
F796   F     0.33332   0.95171   0.29776   0.00000  Uiso   1.00
C797   C     0.70505   1.03349   0.17925   0.00000  Uiso   1.00
X798   C     0.69345   1.03022   0.13417   0.00000  Uiso   1.00
C799   C     0.67420   0.99074   0.11428   0.00000  Uiso   1.00
C800   C     0.66677   0.95542   0.13847   0.00000  Uiso   1.00
X801   C     0.67873   0.95854   0.18363   0.00000  Uiso   1.00
C802   C     0.69810   0.99823   0.20366   0.00000  Uiso   1.00
H803   H     0.72030   1.06357   0.19544   0.00000  Uiso   1.00
H804   H     0.66465   0.98711   0.07974   0.00000  Uiso   1.00
H805   H     0.76714   1.00433   0.13068   0.00000  Uiso   1.00
H806   H     0.78037   0.97683   0.21490   0.00000  Uiso   1.00
F807   F     0.71015   1.00306   0.24691   0.00000  Uiso   1.00
F808   F     0.64882   0.91829   0.11697   0.00000  Uiso   1.00
C809   C     0.34368   0.35039   0.65717   0.00000  Uiso   1.00
X810   C     0.30882   0.33816   0.62954   0.00000  Uiso   1.00
C811   C     0.27892   0.29570   0.62741   0.00000  Uiso   1.00
C812   C     0.28401   0.26606   0.65096   0.00000  Uiso   1.00
X813   C     0.31951   0.27794   0.67775   0.00000  Uiso   1.00
C814   C     0.34908   0.32073   0.68099   0.00000  Uiso   1.00
H815   H     0.36735   0.38288   0.65951   0.00000  Uiso   1.00
H816   H     0.25110   0.28523   0.60755   0.00000  Uiso   1.00
H817   H     0.35513   0.29747   0.57458   0.00000  Uiso   1.00
H818   H     0.35285   0.31637   0.92966   0.00000  Uiso   1.00
F819   F     0.38381   0.33396   0.70611   0.00000  Uiso   1.00
F820   F     0.25367   0.22561   0.64758   0.00000  Uiso   1.00
C821   C     0.27736  -0.01852   0.87631   0.00000  Uiso   1.00
X822   C     0.30702  -0.03139   0.87381   0.00000  Uiso   1.00
C823   C     0.34216  -0.00834   0.84662   0.00000  Uiso   1.00
C824   C     0.34787   0.02709   0.82335   0.00000  Uiso   1.00
X825   C     0.31842   0.04046   0.82669   0.00000  Uiso   1.00
C826   C     0.28279   0.01664   0.85329   0.00000  Uiso   1.00
H827   H     0.24943  -0.03604   0.89595   0.00000  Uiso   1.00
H828   H     0.36580  -0.01719   0.84410   0.00000  Uiso   1.00
H829   H     0.26655  -0.08731   0.79087   0.00000  Uiso   1.00
H830   H     0.27299   0.06540   0.71703   0.00000  Uiso   1.00
F831   F     0.25259   0.02693   0.85696   0.00000  Uiso   1.00
F832   F     0.38277   0.04873   0.79849   0.00000  Uiso   1.00
C833   C    -0.01949   0.70650   0.12797   0.00000  Uiso   1.00
X834   C    -0.03268   0.66388   0.13021   0.00000  Uiso   1.00
C835   C    -0.01005   0.65137   0.15750   0.00000  Uiso   1.00
C836   C     0.02550   0.68080   0.18085   0.00000  Uiso   1.00
X837   C     0.03936   0.72373   0.17749   0.00000  Uiso   1.00
C838   C     0.01579   0.73595   0.15106   0.00000  Uiso   1.00
H839   H    -0.03669   0.71725   0.10827   0.00000  Uiso   1.00
H840   H    -0.01920   0.61879   0.15985   0.00000  Uiso   1.00
H841   H     0.05373   0.70338   0.07417   0.00000  Uiso   1.00
H842   H     0.09533   0.85672   0.11872   0.00000  Uiso   1.00
F843   F     0.02651   0.77656   0.14750   0.00000  Uiso   1.00
F844   F     0.04689   0.66720   0.20563   0.00000  Uiso   1.00
C845   C     1.01751   0.72380   0.62882   0.00000  Uiso   1.00
X846   C     1.03045   0.69417   0.63077   0.00000  Uiso   1.00
C847   C     1.00740   0.65869   0.65746   0.00000  Uiso   1.00
C848   C     0.97165   0.65245   0.68050   0.00000  Uiso   1.00
X849   C     0.95806   0.68177   0.67742   0.00000  Uiso   1.00
C850   C     0.98208   0.71788   0.65161   0.00000  Uiso   1.00
H851   H     1.03508   0.75203   0.60964   0.00000  Uiso   1.00
H852   H     1.01642   0.63516   0.65962   0.00000  Uiso   1.00
H853   H     1.05003   0.73162   0.73077   0.00000  Uiso   1.00
H854   H     0.90304   0.75980   0.61831   0.00000  Uiso   1.00
F855   F     0.97169   0.74803   0.64843   0.00000  Uiso   1.00
F856   F     0.94986   0.61718   0.70475   0.00000  Uiso   1.00
C857   C     0.99127   0.32002   0.88970   0.00000  Uiso   1.00
X858   C     1.03085   0.33974   0.87003   0.00000  Uiso   1.00
C859   C     1.03419   0.33094   0.82511   0.00000  Uiso   1.00
C860   C     0.99895   0.30274   0.80064   0.00000  Uiso   1.00
X861   C     0.95915   0.28293   0.82041   0.00000  Uiso   1.00
C862   C     0.95593   0.29222   0.86541   0.00000  Uiso   1.00
H863   H     0.98757   0.32636   0.92406   0.00000  Uiso   1.00
H864   H     1.06433   0.34544   0.80905   0.00000  Uiso   1.00
H865   H     1.00639   0.24195   0.87566   0.00000  Uiso   1.00
H866   H     0.89181   0.16626   0.84128   0.00000  Uiso   1.00
F867   F     0.91868   0.27365   0.88667   0.00000  Uiso   1.00
F868   F     1.00393   0.29512   0.75757   0.00000  Uiso   1.00
C869   C     0.70648   0.67033   0.32430   0.00000  Uiso   1.00
X870   C     0.69431   0.66105   0.36914   0.00000  Uiso   1.00
C871   C     0.67406   0.68028   0.38908   0.00000  Uiso   1.00
C872   C     0.66636   0.70820   0.36527   0.00000  Uiso   1.00
X873   C     0.67908   0.71817   0.32043   0.00000  Uiso   1.00
C874   C     0.69931   0.69872   0.30028   0.00000  Uiso   1.00
H875   H     0.72231   0.65613   0.30800   0.00000  Uiso   1.00
H876   H     0.66384   0.67348   0.42336   0.00000  Uiso   1.00
H877   H     0.61118   0.59163   0.33069   0.00000  Uiso   1.00
H878   H     0.72735   0.83521   0.33987   0.00000  Uiso   1.00
F879   F     0.71200   0.70688   0.25727   0.00000  Uiso   1.00
F880   F     0.64722   0.72615   0.38684   0.00000  Uiso   1.00
C881   C     0.68152   0.01032   0.61358   0.00000  Uiso   1.00
X882   C     0.66216  -0.02929   0.63314   0.00000  Uiso   1.00
C883   C     0.67104  -0.03266   0.67800   0.00000  Uiso   1.00
C884   C     0.69913   0.00262   0.70249   0.00000  Uiso   1.00
X885   C     0.71866   0.04245   0.68279   0.00000  Uiso   1.00
C886   C     0.70914   0.04570   0.63790   0.00000  Uiso   1.00
H887   H     0.67509   0.01400   0.57924   0.00000  Uiso   1.00
H888   H     0.65680  -0.06285   0.69395   0.00000  Uiso   1.00
H889   H     0.75949  -0.00398   0.62453   0.00000  Uiso   1.00
H890   H     0.81255   0.11235   0.58063   0.00000  Uiso   1.00
F891   F     0.72739   0.08301   0.61676   0.00000  Uiso   1.00
F892   F     0.70698  -0.00236   0.74547   0.00000  Uiso   1.00
C893   C     0.64689   0.65450   0.84618   0.00000  Uiso   1.00
X894   C     0.65863   0.68855   0.87495   0.00000  Uiso   1.00
C895   C     0.70113   0.71813   0.87839   0.00000  Uiso   1.00
C896   C     0.73117   0.71357   0.85488   0.00000  Uiso   1.00
X897   C     0.71969   0.67903   0.82664   0.00000  Uiso   1.00
C898   C     0.67690   0.64971   0.82232   0.00000  Uiso   1.00
H899   H     0.61443   0.63101   0.84281   0.00000  Uiso   1.00
H900   H     0.71134   0.74539   0.89912   0.00000  Uiso   1.00
H901   H     0.78895   0.77643   0.77064   0.00000  Uiso   1.00
H902   H     0.77214   0.60367   0.84240   0.00000  Uiso   1.00
F903   F     0.66395   0.61580   0.79589   0.00000  Uiso   1.00
F904   F     0.77161   0.74353   0.85976   0.00000  Uiso   1.00
loop_
_geom_bond_atom_site_label_1
_geom_bond_atom_site_label_2
_geom_bond_distance
_geom_bond_site_symmetry_2
_ccdc_geom_bond_type
X1     C2      1.416   .     A
X1     C6      1.419   .     A
X1     X690    1.436   1_655 A
C2     X3      1.410   .     A
C2     H7      1.082   .     S
X3     C4      1.412   .     A
X3     X714    1.510   .     S
C4     X5      1.420   .     A
C4     H8      1.080   .     S
X5     C6      1.422   .     A
X5     X702    1.443   1_665 A
C6     H9      1.079   .     S
X10    C11     1.420   .     A
X10    C15     1.418   .     A
X10    X726    1.435   1_665 A
C11    X12     1.415   .     A
C11    H16     1.082   .     S
X12    C13     1.412   .     A
X12    X738    1.509   1_565 S
C13    X14     1.408   .     A
C13    H17     1.083   .     S
X14    C15     1.409   .     A
X14    X750    1.500   .     S
C15    H18     1.082   .     S
X19    C20     1.407   .     A
X19    C24     1.409   .     A
X19    X474    1.495   .     S
C20    X21     1.407   .     A
C20    H25     1.083   .     S
X21    C22     1.409   .     A
X21    X498    1.496   .     S
C22    X23     1.411   .     A
C22    H26     1.082   .     S
X23    C24     1.411   .     A
X23    X486    1.502   .     S
C24    H27     1.082   .     S
X28    C29     1.409   .     A
X28    C33     1.412   .     A
X28    X510    1.501   .     S
C29    X30     1.407   .     A
C29    H34     1.083   .     S
X30    C31     1.407   .     A
X30    X522    1.494   .     S
C31    X32     1.410   .     A
C31    H35     1.083   .     S
X32    C33     1.412   .     A
X32    X534    1.501   .     S
C33    H36     1.082   .     S
X37    C38     1.416   .     A
X37    C42     1.420   .     A
X37    X354    1.434   1_554 A
C38    X39     1.411   .     A
C38    H43     1.082   .     S
X39    C40     1.407   .     A
X39    X762    1.498   .     S
C40    X41     1.409   .     A
C40    H44     1.083   .     S
X41    C42     1.412   .     A
X41    X546    1.502   .     S
C42    H45     1.082   .     S
X46    C47     1.405   .     A
X46    C51     1.416   .     A
X46    X366    1.502   1_565 S
C47    X48     1.405   .     A
C47    H52     1.083   .     S
X48    C49     1.409   .     A
X48    X786    1.504   .     S
C49    X50     1.425   .     A
C49    H53     1.079   .     S
X50    C51     1.424   .     A
X50    X558    1.444   1_565 A
C51    H54     1.081   .     S
X55    C56     1.406   .     A
X55    C60     1.413   .     A
X55    X378    1.503   1_564 S
C56    X57     1.409   .     A
C56    H61     1.083   .     S
X57    C58     1.410   .     A
X57    X798    1.498   .     S
C58    X59     1.418   .     A
C58    H62     1.081   .     S
X59    C60     1.419   .     A
X59    X570    1.435   1_565 A
C60    H63     1.081   .     S
X64    C65     1.412   .     A
X64    C69     1.407   .     A
X64    X342    1.502   .     S
C65    X66     1.411   .     A
C65    H70     1.083   .     S
X66    C67     1.412   .     A
X66    X582    1.502   .     S
C67    X68     1.411   .     A
C67    H71     1.083   .     S
X68    C69     1.412   .     A
X68    X810    1.499   .     S
C69    H72     1.083   .     S
X73    C74     1.411   .     A
X73    C78     1.404   .     A
X73    X402    1.500   1_655 S
C74    X75     1.421   .     A
C74    H79     1.082   .     S
X75    C76     1.422   .     A
X75    X630    1.437   1_655 A
C76    X77     1.412   .     A
C76    H80     1.082   .     S
X77    C78     1.408   .     A
X77    X846    1.502   .     S
C78    H81     1.083   .     S
X82    C83     1.416   .     A
X82    C87     1.426   .     A
X82    X330    1.439   1_656 A
C83    X84     1.407   .     A
C83    H88     1.081   .     S
X84    C85     1.404   .     A
X84    X858    1.500   .     S
C85    X86     1.417   .     A
C85    H89     1.081   .     S
X86    C87     1.420   .     A
X86    X642    1.441   1_655 A
C87    H90     1.077   .     S
X91    C92     1.417   .     A
X91    C96     1.407   .     A
X91    X414    1.505   1_455 S
C92    X93     1.421   .     A
C92    H97     1.080   .     S
X93    C94     1.421   .     A
X93    X594    1.442   1_455 A
C94    X95     1.407   .     A
C94    H98     1.080   .     S
X95    C96     1.407   .     A
X95    X774    1.500   .     S
C96    H99     1.083   .     S
X100   C101    1.415   .     A
X100   C105    1.409   .     A
X100   X426    1.502   .     S
C101   X102    1.415   .     A
C101   H106    1.083   .     S
X102   C103    1.415   .     A
X102   X606    1.509   .     S
C103   X104    1.408   .     A
C103   H107    1.083   .     S
X104   C105    1.408   .     A
X104   X870    1.500   .     S
C105   H108    1.083   .     S
X109   C110    1.419   .     A
X109   C114    1.415   .     A
X109   X438    1.435   1_454 A
C110   X111    1.412   .     A
C110   H115    1.082   .     S
X111   C112    1.410   .     A
X111   X618    1.503   1_455 S
C112   X113    1.409   .     A
C112   H116    1.083   .     S
X113   C114    1.412   .     A
X113   X834    1.503   .     S
C114   H117    1.082   .     S
X118   C119    1.420   .     A
X118   C123    1.418   .     A
X118   X462    1.437   1_545 A
C119   X120    1.409   .     A
C119   H124    1.081   .     S
X120   C121    1.406   .     A
X120   X654    1.500   1_545 S
C121   X122    1.407   .     A
C121   H125    1.083   .     S
X122   C123    1.413   .     A
X122   X882    1.497   .     S
C123   H126    1.081   .     S
X127   C128    1.416   .     A
X127   C132    1.405   .     A
X127   X390    1.502   1_546 S
C128   X129    1.424   .     A
C128   H133    1.081   .     S
X129   C130    1.424   .     A
X129   X666    1.443   1_545 A
C130   X131    1.408   .     A
C130   H134    1.079   .     S
X131   C132    1.405   .     A
X131   X822    1.503   .     S
C132   H135    1.083   .     S
X136   C137    1.424   .     A
X136   C141    1.416   .     A
X136   X450    1.439   1_556 A
C137   X138    1.413   .     A
C137   H142    1.080   .     S
X138   C139    1.412   .     A
X138   X678    1.510   .     S
C139   X140    1.408   .     A
C139   H143    1.082   .     S
X140   C141    1.411   .     A
X140   X894    1.503   .     S
C141   H144    1.080   .     S
Zn145  O149    1.829   .     S
Zn145  O150    1.785   .     S
Zn145  O154    1.820   .     S
Zn145  O161    1.808   .     S
Zn146  O149    1.864   .     S
Zn146  O151    1.849   .     S
Zn146  O153    1.851   .     S
Zn146  O157    1.854   .     S
Zn147  O149    1.831   .     S
Zn147  O152    1.812   .     S
Zn147  O155    1.791   .     S
Zn147  O158    1.824   .     S
Zn148  O149    1.827   .     S
Zn148  O156    1.807   .     S
Zn148  O159    1.789   .     S
Zn148  O160    1.820   .     S
O150   X162    1.271   .     A
O151   X163    1.280   .     A
O152   X164    1.273   .     A
O153   X162    1.280   .     A
O154   X164    1.274   .     A
O155   X163    1.272   .     A
O156   X165    1.273   .     A
O157   X166    1.280   .     A
O158   X165    1.275   .     A
O159   X166    1.271   .     A
O160   X167    1.274   .     A
O161   X167    1.272   .     A
X162   X597    1.507   .     S
X163   X609    1.503   .     S
X164   X621    1.502   .     S
X165   X549    1.501   .     S
X166   X561    1.510   .     S
X167   X573    1.496   .     S
Zn168  O172    1.829   .     S
Zn168  O173    1.817   .     S
Zn168  O177    1.786   .     S
Zn168  O184    1.802   .     S
Zn169  O172    1.829   .     S
Zn169  O174    1.784   .     S
Zn169  O176    1.811   .     S
Zn169  O180    1.821   .     S
Zn170  O172    1.865   .     S
Zn170  O175    1.852   .     S
Zn170  O178    1.849   .     S
Zn170  O181    1.853   .     S
Zn171  O172    1.832   .     S
Zn171  O179    1.790   .     S
Zn171  O182    1.814   .     S
Zn171  O183    1.822   .     S
O173   X185    1.274   .     A
O174   X186    1.270   .     A
O175   X187    1.280   .     A
O176   X185    1.273   .     A
O177   X187    1.270   .     A
O178   X186    1.280   .     A
O179   X188    1.272   .     A
O180   X189    1.274   .     A
O181   X188    1.281   .     A
O182   X189    1.273   .     A
O183   X190    1.275   .     A
O184   X190    1.271   .     A
X185   X585    1.501   .     S
X186   X645    1.506   .     S
X187   X681    1.504   .     S
X188   X669    1.510   .     S
X189   X633    1.498   .     S
X190   X657    1.499   .     S
Zn191  O195    1.816   .     S
Zn191  O196    1.777   .     S
Zn191  O200    1.788   .     S
Zn191  O207    1.801   .     S
Zn192  O195    1.844   .     S
Zn192  O197    1.822   .     S
Zn192  O199    1.847   .     S
Zn192  O203    1.828   .     S
Zn193  O195    1.847   .     S
Zn193  O198    1.835   .     S
Zn193  O201    1.827   .     S
Zn193  O204    1.856   .     S
Zn194  O195    1.817   .     S
Zn194  O202    1.776   .     S
Zn194  O205    1.795   .     S
Zn194  O206    1.807   .     S
O196   X208    1.268   .     A
O197   X209    1.278   .     A
O198   X210    1.276   .     A
O199   X208    1.279   .     A
O200   X210    1.269   .     A
O201   X209    1.279   .     A
O202   X211    1.268   .     A
O203   X212    1.275   .     A
O204   X211    1.281   .     A
O205   X212    1.271   .     A
O206   X213    1.272   .     A
O207   X213    1.271   .     A
X208   X345    1.500   .     S
X209   X705    1.510   .     S
X210   X777    1.500   .     S
X211   X333    1.507   .     S
X212   X765    1.500   .     S
X213   X477    1.498   .     S
Zn214  O218    1.832   .     S
Zn214  O219    1.824   .     S
Zn214  O223    1.789   .     S
Zn214  O230    1.820   .     S
Zn215  O218    1.841   .     S
Zn215  O220    1.808   .     S
Zn215  O222    1.810   .     S
Zn215  O226    1.835   .     S
Zn216  O218    1.840   .     S
Zn216  O221    1.831   .     S
Zn216  O224    1.803   .     S
Zn216  O227    1.805   .     S
Zn217  O218    1.833   .     S
Zn217  O225    1.825   .     S
Zn217  O228    1.793   .     S
Zn217  O229    1.818   .     S
O219   X231    1.276   .     A
O220   X232    1.274   .     A
O221   X233    1.276   .     A
O222   X231    1.273   .     A
O223   X233    1.270   .     A
O224   X232    1.273   .     A
O225   X234    1.275   .     A
O226   X235    1.277   .     A
O227   X234    1.272   .     A
O228   X235    1.271   .     A
O229   X236    1.275   .     A
O230   X236    1.275   .     A
X231   X369    1.502   .     S
X232   X513    1.492   .     S
X233   X813    1.500   .     S
X234   X357    1.496   .     S
X235   X825    1.503   .     S
X236   X729    1.494   .     S
Zn237  O241    1.831   .     S
Zn237  O242    1.793   .     S
Zn237  O246    1.825   .     S
Zn237  O253    1.820   .     S
Zn238  O241    1.839   .     S
Zn238  O243    1.808   .     S
Zn238  O245    1.834   .     S
Zn238  O249    1.805   .     S
Zn239  O241    1.839   .     S
Zn239  O244    1.808   .     S
Zn239  O247    1.805   .     S
Zn239  O250    1.835   .     S
Zn240  O241    1.832   .     S
Zn240  O248    1.795   .     S
Zn240  O251    1.825   .     S
Zn240  O252    1.820   .     S
O242   X254    1.270   .     A
O243   X255    1.274   .     A
O244   X256    1.273   .     A
O245   X254    1.276   .     A
O246   X256    1.276   .     A
O247   X255    1.273   .     A
O248   X257    1.271   .     A
O249   X258    1.273   .     A
O250   X257    1.277   .     A
O251   X258    1.276   .     A
O252   X259    1.276   .     A
O253   X259    1.276   .     A
X254   X837    1.502   .     S
X255   X489    1.493   .     S
X256   X393    1.502   .     S
X257   X789    1.503   .     S
X258   X405    1.500   .     S
X259   X693    1.494   .     S
Zn260  O264    1.815   .     S
Zn260  O265    1.776   .     S
Zn260  O269    1.789   .     S
Zn260  O276    1.801   .     S
Zn261  O264    1.846   .     S
Zn261  O266    1.829   .     S
Zn261  O268    1.853   .     S
Zn261  O272    1.835   .     S
Zn262  O264    1.845   .     S
Zn262  O267    1.832   .     S
Zn262  O270    1.821   .     S
Zn262  O273    1.852   .     S
Zn263  O264    1.816   .     S
Zn263  O271    1.777   .     S
Zn263  O274    1.793   .     S
Zn263  O275    1.808   .     S
O265   X277    1.268   .     A
O266   X278    1.279   .     A
O267   X279    1.276   .     A
O268   X277    1.281   .     A
O269   X279    1.269   .     A
O270   X278    1.278   .     A
O271   X280    1.269   .     A
O272   X281    1.276   .     A
O273   X280    1.280   .     A
O274   X281    1.270   .     A
O275   X282    1.272   .     A
O276   X282    1.271   .     A
X277   X453    1.506   .     S
X278   X717    1.510   .     S
X279   X801    1.499   .     S
X280   X465    1.506   .     S
X281   X873    1.502   .     S
X282   X501    1.498   .     S
Zn283  O287    1.821   .     S
Zn283  O288    1.791   .     S
Zn283  O292    1.776   .     S
Zn283  O299    1.802   .     S
Zn284  O287    1.849   .     S
Zn284  O289    1.821   .     S
Zn284  O291    1.830   .     S
Zn284  O295    1.851   .     S
Zn285  O287    1.850   .     S
Zn285  O290    1.855   .     S
Zn285  O293    1.826   .     S
Zn285  O296    1.833   .     S
Zn286  O287    1.821   .     S
Zn286  O294    1.790   .     S
Zn286  O297    1.777   .     S
Zn286  O298    1.804   .     S
O288   X300    1.270   .     A
O289   X301    1.278   .     A
O290   X302    1.280   .     A
O291   X300    1.276   .     A
O292   X302    1.268   .     A
O293   X301    1.278   .     A
O294   X303    1.270   .     A
O295   X304    1.279   .     A
O296   X303    1.276   .     A
O297   X304    1.268   .     A
O298   X305    1.271   .     A
O299   X305    1.271   .     A
X300   X885    1.499   .     S
X301   X741    1.509   .     S
X302   X417    1.503   .     S
X303   X861    1.500   .     S
X304   X381    1.501   .     S
X305   X525    1.496   .     S
Zn306  O310    1.831   .     S
Zn306  O311    1.823   .     S
Zn306  O315    1.793   .     S
Zn306  O322    1.819   .     S
Zn307  O310    1.840   .     S
Zn307  O312    1.805   .     S
Zn307  O314    1.810   .     S
Zn307  O318    1.834   .     S
Zn308  O310    1.840   .     S
Zn308  O313    1.834   .     S
Zn308  O316    1.807   .     S
Zn308  O319    1.805   .     S
Zn309  O310    1.834   .     S
Zn309  O317    1.824   .     S
Zn309  O320    1.794   .     S
Zn309  O321    1.819   .     S
O311   X323    1.275   .     A
O312   X324    1.273   .     A
O313   X325    1.277   .     A
O314   X323    1.273   .     A
O315   X325    1.271   .     A
O316   X324    1.273   .     A
O317   X326    1.275   .     A
O318   X327    1.277   .     A
O319   X326    1.272   .     A
O320   X327    1.271   .     A
O321   X328    1.275   .     A
O322   X328    1.276   .     A
X323   X429    1.501   .     S
X324   X537    1.492   .     S
X325   X849    1.502   .     S
X326   X441    1.495   .     S
X327   X897    1.503   .     S
X328   X753    1.499   .     S
C329   X330    1.420   .     A
C329   C334    1.411   .     A
C329   H335    1.081   .     S
X330   C331    1.411   .     A
X330   X82     1.439   1_454 A
C331   C332    1.399   .     A
C331   H336    1.081   .     S
C332   X333    1.415   .     A
C332   F340    1.358   .     S
X333   C334    1.409   .     A
C334   F339    1.357   .     S
C341   X342    1.411   .     A
C341   C346    1.410   .     A
C341   H347    1.083   .     S
X342   C343    1.403   .     A
C343   C344    1.399   .     A
C343   H348    1.083   .     S
C344   X345    1.415   .     A
C344   F352    1.358   .     S
X345   C346    1.410   .     A
C346   F351    1.357   .     S
C353   X354    1.417   .     A
C353   C358    1.408   .     A
C353   H359    1.082   .     S
X354   C355    1.413   .     A
X354   X37     1.434   1_556 A
C355   C356    1.403   .     A
C355   H360    1.082   .     S
C356   X357    1.409   .     A
C356   F364    1.358   .     S
X357   C358    1.407   .     A
C358   F363    1.357   .     S
C365   X366    1.409   .     A
C365   C370    1.406   .     A
C365   H371    1.083   .     S
X366   C367    1.405   .     A
X366   X46     1.502   1_545 S
C367   C368    1.406   .     A
C367   H372    1.083   .     S
C368   X369    1.415   .     A
C368   F376    1.357   .     S
X369   C370    1.411   .     A
C370   F375    1.357   .     S
C377   X378    1.403   .     A
C377   C382    1.399   .     A
C377   H383    1.083   .     S
X378   C379    1.411   .     A
X378   X55     1.503   1_546 S
C379   C380    1.411   .     A
C379   H384    1.083   .     S
C380   X381    1.411   .     A
C380   F388    1.357   .     S
X381   C382    1.415   .     A
C382   F387    1.358   .     S
C389   X390    1.404   .     A
C389   C394    1.406   .     A
C389   H395    1.083   .     S
X390   C391    1.409   .     A
X390   X127    1.502   1_564 S
C391   C392    1.406   .     A
C391   H396    1.083   .     S
C392   X393    1.411   .     A
C392   F400    1.357   .     S
X393   C394    1.416   .     A
C394   F399    1.357   .     S
C401   X402    1.404   .     A
C401   C406    1.404   .     A
C401   H407    1.083   .     S
X402   C403    1.408   .     A
X402   X73     1.500   1_455 S
C403   C404    1.407   .     A
C403   H408    1.083   .     S
C404   X405    1.411   .     A
C404   F412    1.357   .     S
X405   C406    1.415   .     A
C406   F411    1.358   .     S
C413   X414    1.412   .     A
C413   C418    1.411   .     A
C413   H419    1.083   .     S
X414   C415    1.403   .     A
X414   X91     1.505   1_655 S
C415   C416    1.400   .     A
C415   H420    1.083   .     S
C416   X417    1.416   .     A
C416   F424    1.358   .     S
X417   C418    1.411   .     A
C418   F423    1.357   .     S
C425   X426    1.405   .     A
C425   C430    1.406   .     A
C425   H431    1.083   .     S
X426   C427    1.409   .     A
C427   C428    1.407   .     A
C427   H432    1.083   .     S
C428   X429    1.411   .     A
C428   F436    1.357   .     S
X429   C430    1.415   .     A
C430   F435    1.357   .     S
C437   X438    1.418   .     A
C437   C442    1.407   .     A
C437   H443    1.082   .     S
X438   C439    1.413   .     A
X438   X109    1.435   1_656 A
C439   C440    1.403   .     A
C439   H444    1.082   .     S
C440   X441    1.409   .     A
C440   F448    1.358   .     S
X441   C442    1.406   .     A
C442   F447    1.357   .     S
C449   X450    1.411   .     A
C449   C454    1.400   .     A
C449   H455    1.081   .     S
X450   C451    1.420   .     A
X450   X136    1.439   1_554 A
C451   C452    1.410   .     A
C451   H456    1.081   .     S
C452   X453    1.409   .     A
C452   F460    1.357   .     S
X453   C454    1.415   .     A
C454   F459    1.358   .     S
C461   X462    1.418   .     A
C461   C466    1.412   .     A
C461   H467    1.081   .     S
X462   C463    1.411   .     A
X462   X118    1.437   1_565 A
C463   C464    1.397   .     A
C463   H468    1.081   .     S
C464   X465    1.414   .     A
C464   F472    1.358   .     S
X465   C466    1.411   .     A
C466   F471    1.357   .     S
C473   X474    1.406   .     A
C473   C478    1.402   .     A
C473   H479    1.083   .     S
X474   C475    1.405   .     A
C475   C476    1.402   .     A
C475   H480    1.083   .     S
C476   X477    1.414   .     A
C476   F484    1.357   .     S
X477   C478    1.413   .     A
C478   F483    1.357   .     S
C485   X486    1.408   .     A
C485   C490    1.403   .     A
C485   H491    1.082   .     S
X486   C487    1.408   .     A
C487   C488    1.402   .     A
C487   H492    1.082   .     S
C488   X489    1.410   .     A
C488   F496    1.358   .     S
X489   C490    1.410   .     A
C490   F495    1.358   .     S
C497   X498    1.405   .     A
C497   C502    1.402   .     A
C497   H503    1.083   .     S
X498   C499    1.406   .     A
C499   C500    1.403   .     A
C499   H504    1.083   .     S
C500   X501    1.413   .     A
C500   F508    1.357   .     S
X501   C502    1.414   .     A
C502   F507    1.357   .     S
C509   X510    1.408   .     A
C509   C514    1.402   .     A
C509   H515    1.082   .     S
X510   C511    1.408   .     A
C511   C512    1.403   .     A
C511   H516    1.082   .     S
C512   X513    1.410   .     A
C512   F520    1.358   .     S
X513   C514    1.409   .     A
C514   F519    1.358   .     S
C521   X522    1.405   .     A
C521   C526    1.402   .     A
C521   H527    1.083   .     S
X522   C523    1.405   .     A
C523   C524    1.402   .     A
C523   H528    1.083   .     S
C524   X525    1.413   .     A
C524   F532    1.357   .     S
X525   C526    1.413   .     A
C526   F531    1.357   .     S
C533   X534    1.408   .     A
C533   C538    1.403   .     A
C533   H539    1.082   .     S
X534   C535    1.408   .     A
C535   C536    1.402   .     A
C535   H540    1.082   .     S
C536   X537    1.409   .     A
C536   F544    1.358   .     S
X537   C538    1.410   .     A
C538   F543    1.358   .     S
C545   X546    1.406   .     A
C545   C550    1.405   .     A
C545   H551    1.083   .     S
X546   C547    1.407   .     A
C547   C548    1.407   .     A
C547   H552    1.083   .     S
C548   X549    1.412   .     A
C548   F556    1.357   .     S
X549   C550    1.413   .     A
C550   F555    1.357   .     S
C557   X558    1.414   .     A
C557   C562    1.399   .     A
C557   H563    1.080   .     S
X558   C559    1.420   .     A
X558   X50     1.444   1_545 A
C559   C560    1.415   .     A
C559   H564    1.081   .     S
C560   X561    1.411   .     A
C560   F568    1.357   .     S
X561   C562    1.413   .     A
C562   F567    1.358   .     S
C569   X570    1.415   .     A
C569   C574    1.405   .     A
C569   H575    1.081   .     S
X570   C571    1.415   .     A
X570   X59     1.435   1_545 A
C571   C572    1.405   .     A
C571   H576    1.081   .     S
C572   X573    1.408   .     A
C572   F580    1.358   .     S
X573   C574    1.408   .     A
C574   F579    1.358   .     S
C581   X582    1.407   .     A
C581   C586    1.404   .     A
C581   H587    1.083   .     S
X582   C583    1.407   .     A
C583   C584    1.406   .     A
C583   H588    1.083   .     S
C584   X585    1.413   .     A
C584   F592    1.357   .     S
X585   C586    1.412   .     A
C586   F591    1.357   .     S
C593   X594    1.413   .     A
C593   C598    1.398   .     A
C593   H599    1.080   .     S
X594   C595    1.420   .     A
X594   X93     1.442   1_655 A
C595   C596    1.413   .     A
C595   H600    1.080   .     S
C596   X597    1.410   .     A
C596   F604    1.357   .     S
X597   C598    1.413   .     A
C598   F603    1.358   .     S
C605   X606    1.406   .     A
C605   C610    1.400   .     A
C605   H611    1.082   .     S
X606   C607    1.412   .     A
C607   C608    1.413   .     A
C607   H612    1.082   .     S
C608   X609    1.411   .     A
C608   F616    1.357   .     S
X609   C610    1.413   .     A
C610   F615    1.358   .     S
C617   X618    1.407   .     A
C617   C622    1.407   .     A
C617   H623    1.083   .     S
X618   C619    1.407   .     A
X618   X111    1.503   1_655 S
C619   C620    1.405   .     A
C619   H624    1.083   .     S
C620   X621    1.413   .     A
C620   F628    1.357   .     S
X621   C622    1.413   .     A
C622   F627    1.357   .     S
C629   X630    1.416   .     A
C629   C634    1.406   .     A
C629   H635    1.081   .     S
X630   C631    1.415   .     A
X630   X75     1.437   1_455 A
C631   C632    1.407   .     A
C631   H636    1.082   .     S
C632   X633    1.408   .     A
C632   F640    1.358   .     S
X633   C634    1.408   .     A
C634   F639    1.358   .     S
C641   X642    1.413   .     A
C641   C646    1.398   .     A
C641   H647    1.081   .     S
X642   C643    1.420   .     A
X642   X86     1.441   1_455 A
C643   C644    1.413   .     A
C643   H648    1.080   .     S
C644   X645    1.410   .     A
C644   F652    1.357   .     S
X645   C646    1.413   .     A
C646   F651    1.358   .     S
C653   X654    1.407   .     A
C653   C658    1.406   .     A
C653   H659    1.083   .     S
X654   C655    1.406   .     A
X654   X120    1.500   1_565 S
C655   C656    1.403   .     A
C655   H660    1.083   .     S
C656   X657    1.413   .     A
C656   F664    1.357   .     S
X657   C658    1.412   .     A
C658   F663    1.357   .     S
C665   X666    1.414   .     A
C665   C670    1.399   .     A
C665   H671    1.080   .     S
X666   C667    1.420   .     A
X666   X129    1.443   1_565 A
C667   C668    1.414   .     A
C667   H672    1.081   .     S
C668   X669    1.411   .     A
C668   F676    1.357   .     S
X669   C670    1.413   .     A
C670   F675    1.358   .     S
C677   X678    1.413   .     A
C677   C682    1.413   .     A
C677   H683    1.082   .     S
X678   C679    1.406   .     A
C679   C680    1.401   .     A
C679   H684    1.082   .     S
C680   X681    1.414   .     A
C680   F688    1.358   .     S
X681   C682    1.411   .     A
C682   F687    1.357   .     S
C689   X690    1.416   .     A
C689   C694    1.407   .     A
C689   H695    1.082   .     S
X690   C691    1.416   .     A
X690   X1      1.436   1_455 A
C691   C692    1.407   .     A
C691   H696    1.082   .     S
C692   X693    1.407   .     A
C692   F700    1.358   .     S
X693   C694    1.407   .     A
C694   F699    1.358   .     S
C701   X702    1.417   .     A
C701   C706    1.408   .     A
C701   H707    1.081   .     S
X702   C703    1.416   .     A
X702   X5      1.443   1_445 A
C703   C704    1.407   .     A
C703   H708    1.081   .     S
C704   X705    1.412   .     A
C704   F712    1.357   .     S
X705   C706    1.412   .     A
C706   F711    1.357   .     S
C713   X714    1.408   .     A
C713   C718    1.408   .     A
C713   H719    1.083   .     S
X714   C715    1.408   .     A
C715   C716    1.406   .     A
C715   H720    1.083   .     S
C716   X717    1.415   .     A
C716   F724    1.357   .     S
X717   C718    1.415   .     A
C718   F723    1.357   .     S
C725   X726    1.416   .     A
C725   C730    1.407   .     A
C725   H731    1.082   .     S
X726   C727    1.416   .     A
X726   X10     1.435   1_445 A
C727   C728    1.406   .     A
C727   H732    1.082   .     S
C728   X729    1.406   .     A
C728   F736    1.358   .     S
X729   C730    1.407   .     A
C730   F735    1.358   .     S
C737   X738    1.408   .     A
C737   C742    1.406   .     A
C737   H743    1.083   .     S
X738   C739    1.408   .     A
X738   X12     1.509   1_545 S
C739   C740    1.408   .     A
C739   H744    1.083   .     S
C740   X741    1.415   .     A
C740   F748    1.357   .     S
X741   C742    1.415   .     A
C742   F747    1.357   .     S
C749   X750    1.406   .     A
C749   C754    1.407   .     A
C749   H755    1.083   .     S
X750   C751    1.407   .     A
C751   C752    1.406   .     A
C751   H756    1.083   .     S
C752   X753    1.412   .     A
C752   F760    1.357   .     S
X753   C754    1.412   .     A
C754   F759    1.357   .     S
C761   X762    1.404   .     A
C761   C766    1.401   .     A
C761   H767    1.083   .     S
X762   C763    1.407   .     A
C763   C764    1.408   .     A
C763   H768    1.083   .     S
C764   X765    1.412   .     A
C764   F772    1.357   .     S
X765   C766    1.414   .     A
C766   F771    1.358   .     S
C773   X774    1.409   .     A
C773   C778    1.407   .     A
C773   H779    1.083   .     S
X774   C775    1.403   .     A
C775   C776    1.401   .     A
C775   H780    1.083   .     S
C776   X777    1.415   .     A
C776   F784    1.358   .     S
X777   C778    1.411   .     A
C778   F783    1.357   .     S
C785   X786    1.405   .     A
C785   C790    1.401   .     A
C785   H791    1.083   .     S
X786   C787    1.409   .     A
C787   C788    1.409   .     A
C787   H792    1.083   .     S
C788   X789    1.413   .     A
C788   F796    1.357   .     S
X789   C790    1.415   .     A
C790   F795    1.358   .     S
C797   X798    1.408   .     A
C797   C802    1.407   .     A
C797   H803    1.083   .     S
X798   C799    1.403   .     A
C799   C800    1.401   .     A
C799   H804    1.083   .     S
C800   X801    1.414   .     A
C800   F808    1.358   .     S
X801   C802    1.411   .     A
C802   F807    1.357   .     S
C809   X810    1.408   .     A
C809   C814    1.409   .     A
C809   H815    1.083   .     S
X810   C811    1.404   .     A
C811   C812    1.398   .     A
C811   H816    1.083   .     S
C812   X813    1.414   .     A
C812   F820    1.358   .     S
X813   C814    1.413   .     A
C814   F819    1.357   .     S
C821   X822    1.405   .     A
C821   C826    1.400   .     A
C821   H827    1.083   .     S
X822   C823    1.409   .     A
C823   C824    1.409   .     A
C823   H828    1.083   .     S
C824   X825    1.413   .     A
C824   F832    1.357   .     S
X825   C826    1.415   .     A
C826   F831    1.358   .     S
C833   X834    1.405   .     A
C833   C838    1.400   .     A
C833   H839    1.083   .     S
X834   C835    1.409   .     A
C835   C836    1.410   .     A
C835   H840    1.083   .     S
C836   X837    1.413   .     A
C836   F844    1.357   .     S
X837   C838    1.414   .     A
C838   F843    1.358   .     S
C845   X846    1.405   .     A
C845   C850    1.399   .     A
C845   H851    1.083   .     S
X846   C847    1.409   .     A
C847   C848    1.410   .     A
C847   H852    1.083   .     S
C848   X849    1.413   .     A
C848   F856    1.357   .     S
X849   C850    1.414   .     A
C850   F855    1.358   .     S
C857   X858    1.403   .     A
C857   C862    1.402   .     A
C857   H863    1.083   .     S
X858   C859    1.409   .     A
C859   C860    1.407   .     A
C859   H864    1.083   .     S
C860   X861    1.411   .     A
C860   F868    1.357   .     S
X861   C862    1.415   .     A
C862   F867    1.358   .     S
C869   X870    1.408   .     A
C869   C874    1.409   .     A
C869   H875    1.083   .     S
X870   C871    1.404   .     A
C871   C872    1.402   .     A
C871   H876    1.083   .     S
C872   X873    1.415   .     A
C872   F880    1.358   .     S
X873   C874    1.412   .     A
C874   F879    1.357   .     S
C881   X882    1.403   .     A
C881   C886    1.401   .     A
C881   H887    1.083   .     S
X882   C883    1.408   .     A
C883   C884    1.407   .     A
C883   H888    1.083   .     S
C884   X885    1.411   .     A
C884   F892    1.357   .     S
X885   C886    1.415   .     A
C886   F891    1.358   .     S
C893   X894    1.409   .     A
C893   C898    1.409   .     A
C893   H899    1.083   .     S
X894   C895    1.405   .     A
C895   C896    1.400   .     A
C895   H900    1.083   .     S
C896   X897    1.414   .     A
C896   F904    1.358   .     S
X897   C898    1.413   .     A
C898   F903    1.357   .     S
