data_ja512973b_si_003_auto
_audit_creation_date              2018-09-04
_audit_creation_method            'Materials Studio'
_symmetry_space_group_name_H-M    'P1'
_symmetry_Int_Tables_number       1
_symmetry_cell_setting            triclinic
loop_
_symmetry_equiv_pos_as_xyz
  x,y,z
_cell_length_a                    25.3340
_cell_length_b                    25.3340
_cell_length_c                    25.3340
_cell_angle_alpha                 90.0000
_cell_angle_beta                  90.0000
_cell_angle_gamma                 90.0000
loop_
_atom_site_label
_atom_site_type_symbol
_atom_site_fract_x
_atom_site_fract_y
_atom_site_fract_z
_atom_site_U_iso_or_equiv
_atom_site_adp_type
_atom_site_occupancy
C1     C     0.52621   0.97785   0.33534   0.00000  Uiso   1.00
C2     C     0.47214   0.97755   0.33505   0.00000  Uiso   1.00
C3     C     0.45568   0.98677   0.38658   0.00000  Uiso   1.00
N4     N     0.49860   0.99404   0.41782   0.00000  Uiso   1.00
C5     C     0.54173   0.98832   0.38670   0.00000  Uiso   1.00
X6     C     0.40208   0.99337   0.40285   0.00000  Uiso   1.00
C7     C     0.38743   0.00174   0.45680   0.00000  Uiso   1.00
C8     C     0.33694   0.01461   0.47418   0.00000  Uiso   1.00
C9     C     0.33818   0.01539   0.52833   0.00000  Uiso   1.00
C10    C     0.38893   0.00179   0.54344   0.00000  Uiso   1.00
N11    N     0.41859   0.99331   0.49969   0.00000  Uiso   1.00
X12    C     0.40508   0.99484   0.59677   0.00000  Uiso   1.00
C13    C     0.45837   0.98821   0.61293   0.00000  Uiso   1.00
C14    C     0.47391   0.97774   0.66428   0.00000  Uiso   1.00
C15    C     0.52798   0.97752   0.66457   0.00000  Uiso   1.00
C16    C     0.54442   0.98680   0.61304   0.00000  Uiso   1.00
N17    N     0.50149   0.99402   0.58181   0.00000  Uiso   1.00
X18    C     0.59800   0.99352   0.59678   0.00000  Uiso   1.00
C19    C     0.61264   0.00196   0.54284   0.00000  Uiso   1.00
C20    C     0.66309   0.01495   0.52547   0.00000  Uiso   1.00
C21    C     0.66186   0.01573   0.47132   0.00000  Uiso   1.00
C22    C     0.61114   0.00201   0.45619   0.00000  Uiso   1.00
N23    N     0.58149   0.99345   0.49994   0.00000  Uiso   1.00
X24    C     0.59501   0.99502   0.40286   0.00000  Uiso   1.00
H25    H     0.55115   0.97193   0.30118   0.00000  Uiso   1.00
H26    H     0.44817   0.97249   0.30013   0.00000  Uiso   1.00
H27    H     0.54413   0.97687   0.50015   0.00000  Uiso   1.00
H28    H     0.30186   0.02141   0.45093   0.00000  Uiso   1.00
H29    H     0.30485   0.02390   0.55366   0.00000  Uiso   1.00
H30    H     0.44898   0.97175   0.69844   0.00000  Uiso   1.00
H31    H     0.55197   0.97247   0.69948   0.00000  Uiso   1.00
H32    H     0.69517   0.02433   0.44599   0.00000  Uiso   1.00
H33    H     0.45600   0.97683   0.49948   0.00000  Uiso   1.00
H34    H     0.69814   0.02185   0.54873   0.00000  Uiso   1.00
C35    C     0.47266   0.33038   0.02139   0.00000  Uiso   1.00
C36    C     0.52673   0.33120   0.02232   0.00000  Uiso   1.00
C37    C     0.54193   0.38230   0.01039   0.00000  Uiso   1.00
N38    N     0.49867   0.41284   0.00295   0.00000  Uiso   1.00
C39    C     0.45589   0.38146   0.01028   0.00000  Uiso   1.00
X40    C     0.59490   0.39862   0.00242   0.00000  Uiso   1.00
C41    C     0.60958   0.45178   0.99264   0.00000  Uiso   1.00
C42    C     0.65745   0.46676   0.97085   0.00000  Uiso   1.00
C43    C     0.65778   0.52093   0.96914   0.00000  Uiso   1.00
C44    C     0.61038   0.53809   0.99071   0.00000  Uiso   1.00
N45    N     0.58094   0.49547   0.00459   0.00000  Uiso   1.00
X46    C     0.59613   0.59216   0.99756   0.00000  Uiso   1.00
C47    C     0.54260   0.60789   0.00489   0.00000  Uiso   1.00
C48    C     0.52635   0.65763   0.02115   0.00000  Uiso   1.00
C49    C     0.47230   0.65738   0.02104   0.00000  Uiso   1.00
C50    C     0.45673   0.60708   0.00627   0.00000  Uiso   1.00
N51    N     0.49980   0.57693   0.99611   0.00000  Uiso   1.00
X52    C     0.40341   0.59093   0.00017   0.00000  Uiso   1.00
C53    C     0.38751   0.53759   0.99290   0.00000  Uiso   1.00
C54    C     0.33613   0.52187   0.98279   0.00000  Uiso   1.00
C55    C     0.33565   0.46770   0.98349   0.00000  Uiso   1.00
C56    C     0.38697   0.45090   0.99357   0.00000  Uiso   1.00
N57    N     0.41809   0.49418   0.99981   0.00000  Uiso   1.00
X58    C     0.40228   0.39714   0.00217   0.00000  Uiso   1.00
H59    H     0.44901   0.29533   0.02691   0.00000  Uiso   1.00
H60    H     0.55188   0.29746   0.02959   0.00000  Uiso   1.00
H61    H     0.45650   0.49456   0.01368   0.00000  Uiso   1.00
H62    H     0.68877   0.44125   0.95695   0.00000  Uiso   1.00
H63    H     0.68935   0.54490   0.95323   0.00000  Uiso   1.00
H64    H     0.55074   0.69079   0.03247   0.00000  Uiso   1.00
H65    H     0.44752   0.69061   0.03123   0.00000  Uiso   1.00
H66    H     0.30046   0.44395   0.97938   0.00000  Uiso   1.00
H67    H     0.54583   0.49617   0.02587   0.00000  Uiso   1.00
H68    H     0.30178   0.54667   0.97749   0.00000  Uiso   1.00
C69    C     0.03510   0.52250   0.65701   0.00000  Uiso   1.00
C70    C     0.03624   0.46842   0.65690   0.00000  Uiso   1.00
C71    C     0.01130   0.45214   0.61098   0.00000  Uiso   1.00
N72    N     0.99572   0.49474   0.58249   0.00000  Uiso   1.00
C73    C     0.00961   0.53788   0.61108   0.00000  Uiso   1.00
X74    C     0.00167   0.39871   0.59670   0.00000  Uiso   1.00
C75    C     0.99066   0.38487   0.54336   0.00000  Uiso   1.00
C76    C     0.96427   0.33956   0.52754   0.00000  Uiso   1.00
C77    C     0.96432   0.33929   0.47331   0.00000  Uiso   1.00
C78    C     0.99075   0.38443   0.45704   0.00000  Uiso   1.00
N79    N     0.00582   0.41260   0.50010   0.00000  Uiso   1.00
X80    C     0.00129   0.39796   0.40347   0.00000  Uiso   1.00
C81    C     0.01160   0.45118   0.38887   0.00000  Uiso   1.00
C82    C     0.03405   0.46738   0.34158   0.00000  Uiso   1.00
C83    C     0.03373   0.52154   0.34180   0.00000  Uiso   1.00
C84    C     0.01188   0.53681   0.38949   0.00000  Uiso   1.00
N85    N     0.99863   0.49382   0.41843   0.00000  Uiso   1.00
X86    C     0.00106   0.58957   0.40420   0.00000  Uiso   1.00
C87    C     0.98892   0.60362   0.45689   0.00000  Uiso   1.00
C88    C     0.96463   0.65024   0.47192   0.00000  Uiso   1.00
C89    C     0.96355   0.65058   0.52621   0.00000  Uiso   1.00
C90    C     0.98808   0.60452   0.54308   0.00000  Uiso   1.00
N91    N     0.00263   0.57568   0.50041   0.00000  Uiso   1.00
X92    C     0.99864   0.59103   0.59661   0.00000  Uiso   1.00
H93    H     0.05205   0.54765   0.68709   0.00000  Uiso   1.00
H94    H     0.05417   0.44391   0.68694   0.00000  Uiso   1.00
H95    H     0.02569   0.54162   0.50094   0.00000  Uiso   1.00
H96    H     0.94635   0.30989   0.55251   0.00000  Uiso   1.00
H97    H     0.94632   0.30940   0.44866   0.00000  Uiso   1.00
H98    H     0.04931   0.44282   0.31015   0.00000  Uiso   1.00
H99    H     0.04816   0.54679   0.31051   0.00000  Uiso   1.00
H100   H     0.94670   0.68145   0.55044   0.00000  Uiso   1.00
H101   H     0.02957   0.44621   0.50010   0.00000  Uiso   1.00
H102   H     0.94926   0.68086   0.44639   0.00000  Uiso   1.00
O103   O     0.92893   0.99398   0.86325   0.00000  Uiso   1.00
O104   O     0.92778   0.99604   0.13548   0.00000  Uiso   1.00
O105   O     0.86382   0.92312   0.99742   0.00000  Uiso   1.00
O106   O     0.86406   0.06671   0.00045   0.00000  Uiso   1.00
O107   O     0.92856   0.13095   0.00146   0.00000  Uiso   1.00
O108   O     0.92815   0.85876   0.99744   0.00000  Uiso   1.00
O109   O     0.86365   0.99688   0.07087   0.00000  Uiso   1.00
O110   O     0.86423   0.99273   0.92732   0.00000  Uiso   1.00
Zr111  Zr    0.90689   0.99486   0.99929   0.00000  Uiso   1.00
O112   O     0.95198   0.04271   0.04747   0.00000  Uiso   1.00
O113   O     0.95220   0.94691   0.95150   0.00000  Uiso   1.00
X114   C     0.87989   0.99267   0.87842   0.00000  Uiso   1.00
X115   C     0.87889   0.99718   0.11990   0.00000  Uiso   1.00
X116   C     0.87917   0.87412   0.99652   0.00000  Uiso   1.00
X117   C     0.87954   0.11566   0.00162   0.00000  Uiso   1.00
H118   H     0.92943   0.92456   0.06951   0.00000  Uiso   1.00
O119   O     0.95208   0.94711   0.04713   0.00000  Uiso   1.00
H120   H     0.93028   0.06514   0.92934   0.00000  Uiso   1.00
O121   O     0.95267   0.04256   0.95196   0.00000  Uiso   1.00
O122   O     0.07107   0.99357   0.13640   0.00000  Uiso   1.00
O123   O     0.07233   0.99615   0.86415   0.00000  Uiso   1.00
O124   O     0.00118   0.85859   0.07136   0.00000  Uiso   1.00
O125   O     0.99863   0.13083   0.07165   0.00000  Uiso   1.00
O126   O     0.00233   0.13094   0.92809   0.00000  Uiso   1.00
O127   O     0.99855   0.85876   0.92784   0.00000  Uiso   1.00
O128   O     0.13597   0.92264   0.00269   0.00000  Uiso   1.00
O129   O     0.13642   0.06615   0.99982   0.00000  Uiso   1.00
O130   O     0.07139   0.85841   0.00074   0.00000  Uiso   1.00
O131   O     0.07215   0.13066   0.99801   0.00000  Uiso   1.00
O132   O     0.00122   0.92289   0.13577   0.00000  Uiso   1.00
O133   O     0.99860   0.92318   0.86357   0.00000  Uiso   1.00
O134   O     0.00236   0.06659   0.86373   0.00000  Uiso   1.00
O135   O     0.99759   0.06637   0.13589   0.00000  Uiso   1.00
O136   O     0.13581   0.99219   0.07238   0.00000  Uiso   1.00
O137   O     0.13646   0.99653   0.92879   0.00000  Uiso   1.00
Zr138  Zr    0.99963   0.99467   0.09286   0.00000  Uiso   1.00
Zr139  Zr    0.00043   0.99487   0.90669   0.00000  Uiso   1.00
Zr140  Zr    0.99987   0.90165   0.99962   0.00000  Uiso   1.00
Zr141  Zr    0.00026   0.08788   0.99983   0.00000  Uiso   1.00
Zr142  Zr    0.09321   0.99453   0.00039   0.00000  Uiso   1.00
O143   O     0.04835   0.04259   0.95217   0.00000  Uiso   1.00
O144   O     0.04767   0.94660   0.04796   0.00000  Uiso   1.00
X145   C     0.12012   0.99216   0.12127   0.00000  Uiso   1.00
X146   C     0.12123   0.99705   0.87975   0.00000  Uiso   1.00
X147   C     0.00184   0.87390   0.12038   0.00000  Uiso   1.00
X148   C     0.99737   0.11540   0.12062   0.00000  Uiso   1.00
X149   C     0.00313   0.11558   0.87909   0.00000  Uiso   1.00
X150   C     0.99791   0.87417   0.87887   0.00000  Uiso   1.00
X151   C     0.12034   0.87373   0.00243   0.00000  Uiso   1.00
X152   C     0.12109   0.11513   0.99835   0.00000  Uiso   1.00
H153   H     0.07044   0.92460   0.92986   0.00000  Uiso   1.00
O154   O     0.04785   0.94712   0.95234   0.00000  Uiso   1.00
H155   H     0.07001   0.06476   0.07041   0.00000  Uiso   1.00
O156   O     0.04758   0.04230   0.04773   0.00000  Uiso   1.00
C157   C     0.28239   0.99188   0.28417   0.00000  Uiso   1.00
C158   C     0.29067   0.03694   0.31549   0.00000  Uiso   1.00
C159   C     0.33021   0.03763   0.35422   0.00000  Uiso   1.00
X160   C     0.36189   0.99285   0.36350   0.00000  Uiso   1.00
C161   C     0.35331   0.94769   0.33216   0.00000  Uiso   1.00
C162   C     0.31438   0.94736   0.29280   0.00000  Uiso   1.00
C163   C     0.24068   0.99142   0.24255   0.00000  Uiso   1.00
C164   C     0.25163   0.97233   0.19158   0.00000  Uiso   1.00
C165   C     0.21268   0.97278   0.15222   0.00000  Uiso   1.00
X166   C     0.16148   0.99140   0.16311   0.00000  Uiso   1.00
C167   C     0.15039   0.00986   0.21434   0.00000  Uiso   1.00
C168   C     0.18963   0.01031   0.25339   0.00000  Uiso   1.00
H169   H     0.33652   0.07352   0.37661   0.00000  Uiso   1.00
H170   H     0.37660   0.91237   0.33846   0.00000  Uiso   1.00
H171   H     0.22259   0.95819   0.11328   0.00000  Uiso   1.00
H172   H     0.11150   0.02471   0.22408   0.00000  Uiso   1.00
H173   H     0.30868   0.91191   0.26960   0.00000  Uiso   1.00
H174   H     0.29067   0.95785   0.18192   0.00000  Uiso   1.00
H175   H     0.26715   0.07209   0.30929   0.00000  Uiso   1.00
H176   H     0.17989   0.02493   0.29237   0.00000  Uiso   1.00
C177   C     0.71603   0.99716   0.28213   0.00000  Uiso   1.00
C178   C     0.67734   0.03698   0.28416   0.00000  Uiso   1.00
C179   C     0.63835   0.03647   0.32340   0.00000  Uiso   1.00
X180   C     0.63678   0.99580   0.36107   0.00000  Uiso   1.00
C181   C     0.67520   0.95590   0.35904   0.00000  Uiso   1.00
C182   C     0.71453   0.95669   0.32017   0.00000  Uiso   1.00
C183   C     0.75780   0.99780   0.24059   0.00000  Uiso   1.00
C184   C     0.81052   0.98601   0.25330   0.00000  Uiso   1.00
C185   C     0.84976   0.98633   0.21434   0.00000  Uiso   1.00
X186   C     0.83724   0.99794   0.16145   0.00000  Uiso   1.00
C187   C     0.78445   0.00974   0.14875   0.00000  Uiso   1.00
C188   C     0.74530   0.00994   0.18787   0.00000  Uiso   1.00
H189   H     0.60928   0.06780   0.32444   0.00000  Uiso   1.00
H190   H     0.67465   0.92411   0.38762   0.00000  Uiso   1.00
H191   H     0.88990   0.97697   0.22566   0.00000  Uiso   1.00
H192   H     0.77331   0.01899   0.10853   0.00000  Uiso   1.00
H193   H     0.74338   0.92516   0.31938   0.00000  Uiso   1.00
H194   H     0.82157   0.97705   0.29361   0.00000  Uiso   1.00
H195   H     0.67773   0.06899   0.25584   0.00000  Uiso   1.00
H196   H     0.70500   0.01876   0.17669   0.00000  Uiso   1.00
C197   C     0.71763   0.99227   0.71552   0.00000  Uiso   1.00
C198   C     0.70921   0.03735   0.68426   0.00000  Uiso   1.00
C199   C     0.66970   0.03795   0.64549   0.00000  Uiso   1.00
X200   C     0.63818   0.99308   0.63612   0.00000  Uiso   1.00
C201   C     0.64690   0.94790   0.66741   0.00000  Uiso   1.00
C202   C     0.68581   0.94764   0.70679   0.00000  Uiso   1.00
C203   C     0.75933   0.99189   0.75717   0.00000  Uiso   1.00
C204   C     0.74854   0.97235   0.80801   0.00000  Uiso   1.00
C205   C     0.78749   0.97281   0.84737   0.00000  Uiso   1.00
X206   C     0.83852   0.99195   0.83661   0.00000  Uiso   1.00
C207   C     0.84947   0.01089   0.78553   0.00000  Uiso   1.00
C208   C     0.81023   0.01129   0.74647   0.00000  Uiso   1.00
H209   H     0.66329   0.07385   0.62315   0.00000  Uiso   1.00
H210   H     0.62373   0.91251   0.66104   0.00000  Uiso   1.00
H211   H     0.77774   0.95776   0.88619   0.00000  Uiso   1.00
H212   H     0.88824   0.02612   0.77591   0.00000  Uiso   1.00
H213   H     0.69163   0.91217   0.72992   0.00000  Uiso   1.00
H214   H     0.70962   0.95746   0.81756   0.00000  Uiso   1.00
H215   H     0.73258   0.07259   0.69054   0.00000  Uiso   1.00
H216   H     0.81987   0.02625   0.70761   0.00000  Uiso   1.00
C217   C     0.28409   0.99692   0.71753   0.00000  Uiso   1.00
C218   C     0.28562   0.95642   0.67953   0.00000  Uiso   1.00
C219   C     0.32494   0.95565   0.64065   0.00000  Uiso   1.00
X220   C     0.36333   0.99559   0.63857   0.00000  Uiso   1.00
C221   C     0.36173   0.03627   0.67622   0.00000  Uiso   1.00
C222   C     0.32274   0.03677   0.71547   0.00000  Uiso   1.00
C223   C     0.24233   0.99756   0.75907   0.00000  Uiso   1.00
C224   C     0.25482   0.00974   0.81179   0.00000  Uiso   1.00
C225   C     0.21568   0.00957   0.85091   0.00000  Uiso   1.00
X226   C     0.16288   0.99776   0.83821   0.00000  Uiso   1.00
C227   C     0.15037   0.98610   0.78533   0.00000  Uiso   1.00
C228   C     0.18961   0.98574   0.74637   0.00000  Uiso   1.00
H229   H     0.32552   0.92384   0.61208   0.00000  Uiso   1.00
H230   H     0.39077   0.06764   0.67516   0.00000  Uiso   1.00
H231   H     0.22681   0.01885   0.89112   0.00000  Uiso   1.00
H232   H     0.11023   0.97671   0.77402   0.00000  Uiso   1.00
H233   H     0.32233   0.06880   0.74377   0.00000  Uiso   1.00
H234   H     0.29512   0.01857   0.82296   0.00000  Uiso   1.00
H235   H     0.25680   0.92487   0.68034   0.00000  Uiso   1.00
H236   H     0.17857   0.97675   0.70607   0.00000  Uiso   1.00
C237   C     0.28327   0.27790   0.99995   0.00000  Uiso   1.00
C238   C     0.29219   0.30989   0.95551   0.00000  Uiso   1.00
C239   C     0.33153   0.34879   0.95613   0.00000  Uiso   1.00
X240   C     0.36249   0.35742   0.00155   0.00000  Uiso   1.00
C241   C     0.35304   0.32561   0.04620   0.00000  Uiso   1.00
C242   C     0.31429   0.28611   0.04524   0.00000  Uiso   1.00
C243   C     0.24180   0.23609   0.99908   0.00000  Uiso   1.00
C244   C     0.25263   0.18509   0.01811   0.00000  Uiso   1.00
C245   C     0.21375   0.14571   0.01717   0.00000  Uiso   1.00
X246   C     0.16275   0.15661   0.99803   0.00000  Uiso   1.00
C247   C     0.15186   0.20774   0.97921   0.00000  Uiso   1.00
C248   C     0.19105   0.24684   0.97930   0.00000  Uiso   1.00
H249   H     0.33822   0.37192   0.92078   0.00000  Uiso   1.00
H250   H     0.37544   0.33169   0.08212   0.00000  Uiso   1.00
H251   H     0.22345   0.10687   0.03216   0.00000  Uiso   1.00
H252   H     0.11310   0.21744   0.96402   0.00000  Uiso   1.00
H253   H     0.30792   0.26249   0.08029   0.00000  Uiso   1.00
H254   H     0.29146   0.17550   0.03320   0.00000  Uiso   1.00
H255   H     0.26931   0.30414   0.91986   0.00000  Uiso   1.00
H256   H     0.18144   0.28584   0.96466   0.00000  Uiso   1.00
C257   C     0.28227   0.71133   0.00246   0.00000  Uiso   1.00
C258   C     0.29659   0.68646   0.95495   0.00000  Uiso   1.00
C259   C     0.33622   0.64787   0.95420   0.00000  Uiso   1.00
X260   C     0.36151   0.63253   0.00110   0.00000  Uiso   1.00
C261   C     0.34673   0.65680   0.04873   0.00000  Uiso   1.00
C262   C     0.30795   0.69629   0.04931   0.00000  Uiso   1.00
C263   C     0.24063   0.75278   0.00306   0.00000  Uiso   1.00
C264   C     0.24983   0.80184   0.02730   0.00000  Uiso   1.00
C265   C     0.21098   0.84127   0.02678   0.00000  Uiso   1.00
X266   C     0.16161   0.83204   0.00310   0.00000  Uiso   1.00
C267   C     0.15219   0.78264   0.97956   0.00000  Uiso   1.00
C268   C     0.19146   0.74369   0.97902   0.00000  Uiso   1.00
H269   H     0.34704   0.62966   0.91707   0.00000  Uiso   1.00
H270   H     0.36559   0.64539   0.08536   0.00000  Uiso   1.00
H271   H     0.21937   0.87883   0.04538   0.00000  Uiso   1.00
H272   H     0.11468   0.77441   0.96075   0.00000  Uiso   1.00
H273   H     0.29741   0.71458   0.08649   0.00000  Uiso   1.00
H274   H     0.28747   0.80995   0.04588   0.00000  Uiso   1.00
H275   H     0.27763   0.69751   0.91827   0.00000  Uiso   1.00
H276   H     0.18327   0.70614   0.96028   0.00000  Uiso   1.00
C277   C     0.71672   0.71065   0.99421   0.00000  Uiso   1.00
C278   C     0.66990   0.71689   0.96503   0.00000  Uiso   1.00
C279   C     0.63056   0.67799   0.96578   0.00000  Uiso   1.00
X280   C     0.63658   0.63152   0.99591   0.00000  Uiso   1.00
C281   C     0.68395   0.62512   0.02451   0.00000  Uiso   1.00
C282   C     0.72326   0.66407   0.02376   0.00000  Uiso   1.00
C283   C     0.75838   0.75259   0.99407   0.00000  Uiso   1.00
C284   C     0.81230   0.73922   0.99427   0.00000  Uiso   1.00
C285   C     0.85130   0.77848   0.99479   0.00000  Uiso   1.00
X286   C     0.83757   0.83235   0.99514   0.00000  Uiso   1.00
C287   C     0.78363   0.84573   0.99462   0.00000  Uiso   1.00
C288   C     0.74464   0.80644   0.99409   0.00000  Uiso   1.00
H289   H     0.59568   0.68386   0.94174   0.00000  Uiso   1.00
H290   H     0.68999   0.59053   0.04891   0.00000  Uiso   1.00
H291   H     0.89232   0.76645   0.99495   0.00000  Uiso   1.00
H292   H     0.77136   0.88667   0.99495   0.00000  Uiso   1.00
H293   H     0.75837   0.65814   0.04737   0.00000  Uiso   1.00
H294   H     0.82448   0.69827   0.99346   0.00000  Uiso   1.00
H295   H     0.66391   0.75162   0.94086   0.00000  Uiso   1.00
H296   H     0.70360   0.81833   0.99464   0.00000  Uiso   1.00
C297   C     0.71725   0.27894   0.00158   0.00000  Uiso   1.00
C298   C     0.67640   0.27801   0.96390   0.00000  Uiso   1.00
C299   C     0.63713   0.31699   0.96377   0.00000  Uiso   1.00
X300   C     0.63737   0.35746   0.00170   0.00000  Uiso   1.00
C301   C     0.67833   0.35880   0.03905   0.00000  Uiso   1.00
C302   C     0.71787   0.32007   0.03895   0.00000  Uiso   1.00
C303   C     0.75885   0.23709   0.00199   0.00000  Uiso   1.00
C304   C     0.81213   0.24996   0.01096   0.00000  Uiso   1.00
C305   C     0.85116   0.21071   0.01091   0.00000  Uiso   1.00
X306   C     0.83796   0.15741   0.00228   0.00000  Uiso   1.00
C307   C     0.78456   0.14454   0.99375   0.00000  Uiso   1.00
C308   C     0.74562   0.18385   0.99340   0.00000  Uiso   1.00
H309   H     0.60632   0.31552   0.93417   0.00000  Uiso   1.00
H310   H     0.67939   0.38967   0.06860   0.00000  Uiso   1.00
H311   H     0.89176   0.22224   0.01769   0.00000  Uiso   1.00
H312   H     0.77276   0.10402   0.98697   0.00000  Uiso   1.00
H313   H     0.74844   0.32176   0.06877   0.00000  Uiso   1.00
H314   H     0.82379   0.29059   0.01722   0.00000  Uiso   1.00
H315   H     0.67516   0.24743   0.93407   0.00000  Uiso   1.00
H316   H     0.70493   0.17243   0.98702   0.00000  Uiso   1.00
C317   C     0.99755   0.27784   0.28430   0.00000  Uiso   1.00
C318   C     0.02212   0.26872   0.33329   0.00000  Uiso   1.00
C319   C     0.02308   0.30790   0.37239   0.00000  Uiso   1.00
X320   C     0.99981   0.35779   0.36377   0.00000  Uiso   1.00
C321   C     0.97487   0.36653   0.31470   0.00000  Uiso   1.00
C322   C     0.97375   0.32727   0.27574   0.00000  Uiso   1.00
C323   C     0.99692   0.23616   0.24229   0.00000  Uiso   1.00
C324   C     0.00166   0.24972   0.18859   0.00000  Uiso   1.00
C325   C     0.00140   0.21076   0.14927   0.00000  Uiso   1.00
X326   C     0.99659   0.15699   0.16243   0.00000  Uiso   1.00
C327   C     0.99169   0.14341   0.21611   0.00000  Uiso   1.00
C328   C     0.99178   0.18240   0.25541   0.00000  Uiso   1.00
H329   H     0.04362   0.29961   0.40896   0.00000  Uiso   1.00
H330   H     0.95477   0.40343   0.30682   0.00000  Uiso   1.00
H331   H     0.00552   0.22289   0.10849   0.00000  Uiso   1.00
H332   H     0.98764   0.10253   0.22792   0.00000  Uiso   1.00
H333   H     0.95333   0.33545   0.23911   0.00000  Uiso   1.00
H334   H     0.00652   0.29051   0.17685   0.00000  Uiso   1.00
H335   H     0.04169   0.23157   0.34115   0.00000  Uiso   1.00
H336   H     0.98717   0.17035   0.29615   0.00000  Uiso   1.00
C337   C     0.00327   0.27858   0.71601   0.00000  Uiso   1.00
C338   C     0.02598   0.26959   0.66613   0.00000  Uiso   1.00
C339   C     0.02527   0.30877   0.62703   0.00000  Uiso   1.00
X340   C     0.00203   0.35854   0.63648   0.00000  Uiso   1.00
C341   C     0.97912   0.36721   0.68656   0.00000  Uiso   1.00
C342   C     0.97972   0.32796   0.72555   0.00000  Uiso   1.00
C343   C     0.00393   0.23670   0.75781   0.00000  Uiso   1.00
C344   C     0.01056   0.24992   0.81140   0.00000  Uiso   1.00
C345   C     0.01054   0.21080   0.85057   0.00000  Uiso   1.00
X346   C     0.00404   0.15722   0.83734   0.00000  Uiso   1.00
C347   C     0.99778   0.14394   0.78373   0.00000  Uiso   1.00
C348   C     0.99765   0.18309   0.74459   0.00000  Uiso   1.00
H349   H     0.04451   0.30055   0.58974   0.00000  Uiso   1.00
H350   H     0.95919   0.40402   0.69526   0.00000  Uiso   1.00
H351   H     0.01583   0.22264   0.89130   0.00000  Uiso   1.00
H352   H     0.99234   0.10323   0.77189   0.00000  Uiso   1.00
H353   H     0.96073   0.33604   0.76296   0.00000  Uiso   1.00
H354   H     0.01639   0.29058   0.82314   0.00000  Uiso   1.00
H355   H     0.04533   0.23248   0.65751   0.00000  Uiso   1.00
H356   H     0.99165   0.17132   0.70395   0.00000  Uiso   1.00
C357   C     0.99727   0.71117   0.71581   0.00000  Uiso   1.00
C358   C     0.97385   0.66164   0.72490   0.00000  Uiso   1.00
C359   C     0.97435   0.62234   0.68595   0.00000  Uiso   1.00
X360   C     0.99809   0.63122   0.63631   0.00000  Uiso   1.00
C361   C     0.02138   0.68104   0.62736   0.00000  Uiso   1.00
C362   C     0.02105   0.72024   0.66643   0.00000  Uiso   1.00
C363   C     0.99708   0.75301   0.75764   0.00000  Uiso   1.00
C364   C     0.99134   0.80668   0.74438   0.00000  Uiso   1.00
C365   C     0.99149   0.84583   0.78353   0.00000  Uiso   1.00
X366   C     0.99721   0.83249   0.83717   0.00000  Uiso   1.00
C367   C     0.00273   0.77881   0.85047   0.00000  Uiso   1.00
C368   C     0.00276   0.73970   0.81131   0.00000  Uiso   1.00
H369   H     0.95466   0.58531   0.69427   0.00000  Uiso   1.00
H370   H     0.04147   0.68930   0.59054   0.00000  Uiso   1.00
H371   H     0.98687   0.88663   0.77165   0.00000  Uiso   1.00
H372   H     0.00758   0.76687   0.89123   0.00000  Uiso   1.00
H373   H     0.04047   0.75741   0.65823   0.00000  Uiso   1.00
H374   H     0.98603   0.81852   0.70367   0.00000  Uiso   1.00
H375   H     0.95420   0.65341   0.76193   0.00000  Uiso   1.00
H376   H     0.00813   0.69899   0.82312   0.00000  Uiso   1.00
C377   C     0.00183   0.71108   0.28345   0.00000  Uiso   1.00
C378   C     0.96920   0.66632   0.27862   0.00000  Uiso   1.00
C379   C     0.96878   0.62720   0.31775   0.00000  Uiso   1.00
X380   C     0.00114   0.63163   0.36259   0.00000  Uiso   1.00
C381   C     0.03364   0.67630   0.36763   0.00000  Uiso   1.00
C382   C     0.03395   0.71556   0.32861   0.00000  Uiso   1.00
C383   C     0.00230   0.75281   0.24163   0.00000  Uiso   1.00
C384   C     0.00538   0.80662   0.25509   0.00000  Uiso   1.00
C385   C     0.00539   0.84574   0.21593   0.00000  Uiso   1.00
X386   C     0.00250   0.83220   0.16208   0.00000  Uiso   1.00
C387   C     0.99971   0.77834   0.14863   0.00000  Uiso   1.00
C388   C     0.99953   0.73926   0.18782   0.00000  Uiso   1.00
H389   H     0.94299   0.59341   0.31315   0.00000  Uiso   1.00
H390   H     0.05912   0.68055   0.40169   0.00000  Uiso   1.00
H391   H     0.00748   0.88669   0.22799   0.00000  Uiso   1.00
H392   H     0.99752   0.76621   0.10770   0.00000  Uiso   1.00
H393   H     0.06003   0.74907   0.33341   0.00000  Uiso   1.00
H394   H     0.00691   0.81862   0.29608   0.00000  Uiso   1.00
H395   H     0.94336   0.66188   0.24488   0.00000  Uiso   1.00
H396   H     0.99784   0.69825   0.17589   0.00000  Uiso   1.00
loop_
_geom_bond_atom_site_label_1
_geom_bond_atom_site_label_2
_geom_bond_distance
_geom_bond_site_symmetry_2
_ccdc_geom_bond_type
C1     C2      1.370   .     A
C1     C5      1.385   .     A
C1     H25     1.082   .     S
C2     C3      1.390   .     A
C2     H26     1.081   .     S
C3     N4      1.357   .     A
C3     X6      1.429   .     A
N4     C5      1.355   .     A
C5     X24     1.421   .     A
X6     X160    1.425   .     A
X6     C7      1.432   1_565 A
C7     C8      1.392   .     A
C7     X6      1.432   1_545 A
C7     N11     1.360   1_545 S
C8     C9      1.372   .     A
C8     H28     1.080   .     S
C9     C10     1.385   .     A
C9     H29     1.082   .     S
C10    N11     1.356   1_545 A
C10    X12     1.423   1_545 S
N11    H33     1.036   .     S
N11    C7      1.360   1_565 S
N11    C10     1.356   1_565 A
X12    C13     1.421   .     A
X12    X220    1.497   .     S
X12    C10     1.423   1_565 S
C13    C14     1.385   .     A
C13    N17     1.355   .     A
C14    C15     1.370   .     A
C14    H30     1.082   .     S
C15    C16     1.390   .     A
C15    H31     1.081   .     S
C16    N17     1.357   .     A
C16    X18     1.429   .     A
X18    X200    1.425   .     A
X18    C19     1.432   1_565 A
C19    C20     1.391   .     A
C19    X18     1.432   1_545 A
C19    N23     1.360   1_545 A
C20    H34     1.080   .     S
C20    C21     1.372   .     A
C21    C22     1.385   .     A
C21    H32     1.082   .     S
C22    N23     1.356   1_545 A
C22    X24     1.423   1_545 S
N23    H27     1.036   .     S
N23    C19     1.360   1_565 A
N23    C22     1.356   1_565 A
X24    X180    1.497   .     S
X24    C22     1.423   1_565 S
C35    C36     1.370   .     A
C35    C39     1.391   .     A
C35    H59     1.080   .     S
C36    C37     1.384   .     A
C36    H60     1.082   .     S
C37    N38     1.355   .     A
C37    X40     1.419   .     A
N38    C39     1.357   .     A
C39    X58     1.430   .     A
X40    X300    1.498   .     S
X40    C41     1.419   1_554 A
C41    C42     1.385   .     A
C41    X40     1.419   1_556 A
C41    N45     1.358   1_556 A
C42    C43     1.373   .     A
C42    H62     1.082   .     S
C43    C44     1.389   .     A
C43    H63     1.082   .     S
C44    X46     1.427   .     A
C44    N45     1.359   1_556 A
N45    H67     1.040   .     S
N45    C41     1.358   1_554 A
N45    C44     1.359   1_554 A
X46    X280    1.430   .     A
X46    C47     1.426   1_556 A
C47    C48     1.388   .     A
C47    X46     1.426   1_554 A
C47    N51     1.357   1_554 A
C48    C49     1.369   .     A
C48    H64     1.082   .     S
C49    C50     1.385   .     A
C49    H65     1.081   .     S
C50    X52     1.420   .     A
C50    N51     1.357   1_554 A
N51    C47     1.357   1_556 A
N51    C50     1.357   1_556 A
X52    X260    1.496   .     S
X52    C53     1.422   1_554 S
C53    C54     1.385   .     A
C53    N57     1.357   .     A
C53    X52     1.422   1_556 S
C54    H68     1.082   .     S
C54    C55     1.373   .     A
C55    C56     1.392   .     A
C55    H66     1.081   .     S
C56    N57     1.360   .     A
C56    X58     1.433   1_556 A
N57    H61     1.035   1_556 S
X58    X240    1.424   .     A
X58    C56     1.433   1_554 A
H61    N57     1.035   1_554 S
C69    C70     1.370   .     A
C69    C73     1.387   .     A
C69    H93     1.082   .     S
C70    C71     1.387   .     A
C70    H94     1.082   .     S
C71    X74     1.422   .     A
C71    N72     1.357   1_455 A
N72    C71     1.357   1_655 A
N72    C73     1.358   1_655 S
C73    N72     1.358   1_455 S
C73    X92     1.423   1_455 S
X74    X340    1.432   .     A
X74    C75     1.424   1_455 A
C75    C76     1.388   .     A
C75    X74     1.424   1_655 A
C75    N79     1.357   1_655 A
C76    C77     1.374   .     A
C76    H96     1.082   .     S
C77    C78     1.388   .     A
C77    H97     1.082   .     S
C78    N79     1.358   1_655 A
C78    X80     1.425   1_655 S
N79    H101    1.043   .     S
N79    C75     1.357   1_455 A
N79    C78     1.358   1_455 A
X80    C81     1.422   .     A
X80    C78     1.425   1_455 S
X80    X320    1.431   1_455 A
C81    C82     1.388   .     A
C81    N85     1.355   1_455 S
C82    C83     1.372   .     A
C82    H98     1.082   .     S
C83    C84     1.384   .     A
C83    H99     1.082   .     S
C84    X86     1.414   .     A
C84    N85     1.355   1_455 A
N85    C81     1.355   1_655 S
N85    C84     1.355   1_655 A
X86    X380    1.499   .     S
X86    C87     1.415   1_455 A
C87    C88     1.385   .     A
C87    X86     1.415   1_655 A
C87    N91     1.355   1_655 S
C88    H102    1.082   .     S
C88    C89     1.376   .     A
C89    C90     1.389   .     A
C89    H100    1.082   .     S
C90    X92     1.424   .     A
C90    N91     1.356   1_655 A
N91    H95     1.042   .     S
N91    C87     1.355   1_455 S
N91    C90     1.356   1_455 A
X92    X360    1.431   .     A
X92    C73     1.423   1_655 S
O103   X114    1.301   .     A
O103   Zr139   2.120   1_655 A
O104   Zr138   2.117   .     S
O104   X115    1.300   .     A
O105   Zr111   2.120   .     S
O105   X116    1.301   .     A
O106   X117    1.301   .     A
O106   Zr111   2.119   1_544 A
O107   X117    1.301   .     A
O107   Zr141   2.119   1_654 S
O108   Zr140   2.118   .     S
O108   X116    1.301   .     A
O109   X115    1.301   .     A
O109   Zr111   2.119   1_554 A
O110   Zr111   2.120   .     S
O110   X114    1.301   .     A
Zr111  O113    2.064   .     S
Zr111  O106    2.119   1_566 A
Zr111  O109    2.119   1_556 A
Zr111  O112    2.065   1_566 A
Zr111  O121    2.060   1_565 A
Zr111  O119    2.060   1_556 A
O112   Zr111   2.065   1_544 A
O112   Zr138   2.064   1_545 S
O112   Zr141   2.065   1_654 A
O113   Zr140   2.064   .     S
O113   Zr139   2.063   1_655 S
X114   X206    1.490   .     S
X115   X186    1.491   .     S
X116   X286    1.494   .     S
X117   X306    1.493   .     S
H118   O119    0.988   .     S
O119   Zr138   2.060   .     S
O119   Zr111   2.060   1_554 A
O119   Zr140   2.059   1_554 A
H120   O121    0.989   .     S
O121   Zr111   2.060   1_545 A
O121   Zr139   2.059   1_645 A
O121   Zr141   2.060   1_655 S
O122   X145    1.301   .     A
O122   Zr138   2.120   1_455 A
O123   Zr139   2.117   .     S
O123   X146    1.301   .     A
O124   X147    1.301   .     A
O124   Zr140   2.120   1_454 S
O125   X148    1.301   .     A
O125   Zr141   2.120   1_654 S
O126   Zr141   2.120   .     S
O126   X149    1.301   .     A
O127   Zr140   2.119   .     S
O127   X150    1.301   .     A
O128   Zr142   2.120   .     S
O128   X151    1.301   .     A
O129   X152    1.301   .     A
O129   Zr142   2.119   1_546 A
O130   X151    1.300   .     A
O130   Zr140   2.117   1_454 A
O131   Zr141   2.120   .     S
O131   X152    1.301   .     A
O132   X147    1.301   .     A
O132   Zr138   2.119   1_455 A
O133   X150    1.301   .     A
O133   Zr139   2.120   1_655 S
O134   X149    1.301   .     A
O134   Zr139   2.119   1_545 A
O135   X148    1.301   .     A
O135   Zr138   2.119   1_545 S
O136   Zr142   2.120   .     S
O136   X145    1.301   .     A
O137   X146    1.301   .     A
O137   Zr142   2.120   1_556 A
Zr138  O112    2.064   1_565 S
Zr138  O122    2.120   1_655 A
Zr138  O132    2.119   1_655 A
Zr138  O135    2.119   1_565 S
Zr138  O144    2.064   1_655 A
Zr138  O156    2.059   1_665 S
Zr139  O154    2.060   .     S
Zr139  O103    2.120   1_455 A
Zr139  O113    2.063   1_455 S
Zr139  O121    2.059   1_465 A
Zr139  O133    2.120   1_455 S
Zr139  O134    2.119   1_565 A
Zr139  O143    2.065   1_565 A
Zr140  O119    2.059   1_556 A
Zr140  O124    2.120   1_656 S
Zr140  O130    2.117   1_656 A
Zr140  O144    2.065   1_656 A
Zr140  O154    2.059   1_655 S
Zr141  O143    2.064   .     S
Zr141  O107    2.119   1_456 S
Zr141  O112    2.065   1_456 A
Zr141  O121    2.060   1_455 S
Zr141  O125    2.120   1_456 S
Zr141  O156    2.060   1_556 S
Zr142  O144    2.063   .     S
Zr142  O129    2.119   1_564 A
Zr142  O137    2.120   1_554 A
Zr142  O143    2.066   1_564 S
Zr142  O156    2.059   1_565 S
Zr142  O154    2.060   1_554 S
O143   Zr139   2.065   1_545 A
O143   Zr142   2.066   1_546 S
O144   Zr138   2.064   1_455 A
O144   Zr140   2.065   1_454 A
X145   X166    1.491   .     S
X146   X226    1.490   .     S
X147   X386    1.494   .     S
X148   X326    1.494   .     S
X149   X346    1.494   .     S
X150   X366    1.494   .     S
X151   X266    1.486   .     S
X152   X246    1.489   .     S
H153   O154    0.989   .     S
O154   Zr140   2.059   1_455 S
O154   Zr142   2.060   1_556 S
H155   O156    0.988   .     S
O156   Zr138   2.059   1_445 S
O156   Zr141   2.060   1_554 S
O156   Zr142   2.059   1_545 S
C157   C162    1.406   .     A
C157   C163    1.493   .     S
C157   C158    1.406   1_565 A
C158   C159    1.402   .     A
C158   H175    1.083   .     S
C158   C157    1.406   1_545 A
C159   H169    1.084   .     S
C159   X160    1.409   1_545 A
X160   C161    1.409   .     A
X160   C159    1.409   1_565 A
C161   C162    1.403   .     A
C161   H170    1.084   .     S
C162   H173    1.083   .     S
C163   C164    1.406   .     A
C163   C168    1.406   1_565 A
C164   C165    1.403   .     A
C164   H174    1.083   .     S
C165   X166    1.408   .     A
C165   H171    1.083   .     S
X166   C167    1.408   1_565 A
C167   C168    1.403   .     A
C167   H172    1.083   .     S
C167   X166    1.408   1_545 A
C168   H176    1.083   .     S
C168   C163    1.406   1_545 A
C177   C182    1.408   .     A
C177   C183    1.492   .     S
C177   C178    1.408   1_565 A
C178   C179    1.401   .     A
C178   H195    1.083   .     S
C178   C177    1.408   1_545 A
C179   H189    1.083   .     S
C179   X180    1.405   1_545 A
X180   C181    1.404   .     A
X180   C179    1.405   1_565 A
C181   C182    1.401   .     A
C181   H190    1.083   .     S
C182   H193    1.083   .     S
C183   C184    1.406   .     A
C183   C188    1.407   1_565 A
C184   C185    1.401   .     A
C184   H194    1.083   .     S
C185   X186    1.408   .     A
C185   H191    1.083   .     S
X186   C187    1.408   1_565 S
C187   C188    1.402   .     A
C187   H192    1.083   .     S
C187   X186    1.408   1_545 S
C188   H196    1.083   .     S
C188   C183    1.407   1_545 A
C197   C202    1.406   .     A
C197   C203    1.493   .     S
C197   C198    1.406   1_565 S
C198   C199    1.402   .     A
C198   H215    1.083   .     S
C198   C197    1.406   1_545 S
C199   H209    1.083   .     S
C199   X200    1.409   1_545 S
X200   C201    1.410   .     A
X200   C199    1.409   1_565 S
C201   C202    1.403   .     A
C201   H210    1.084   .     S
C202   H213    1.083   .     S
C203   C204    1.407   .     A
C203   C208    1.406   1_565 S
C204   C205    1.403   .     A
C204   H214    1.083   .     S
C205   X206    1.407   .     A
C205   H211    1.083   .     S
X206   C207    1.408   1_565 S
C207   C208    1.403   .     A
C207   H212    1.083   .     S
C207   X206    1.408   1_545 S
C208   H216    1.083   .     S
C208   C203    1.406   1_545 S
C217   C218    1.407   .     A
C217   C223    1.492   .     S
C217   C222    1.407   1_565 S
C218   C219    1.401   .     A
C218   H235    1.083   .     S
C219   X220    1.404   .     A
C219   H229    1.083   .     S
X220   C221    1.405   1_565 S
C221   C222    1.402   .     A
C221   H230    1.083   .     S
C221   X220    1.405   1_545 S
C222   H233    1.083   .     S
C222   C217    1.407   1_545 S
C223   C228    1.406   .     A
C223   C224    1.407   1_565 S
C224   C225    1.402   .     A
C224   H234    1.083   .     S
C224   C223    1.407   1_545 S
C225   H231    1.083   .     S
C225   X226    1.408   1_545 S
X226   C227    1.408   .     A
X226   C225    1.408   1_565 S
C227   C228    1.401   .     A
C227   H232    1.083   .     S
C228   H236    1.083   .     S
C237   C238    1.405   .     A
C237   C243    1.492   .     S
C237   C242    1.406   1_556 S
C238   C239    1.402   .     A
C238   H255    1.083   .     S
C239   H249    1.084   .     S
C239   X240    1.410   1_556 S
X240   C241    1.409   .     A
X240   C239    1.410   1_554 S
C241   C242    1.402   .     A
C241   H250    1.083   .     S
C242   H253    1.083   .     S
C242   C237    1.406   1_554 S
C243   C248    1.407   .     A
C243   C244    1.406   1_556 S
C244   C245    1.402   .     A
C244   H254    1.083   .     S
C244   C243    1.406   1_554 S
C245   H251    1.083   .     S
C245   X246    1.407   1_554 A
X246   C247    1.408   .     A
X246   C245    1.407   1_556 A
C247   C248    1.402   .     A
C247   H252    1.083   .     S
C248   H256    1.083   .     S
C257   C262    1.406   .     A
C257   C263    1.489   .     S
C257   C258    1.406   1_554 S
C258   C259    1.401   .     A
C258   H275    1.083   .     S
C258   C257    1.406   1_556 S
C259   H269    1.083   .     S
C259   X260    1.405   1_556 S
X260   C261    1.405   .     A
X260   C259    1.405   1_554 S
C261   C262    1.402   .     A
C261   H270    1.083   .     S
C262   H273    1.083   .     S
C263   C264    1.406   .     A
C263   C268    1.406   1_554 S
C264   C265    1.402   .     A
C264   H274    1.083   .     S
C265   X266    1.407   .     A
C265   H271    1.083   .     S
X266   C267    1.407   1_554 S
C267   C268    1.401   .     A
C267   H272    1.083   .     S
C267   X266    1.407   1_556 S
C268   H276    1.083   .     S
C268   C263    1.406   1_556 S
C277   C278    1.407   .     A
C277   C283    1.498   .     S
C277   C282    1.407   1_556 A
C278   C279    1.402   .     A
C278   H295    1.083   .     S
C279   X280    1.411   .     A
C279   H289    1.083   .     S
X280   C281    1.411   1_556 S
C281   C282    1.402   .     A
C281   H290    1.083   .     S
C281   X280    1.411   1_554 S
C282   H293    1.082   .     S
C282   C277    1.407   1_554 A
C283   C284    1.407   .     A
C283   C288    1.408   .     A
C284   C285    1.402   .     A
C284   H294    1.083   .     S
C285   X286    1.408   .     A
C285   H291    1.083   .     S
X286   C287    1.408   .     A
C287   C288    1.402   .     A
C287   H292    1.083   .     S
C288   H296    1.083   .     S
C297   C302    1.408   .     A
C297   C303    1.495   .     S
C297   C298    1.408   1_554 A
C298   C299    1.402   .     A
C298   H315    1.083   .     S
C298   C297    1.408   1_556 A
C299   H309    1.083   .     S
C299   X300    1.405   1_556 S
X300   C301    1.405   .     A
X300   C299    1.405   1_554 S
C301   C302    1.402   .     A
C301   H310    1.083   .     S
C302   H313    1.083   .     S
C303   C304    1.407   .     A
C303   C308    1.407   1_554 A
C304   C305    1.402   .     A
C304   H314    1.083   .     S
C305   X306    1.408   .     A
C305   H311    1.083   .     S
X306   C307    1.408   1_554 S
C307   C308    1.402   .     A
C307   H312    1.083   .     S
C307   X306    1.408   1_556 S
C308   H316    1.083   .     S
C308   C303    1.407   1_556 A
C317   C322    1.407   .     A
C317   C323    1.499   .     S
C317   C318    1.408   1_655 A
C318   C319    1.403   .     A
C318   H335    1.082   .     S
C318   C317    1.408   1_455 A
C319   H329    1.083   .     S
C319   X320    1.412   1_455 S
X320   C321    1.412   .     A
X320   X80     1.431   1_655 A
X320   C319    1.412   1_655 S
C321   C322    1.402   .     A
C321   H330    1.083   .     S
C322   H333    1.082   .     S
C323   C328    1.408   .     A
C323   C324    1.408   1_655 A
C324   C325    1.402   .     A
C324   H334    1.082   .     S
C324   C323    1.408   1_455 A
C325   H331    1.083   .     S
C325   X326    1.408   1_455 S
X326   C327    1.408   .     A
X326   C325    1.408   1_655 S
C327   C328    1.402   .     A
C327   H332    1.083   .     S
C328   H336    1.083   .     S
C337   C338    1.407   .     A
C337   C343    1.499   .     S
C337   C342    1.407   1_455 A
C338   C339    1.402   .     A
C338   H355    1.083   .     S
C339   X340    1.412   .     A
C339   H349    1.083   .     S
X340   C341    1.412   1_455 S
C341   C342    1.402   .     A
C341   H350    1.083   .     S
C341   X340    1.412   1_655 S
C342   H353    1.082   .     S
C342   C337    1.407   1_655 A
C343   C344    1.408   .     A
C343   C348    1.408   1_455 A
C344   C345    1.402   .     A
C344   H354    1.082   .     S
C345   X346    1.408   .     A
C345   H351    1.083   .     S
X346   C347    1.408   1_455 S
C347   C348    1.402   .     A
C347   H352    1.083   .     S
C347   X346    1.408   1_655 S
C348   H356    1.083   .     S
C348   C343    1.408   1_655 A
C357   C358    1.407   .     A
C357   C363    1.499   .     S
C357   C362    1.407   1_655 A
C358   C359    1.402   .     A
C358   H375    1.082   .     S
C359   X360    1.412   .     A
C359   H369    1.083   .     S
X360   C361    1.412   1_655 S
C361   C362    1.402   .     A
C361   H370    1.083   .     S
C361   X360    1.412   1_455 S
C362   H373    1.083   .     S
C362   C357    1.407   1_455 A
C363   C364    1.408   .     A
C363   C368    1.408   1_655 S
C364   C365    1.403   .     A
C364   H374    1.082   .     S
C365   X366    1.408   .     A
C365   H371    1.083   .     S
X366   C367    1.408   1_655 A
C367   C368    1.402   .     A
C367   H372    1.083   .     S
C367   X366    1.408   1_455 A
C368   H376    1.082   .     S
C368   C363    1.408   1_455 S
C377   C382    1.409   .     A
C377   C383    1.497   .     S
C377   C378    1.409   1_455 S
C378   C379    1.402   .     A
C378   H395    1.083   .     S
C378   C377    1.409   1_655 S
C379   H389    1.083   .     S
C379   X380    1.405   1_655 S
X380   C381    1.405   .     A
X380   C379    1.405   1_455 S
C381   C382    1.402   .     A
C381   H390    1.083   .     S
C382   H393    1.083   .     S
C383   C384    1.407   .     A
C383   C388    1.408   1_455 A
C384   C385    1.402   .     A
C384   H394    1.083   .     S
C385   X386    1.409   .     A
C385   H391    1.083   .     S
X386   C387    1.408   1_455 A
C387   C388    1.402   .     A
C387   H392    1.083   .     S
C387   X386    1.408   1_655 A
C388   H396    1.083   .     S
C388   C383    1.408   1_655 A
