data_image0
_cell_length_a       42.1589
_cell_length_b       42.1589
_cell_length_c       52.5682
_cell_angle_alpha    90
_cell_angle_beta     90
_cell_angle_gamma    120

_symmetry_space_group_name_H-M    "P 1"
_symmetry_int_tables_number       1

loop_
  _symmetry_equiv_pos_as_xyz
  'x, y, z'

loop_
  _atom_site_label
  _atom_site_occupancy
  _atom_site_fract_x
  _atom_site_fract_y
  _atom_site_fract_z
  _atom_site_thermal_displace_type
  _atom_site_B_iso_or_equiv
  _atom_site_type_symbol
  Zn1      1.0000 0.62313  0.53808  0.58314  Biso   1.000  Zn
  Zn2      1.0000 0.65557  0.61069  0.54962  Biso   1.000  Zn
  Zn3      1.0000 0.70774  0.58182  0.57130  Biso   1.000  Zn
  Zn4      1.0000 0.67294  0.61543  0.60823  Biso   1.000  Zn
  Zn5      1.0000 0.71073  0.73619  0.21973  Biso   1.000  Zn
  S1       1.0000 0.54509  0.55091  0.50030  Biso   1.000  S
  S2       1.0000 0.51839  0.48556  0.53058  Biso   1.000  S
  H1       1.0000 0.51510  0.46760  0.54280  Biso   1.000  H
  H2       1.0000 0.56260  0.58150  0.49210  Biso   1.000  H
  C1       1.0000 0.69593  0.85563  0.19052  Biso   1.000  C
  S3       1.0000 0.66430  0.78941  0.16068  Biso   1.000  S
  H3       1.0000 0.65730  0.76550  0.15470  Biso   1.000  H
  H4       1.0000 0.70880  0.87360  0.20320  Biso   1.000  H
  C2       1.0000 0.63405  0.82082  0.12675  Biso   1.000  C
  S4       1.0000 0.66617  0.88609  0.15697  Biso   1.000  S
  H5       1.0000 0.67410  0.90990  0.16350  Biso   1.000  H
  H6       1.0000 0.62130  0.80320  0.11390  Biso   1.000  H
  O1       1.0000 0.66487  0.58647  0.57794  Biso   1.000  O
  O2       1.0000 0.60729  0.57980  0.53475  Biso   1.000  O
  O3       1.0000 0.58505  0.52742  0.55787  Biso   1.000  O
  O4       1.0000 0.60205  0.53511  0.61672  Biso   1.000  O
  O5       1.0000 0.63684  0.58984  0.63376  Biso   1.000  O
  O6       1.0000 0.67069  0.65973  0.60116  Biso   1.000  O
  O7       1.0000 0.65875  0.65640  0.56025  Biso   1.000  O
  O8       1.0000 0.69213  0.62215  0.52283  Biso   1.000  O
  O9       1.0000 0.72630  0.60087  0.53756  Biso   1.000  O
  O10      1.0000 0.69491  0.53047  0.57154  Biso   1.000  O
  O11      1.0000 0.63640  0.50049  0.58185  Biso   1.000  O
  O12      1.0000 0.74620  0.60818  0.59753  Biso   1.000  O
  O13      1.0000 0.72005  0.63028  0.62265  Biso   1.000  O
  O14      1.0000 0.72310  0.81862  0.22056  Biso   1.000  O
  O15      1.0000 0.69634  0.76523  0.19875  Biso   1.000  O
  O16      1.0000 0.78995  0.73774  0.28015  Biso   1.000  O
  O17      1.0000 0.74015  0.72346  0.30123  Biso   1.000  O
  O18      1.0000 0.66786  0.69146  0.22881  Biso   1.000  O
  C3       1.0000 0.58430  0.54700  0.53997  Biso   1.000  C
  C4       1.0000 0.55160  0.52790  0.52579  Biso   1.000  C
  C5       1.0000 0.50579  0.51476  0.49182  Biso   1.000  C
  C6       1.0000 0.66590  0.50130  0.57598  Biso   1.000  C
  C7       1.0000 0.66660  0.46640  0.57496  Biso   1.000  C
  C8       1.0000 0.63890  0.43730  0.58360  Biso   1.000  C
  H7       1.0000 0.61920  0.43830  0.59160  Biso   1.000  H
  C9       1.0000 0.63820  0.40450  0.58110  Biso   1.000  C
  H8       1.0000 0.61610  0.38230  0.58440  Biso   1.000  H
  C10      1.0000 0.66750  0.40280  0.57416  Biso   1.000  C
  C11      1.0000 0.69550  0.43250  0.56530  Biso   1.000  C
  H9       1.0000 0.71590  0.43180  0.55820  Biso   1.000  H
  C12      1.0000 0.69510  0.46580  0.56650  Biso   1.000  C
  H10      1.0000 0.71580  0.48790  0.56090  Biso   1.000  H
  C13      1.0000 0.66690  0.36600  0.57310  Biso   1.000  C
  C14      1.0000 0.69870  0.36540  0.57210  Biso   1.000  C
  H11      1.0000 0.72120  0.38780  0.57070  Biso   1.000  H
  C15      1.0000 0.61190  0.55880  0.63459  Biso   1.000  C
  C16      1.0000 0.58860  0.54520  0.65799  Biso   1.000  C
  C17      1.0000 0.59440  0.57000  0.67630  Biso   1.000  C
  H12      1.0000 0.61120  0.59510  0.67320  Biso   1.000  H
  C18      1.0000 0.57590  0.55910  0.70004  Biso   1.000  C
  H13      1.0000 0.57990  0.57610  0.71330  Biso   1.000  H
  C19      1.0000 0.55120  0.52130  0.70250  Biso   1.000  C
  C20      1.0000 0.54380  0.49430  0.68350  Biso   1.000  C
  H14      1.0000 0.52640  0.46920  0.68600  Biso   1.000  H
  C21      1.0000 0.56410  0.50730  0.66056  Biso   1.000  C
  H15      1.0000 0.56120  0.49080  0.64730  Biso   1.000  H
  C22      1.0000 0.71810  0.61590  0.52030  Biso   1.000  C
  C23      1.0000 0.73930  0.62790  0.49781  Biso   1.000  C
  C24      1.0000 0.73690  0.64950  0.47970  Biso   1.000  C
  H16      1.0000 0.72070  0.65880  0.48210  Biso   1.000  H
  C25      1.0000 0.75790  0.65820  0.45769  Biso   1.000  C
  H17      1.0000 0.75430  0.67250  0.44530  Biso   1.000  H
  C26      1.0000 0.78220  0.64850  0.45247  Biso   1.000  C
  C27      1.0000 0.78080  0.62310  0.47020  Biso   1.000  C
  H18      1.0000 0.79430  0.61110  0.46620  Biso   1.000  H
  C28      1.0000 0.76120  0.61340  0.49351  Biso   1.000  C
  H19      1.0000 0.76340  0.59760  0.50550  Biso   1.000  H
  C29      1.0000 0.80400  0.65970  0.43047  Biso   1.000  C
  C30      1.0000 0.79360  0.67010  0.40846  Biso   1.000  C
  H20      1.0000 0.77150  0.67080  0.40760  Biso   1.000  H
  C31      1.0000 0.81620  0.67920  0.38824  Biso   1.000  C
  C32      1.0000 0.84990  0.68020  0.38850  Biso   1.000  C
  H21      1.0000 0.86540  0.68780  0.37400  Biso   1.000  H
  C33      1.0000 0.86010  0.66940  0.41115  Biso   1.000  C
  C34      1.0000 0.83910  0.66050  0.43248  Biso   1.000  C
  H22      1.0000 0.84680  0.65500  0.44800  Biso   1.000  H
  C35      1.0000 0.89460  0.66890  0.41276  Biso   1.000  C
  C36      1.0000 0.91020  0.67000  0.43550  Biso   1.000  C
  H23      1.0000 0.90020  0.67360  0.45070  Biso   1.000  H
  C37      1.0000 0.94200  0.66560  0.43660  Biso   1.000  C
  H24      1.0000 0.95020  0.66170  0.45250  Biso   1.000  H
  C38      1.0000 0.95980  0.66710  0.41551  Biso   1.000  C
  C39      1.0000 0.94540  0.66850  0.39327  Biso   1.000  C
  H25      1.0000 0.95750  0.66920  0.37780  Biso   1.000  H
  C40      1.0000 0.91230  0.66900  0.39270  Biso   1.000  C
  H26      1.0000 0.90240  0.66950  0.37660  Biso   1.000  H
  C41      1.0000 0.66528  0.67170  0.58148  Biso   1.000  C
  C42      1.0000 0.80590  0.69200  0.36500  Biso   1.000  C
  C43      1.0000 0.82510  0.70640  0.34490  Biso   1.000  C
  H27      1.0000 0.84940  0.71050  0.34500  Biso   1.000  H
  C44      1.0000 0.81370  0.71660  0.32259  Biso   1.000  C
  H28      1.0000 0.83010  0.72660  0.30860  Biso   1.000  H
  C45      1.0000 0.78280  0.71280  0.32106  Biso   1.000  C
  C46      1.0000 0.76120  0.69440  0.33990  Biso   1.000  C
  H29      1.0000 0.73560  0.68540  0.33820  Biso   1.000  H
  C47      1.0000 0.77420  0.68730  0.36250  Biso   1.000  C
  H30      1.0000 0.75810  0.67850  0.37680  Biso   1.000  H
  C48      1.0000 0.77090  0.72720  0.29914  Biso   1.000  C
  C49      1.0000 0.70390  0.79670  0.20259  Biso   1.000  C
  C50      1.0000 0.68830  0.81430  0.18424  Biso   1.000  C
  C51      1.0000 0.67150  0.85240  0.16525  Biso   1.000  C
  C52      1.0000 0.65710  0.82170  0.15127  Biso   1.000  C
  C53      1.0000 0.64100  0.86200  0.13243  Biso   1.000  C
  C54      1.0000 0.74650  0.62560  0.61710  Biso   1.000  C
  C55      1.0000 0.60730  0.62520  0.23022  Biso   1.000  C
  H31      1.0000 0.62030  0.63460  0.21480  Biso   1.000  H
  C56      1.0000 0.57330  0.59120  0.22928  Biso   1.000  C
  H32      1.0000 0.56270  0.58030  0.21340  Biso   1.000  H
  C57      1.0000 0.52960  0.50620  0.72689  Biso   1.000  C
  C58      1.0000 0.49400  0.47760  0.72706  Biso   1.000  C
  H33      1.0000 0.48180  0.46750  0.71140  Biso   1.000  H
  Zn6      1.0000 0.46192  0.08505  0.58314  Biso   1.000  Zn
  Zn7      1.0000 0.38931  0.04488  0.54962  Biso   1.000  Zn
  Zn8      1.0000 0.41818  0.12592  0.57130  Biso   1.000  Zn
  Zn9      1.0000 0.38457  0.05751  0.60823  Biso   1.000  Zn
  Zn10     1.0000 0.26381  0.97454  0.21973  Biso   1.000  Zn
  S5       1.0000 0.44909  0.99418  0.50030  Biso   1.000  S
  S6       1.0000 0.51444  0.03283  0.53058  Biso   1.000  S
  H34      1.0000 0.53240  0.04750  0.54280  Biso   1.000  H
  H35      1.0000 0.41850  0.98110  0.49210  Biso   1.000  H
  C59      1.0000 0.14437  0.84030  0.19052  Biso   1.000  C
  S7       1.0000 0.21059  0.87489  0.16068  Biso   1.000  S
  H36      1.0000 0.23450  0.89180  0.15470  Biso   1.000  H
  H37      1.0000 0.12640  0.83520  0.20320  Biso   1.000  H
  C60      1.0000 0.17918  0.81323  0.12675  Biso   1.000  C
  S8       1.0000 0.11391  0.78008  0.15697  Biso   1.000  S
  H38      1.0000 0.09010  0.76420  0.16350  Biso   1.000  H
  H39      1.0000 0.19680  0.81810  0.11390  Biso   1.000  H
  O19      1.0000 0.41353  0.07840  0.57794  Biso   1.000  O
  O20      1.0000 0.42020  0.02749  0.53475  Biso   1.000  O
  O21      1.0000 0.47258  0.05763  0.55787  Biso   1.000  O
  O22      1.0000 0.46489  0.06694  0.61672  Biso   1.000  O
  O23      1.0000 0.41016  0.04700  0.63376  Biso   1.000  O
  O24      1.0000 0.34027  0.01096  0.60116  Biso   1.000  O
  O25      1.0000 0.34360  0.00235  0.56025  Biso   1.000  O
  O26      1.0000 0.37785  0.06998  0.52283  Biso   1.000  O
  O27      1.0000 0.39913  0.12543  0.53756  Biso   1.000  O
  O28      1.0000 0.46953  0.16444  0.57154  Biso   1.000  O
  O29      1.0000 0.49951  0.13591  0.58185  Biso   1.000  O
  O30      1.0000 0.39182  0.13802  0.59753  Biso   1.000  O
  O31      1.0000 0.36972  0.08977  0.62265  Biso   1.000  O
  O32      1.0000 0.18138  0.90448  0.22056  Biso   1.000  O
  O33      1.0000 0.23477  0.93111  0.19875  Biso   1.000  O
  O34      1.0000 0.26226  0.05221  0.28015  Biso   1.000  O
  O35      1.0000 0.27654  0.01669  0.30123  Biso   1.000  O
  O36      1.0000 0.30854  0.97640  0.22881  Biso   1.000  O
  C61      1.0000 0.45300  0.03730  0.53997  Biso   1.000  C
  C62      1.0000 0.47210  0.02370  0.52579  Biso   1.000  C
  C63      1.0000 0.48524  0.99103  0.49182  Biso   1.000  C
  C64      1.0000 0.49870  0.16460  0.57598  Biso   1.000  C
  C65      1.0000 0.53360  0.20020  0.57496  Biso   1.000  C
  C66      1.0000 0.56270  0.20160  0.58360  Biso   1.000  C
  H40      1.0000 0.56170  0.18090  0.59160  Biso   1.000  H
  C67      1.0000 0.59550  0.23370  0.58110  Biso   1.000  C
  H41      1.0000 0.61770  0.23380  0.58440  Biso   1.000  H
  C68      1.0000 0.59720  0.26470  0.57416  Biso   1.000  C
  C69      1.0000 0.56750  0.26300  0.56530  Biso   1.000  C
  H42      1.0000 0.56820  0.28410  0.55820  Biso   1.000  H
  C70      1.0000 0.53420  0.22930  0.56650  Biso   1.000  C
  H43      1.0000 0.51210  0.22790  0.56090  Biso   1.000  H
  C71      1.0000 0.63400  0.30090  0.57310  Biso   1.000  C
  C72      1.0000 0.63460  0.33330  0.57210  Biso   1.000  C
  H44      1.0000 0.61220  0.33340  0.57070  Biso   1.000  H
  C73      1.0000 0.44120  0.05310  0.63459  Biso   1.000  C
  C74      1.0000 0.45480  0.04340  0.65799  Biso   1.000  C
  C75      1.0000 0.43000  0.02440  0.67630  Biso   1.000  C
  H45      1.0000 0.40490  0.01610  0.67320  Biso   1.000  H
  C76      1.0000 0.44090  0.01680  0.70004  Biso   1.000  C
  H46      1.0000 0.42390  0.00380  0.71330  Biso   1.000  H
  C77      1.0000 0.47870  0.02990  0.70250  Biso   1.000  C
  C78      1.0000 0.50570  0.04950  0.68350  Biso   1.000  C
  H47      1.0000 0.53080  0.05720  0.68600  Biso   1.000  H
  C79      1.0000 0.49270  0.05680  0.66056  Biso   1.000  C
  H48      1.0000 0.50920  0.07040  0.64730  Biso   1.000  H
  C80      1.0000 0.38410  0.10220  0.52030  Biso   1.000  C
  C81      1.0000 0.37210  0.11140  0.49781  Biso   1.000  C
  C82      1.0000 0.35050  0.08740  0.47970  Biso   1.000  C
  H49      1.0000 0.34120  0.06190  0.48210  Biso   1.000  H
  C83      1.0000 0.34180  0.09970  0.45769  Biso   1.000  C
  H50      1.0000 0.32750  0.08180  0.44530  Biso   1.000  H
  C84      1.0000 0.35150  0.13370  0.45247  Biso   1.000  C
  C85      1.0000 0.37690  0.15770  0.47020  Biso   1.000  C
  H51      1.0000 0.38890  0.18320  0.46620  Biso   1.000  H
  C86      1.0000 0.38660  0.14780  0.49351  Biso   1.000  C
  H52      1.0000 0.40240  0.16580  0.50550  Biso   1.000  H
  C87      1.0000 0.34030  0.14430  0.43047  Biso   1.000  C
  C88      1.0000 0.32990  0.12350  0.40846  Biso   1.000  C
  H53      1.0000 0.32920  0.10070  0.40760  Biso   1.000  H
  C89      1.0000 0.32080  0.13700  0.38824  Biso   1.000  C
  C90      1.0000 0.31980  0.16970  0.38850  Biso   1.000  C
  H54      1.0000 0.31220  0.17760  0.37400  Biso   1.000  H
  C91      1.0000 0.33060  0.19070  0.41115  Biso   1.000  C
  C92      1.0000 0.33950  0.17860  0.43248  Biso   1.000  C
  H55      1.0000 0.34500  0.19180  0.44800  Biso   1.000  H
  C93      1.0000 0.33110  0.22570  0.41276  Biso   1.000  C
  C94      1.0000 0.33000  0.24020  0.43550  Biso   1.000  C
  H56      1.0000 0.32640  0.22660  0.45070  Biso   1.000  H
  C95      1.0000 0.33440  0.27640  0.43660  Biso   1.000  C
  H57      1.0000 0.33830  0.28850  0.45250  Biso   1.000  H
  C96      1.0000 0.33290  0.29270  0.41551  Biso   1.000  C
  C97      1.0000 0.33150  0.27690  0.39327  Biso   1.000  C
  H58      1.0000 0.33080  0.28830  0.37780  Biso   1.000  H
  C98      1.0000 0.33100  0.24330  0.39270  Biso   1.000  C
  H59      1.0000 0.33050  0.23290  0.37660  Biso   1.000  H
  C99      1.0000 0.32830  0.99358  0.58148  Biso   1.000  C
  C100     1.0000 0.30800  0.11390  0.36500  Biso   1.000  C
  C101     1.0000 0.29360  0.11870  0.34490  Biso   1.000  C
  H60      1.0000 0.28950  0.13890  0.34500  Biso   1.000  H
  C102     1.0000 0.28340  0.09710  0.32259  Biso   1.000  C
  H61      1.0000 0.27340  0.10350  0.30860  Biso   1.000  H
  C103     1.0000 0.28720  0.07000  0.32106  Biso   1.000  C
  C104     1.0000 0.30560  0.06680  0.33990  Biso   1.000  C
  H62      1.0000 0.31460  0.05020  0.33820  Biso   1.000  H
  C105     1.0000 0.31270  0.08690  0.36250  Biso   1.000  C
  H63      1.0000 0.32150  0.07960  0.37680  Biso   1.000  H
  C106     1.0000 0.27280  0.04370  0.29914  Biso   1.000  C
  C107     1.0000 0.20330  0.90720  0.20259  Biso   1.000  C
  C108     1.0000 0.18570  0.87400  0.18424  Biso   1.000  C
  C109     1.0000 0.14760  0.81910  0.16525  Biso   1.000  C
  C110     1.0000 0.17830  0.83540  0.15127  Biso   1.000  C
  C111     1.0000 0.13800  0.77900  0.13243  Biso   1.000  C
  C112     1.0000 0.37440  0.12090  0.61710  Biso   1.000  C
  C113     1.0000 0.37480  0.98210  0.23022  Biso   1.000  C
  H64      1.0000 0.36540  0.98570  0.21480  Biso   1.000  H
  C114     1.0000 0.40880  0.98210  0.22928  Biso   1.000  C
  H65      1.0000 0.41970  0.98240  0.21340  Biso   1.000  H
  C115     1.0000 0.49380  0.02340  0.72689  Biso   1.000  C
  C116     1.0000 0.52240  0.01640  0.72706  Biso   1.000  C
  H66      1.0000 0.53250  0.01430  0.71140  Biso   1.000  H
  Zn11     1.0000 0.91495  0.37687  0.58314  Biso   1.000  Zn
  Zn12     1.0000 0.95512  0.34443  0.54962  Biso   1.000  Zn
  Zn13     1.0000 0.87408  0.29226  0.57130  Biso   1.000  Zn
  Zn14     1.0000 0.94249  0.32706  0.60823  Biso   1.000  Zn
  Zn15     1.0000 0.02546  0.28927  0.21973  Biso   1.000  Zn
  S9       1.0000 0.00582  0.45491  0.50030  Biso   1.000  S
  S10      1.0000 0.96717  0.48161  0.53058  Biso   1.000  S
  H67      1.0000 0.95250  0.48490  0.54280  Biso   1.000  H
  H68      1.0000 0.01890  0.43740  0.49210  Biso   1.000  H
  C117     1.0000 0.15970  0.30407  0.19052  Biso   1.000  C
  S11      1.0000 0.12511  0.33570  0.16068  Biso   1.000  S
  H69      1.0000 0.10820  0.34270  0.15470  Biso   1.000  H
  H70      1.0000 0.16480  0.29120  0.20320  Biso   1.000  H
  C118     1.0000 0.18677  0.36595  0.12675  Biso   1.000  C
  S12      1.0000 0.21992  0.33383  0.15697  Biso   1.000  S
  H71      1.0000 0.23580  0.32590  0.16350  Biso   1.000  H
  H72      1.0000 0.18190  0.37870  0.11390  Biso   1.000  H
  O37      1.0000 0.92160  0.33513  0.57794  Biso   1.000  O
  O38      1.0000 0.97251  0.39271  0.53475  Biso   1.000  O
  O39      1.0000 0.94237  0.41495  0.55787  Biso   1.000  O
  O40      1.0000 0.93306  0.39795  0.61672  Biso   1.000  O
  O41      1.0000 0.95300  0.36316  0.63376  Biso   1.000  O
  O42      1.0000 0.98904  0.32931  0.60116  Biso   1.000  O
  O43      1.0000 0.99765  0.34125  0.56025  Biso   1.000  O
  O44      1.0000 0.93002  0.30787  0.52283  Biso   1.000  O
  O45      1.0000 0.87457  0.27370  0.53756  Biso   1.000  O
  O46      1.0000 0.83556  0.30509  0.57154  Biso   1.000  O
  O47      1.0000 0.86409  0.36360  0.58185  Biso   1.000  O
  O48      1.0000 0.86198  0.25380  0.59753  Biso   1.000  O
  O49      1.0000 0.91023  0.27995  0.62265  Biso   1.000  O
  O50      1.0000 0.09552  0.27690  0.22056  Biso   1.000  O
  O51      1.0000 0.06889  0.30366  0.19875  Biso   1.000  O
  O52      1.0000 0.94779  0.21005  0.28015  Biso   1.000  O
  O53      1.0000 0.98331  0.25985  0.30123  Biso   1.000  O
  O54      1.0000 0.02360  0.33214  0.22881  Biso   1.000  O
  C119     1.0000 0.96270  0.41570  0.53997  Biso   1.000  C
  C120     1.0000 0.97630  0.44840  0.52579  Biso   1.000  C
  C121     1.0000 0.00897  0.49421  0.49182  Biso   1.000  C
  C122     1.0000 0.83540  0.33410  0.57598  Biso   1.000  C
  C123     1.0000 0.79980  0.33340  0.57496  Biso   1.000  C
  C124     1.0000 0.79840  0.36110  0.58360  Biso   1.000  C
  H73      1.0000 0.81910  0.38080  0.59160  Biso   1.000  H
  C125     1.0000 0.76630  0.36180  0.58110  Biso   1.000  C
  H74      1.0000 0.76620  0.38390  0.58440  Biso   1.000  H
  C126     1.0000 0.73530  0.33250  0.57416  Biso   1.000  C
  C127     1.0000 0.73700  0.30450  0.56530  Biso   1.000  C
  H75      1.0000 0.71590  0.28410  0.55820  Biso   1.000  H
  C128     1.0000 0.77070  0.30490  0.56650  Biso   1.000  C
  H76      1.0000 0.77210  0.28420  0.56090  Biso   1.000  H
  C129     1.0000 0.69910  0.33310  0.57310  Biso   1.000  C
  C130     1.0000 0.66670  0.30130  0.57210  Biso   1.000  C
  H77      1.0000 0.66660  0.27880  0.57070  Biso   1.000  H
  C131     1.0000 0.94690  0.38810  0.63459  Biso   1.000  C
  C132     1.0000 0.95660  0.41140  0.65799  Biso   1.000  C
  C133     1.0000 0.97560  0.40560  0.67630  Biso   1.000  C
  H78      1.0000 0.98390  0.38880  0.67320  Biso   1.000  H
  C134     1.0000 0.98320  0.42410  0.70004  Biso   1.000  C
  H79      1.0000 0.99620  0.42010  0.71330  Biso   1.000  H
  C135     1.0000 0.97010  0.44880  0.70250  Biso   1.000  C
  C136     1.0000 0.95050  0.45620  0.68350  Biso   1.000  C
  H80      1.0000 0.94280  0.47360  0.68600  Biso   1.000  H
  C137     1.0000 0.94320  0.43590  0.66056  Biso   1.000  C
  H81      1.0000 0.92960  0.43880  0.64730  Biso   1.000  H
  C138     1.0000 0.89780  0.28190  0.52030  Biso   1.000  C
  C139     1.0000 0.88860  0.26070  0.49781  Biso   1.000  C
  C140     1.0000 0.91260  0.26310  0.47970  Biso   1.000  C
  H82      1.0000 0.93810  0.27930  0.48210  Biso   1.000  H
  C141     1.0000 0.90030  0.24210  0.45769  Biso   1.000  C
  H83      1.0000 0.91820  0.24570  0.44530  Biso   1.000  H
  C142     1.0000 0.86630  0.21780  0.45247  Biso   1.000  C
  C143     1.0000 0.84230  0.21920  0.47020  Biso   1.000  C
  H84      1.0000 0.81680  0.20570  0.46620  Biso   1.000  H
  C144     1.0000 0.85220  0.23880  0.49351  Biso   1.000  C
  H85      1.0000 0.83420  0.23660  0.50550  Biso   1.000  H
  C145     1.0000 0.85570  0.19600  0.43047  Biso   1.000  C
  C146     1.0000 0.87650  0.20640  0.40846  Biso   1.000  C
  H86      1.0000 0.89930  0.22850  0.40760  Biso   1.000  H
  C147     1.0000 0.86300  0.18380  0.38824  Biso   1.000  C
  C148     1.0000 0.83030  0.15010  0.38850  Biso   1.000  C
  H87      1.0000 0.82240  0.13460  0.37400  Biso   1.000  H
  C149     1.0000 0.80930  0.13990  0.41115  Biso   1.000  C
  C150     1.0000 0.82140  0.16090  0.43248  Biso   1.000  C
  H88      1.0000 0.80820  0.15320  0.44800  Biso   1.000  H
  C151     1.0000 0.77430  0.10540  0.41276  Biso   1.000  C
  C152     1.0000 0.75980  0.08980  0.43550  Biso   1.000  C
  H89      1.0000 0.77340  0.09980  0.45070  Biso   1.000  H
  C153     1.0000 0.72360  0.05800  0.43660  Biso   1.000  C
  H90      1.0000 0.71150  0.04980  0.45250  Biso   1.000  H
  C154     1.0000 0.70730  0.04020  0.41551  Biso   1.000  C
  C155     1.0000 0.72310  0.05460  0.39327  Biso   1.000  C
  H91      1.0000 0.71170  0.04250  0.37780  Biso   1.000  H
  C156     1.0000 0.75670  0.08770  0.39270  Biso   1.000  C
  H92      1.0000 0.76710  0.09760  0.37660  Biso   1.000  H
  C157     1.0000 0.00642  0.33472  0.58148  Biso   1.000  C
  C158     1.0000 0.88610  0.19410  0.36500  Biso   1.000  C
  C159     1.0000 0.88130  0.17490  0.34490  Biso   1.000  C
  H93      1.0000 0.86110  0.15060  0.34500  Biso   1.000  H
  C160     1.0000 0.90290  0.18630  0.32259  Biso   1.000  C
  H94      1.0000 0.89650  0.16990  0.30860  Biso   1.000  H
  C161     1.0000 0.93000  0.21720  0.32106  Biso   1.000  C
  C162     1.0000 0.93320  0.23880  0.33990  Biso   1.000  C
  H95      1.0000 0.94980  0.26440  0.33820  Biso   1.000  H
  C163     1.0000 0.91310  0.22580  0.36250  Biso   1.000  C
  H96      1.0000 0.92040  0.24190  0.37680  Biso   1.000  H
  C164     1.0000 0.95630  0.22910  0.29914  Biso   1.000  C
  C165     1.0000 0.09280  0.29610  0.20259  Biso   1.000  C
  C166     1.0000 0.12600  0.31170  0.18424  Biso   1.000  C
  C167     1.0000 0.18090  0.32850  0.16525  Biso   1.000  C
  C168     1.0000 0.16460  0.34290  0.15127  Biso   1.000  C
  C169     1.0000 0.22100  0.35900  0.13243  Biso   1.000  C
  C170     1.0000 0.87910  0.25350  0.61710  Biso   1.000  C
  C171     1.0000 0.01790  0.39270  0.23022  Biso   1.000  C
  H97      1.0000 0.01430  0.37970  0.21480  Biso   1.000  H
  C172     1.0000 0.01790  0.42670  0.22928  Biso   1.000  C
  H98      1.0000 0.01760  0.43730  0.21340  Biso   1.000  H
  C173     1.0000 0.97660  0.47040  0.72689  Biso   1.000  C
  C174     1.0000 0.98360  0.50600  0.72706  Biso   1.000  C
  H99      1.0000 0.98570  0.51820  0.71140  Biso   1.000  H
  Zn16     1.0000 0.37687  0.46192  0.08314  Biso   1.000  Zn
  Zn17     1.0000 0.34443  0.38931  0.04962  Biso   1.000  Zn
  Zn18     1.0000 0.29226  0.41818  0.07130  Biso   1.000  Zn
  Zn19     1.0000 0.32706  0.38457  0.10823  Biso   1.000  Zn
  Zn20     1.0000 0.28927  0.26381  0.71973  Biso   1.000  Zn
  S13      1.0000 0.45491  0.44909  0.00030  Biso   1.000  S
  S14      1.0000 0.48161  0.51444  0.03058  Biso   1.000  S
  H100     1.0000 0.48490  0.53240  0.04280  Biso   1.000  H
  H101     1.0000 0.43740  0.41850  0.99210  Biso   1.000  H
  C175     1.0000 0.30407  0.14437  0.69052  Biso   1.000  C
  S15      1.0000 0.33570  0.21059  0.66068  Biso   1.000  S
  H102     1.0000 0.34270  0.23450  0.65470  Biso   1.000  H
  H103     1.0000 0.29120  0.12640  0.70320  Biso   1.000  H
  C176     1.0000 0.36595  0.17918  0.62675  Biso   1.000  C
  S16      1.0000 0.33383  0.11391  0.65697  Biso   1.000  S
  H104     1.0000 0.32590  0.09010  0.66350  Biso   1.000  H
  H105     1.0000 0.37870  0.19680  0.61390  Biso   1.000  H
  O55      1.0000 0.33513  0.41353  0.07794  Biso   1.000  O
  O56      1.0000 0.39271  0.42020  0.03475  Biso   1.000  O
  O57      1.0000 0.41495  0.47258  0.05787  Biso   1.000  O
  O58      1.0000 0.39795  0.46489  0.11672  Biso   1.000  O
  O59      1.0000 0.36316  0.41016  0.13376  Biso   1.000  O
  O60      1.0000 0.32931  0.34027  0.10116  Biso   1.000  O
  O61      1.0000 0.34125  0.34360  0.06025  Biso   1.000  O
  O62      1.0000 0.30787  0.37785  0.02283  Biso   1.000  O
  O63      1.0000 0.27370  0.39913  0.03756  Biso   1.000  O
  O64      1.0000 0.30509  0.46953  0.07154  Biso   1.000  O
  O65      1.0000 0.36360  0.49951  0.08185  Biso   1.000  O
  O66      1.0000 0.25380  0.39182  0.09753  Biso   1.000  O
  O67      1.0000 0.27995  0.36972  0.12265  Biso   1.000  O
  O68      1.0000 0.27690  0.18138  0.72056  Biso   1.000  O
  O69      1.0000 0.30366  0.23477  0.69875  Biso   1.000  O
  O70      1.0000 0.21005  0.26226  0.78015  Biso   1.000  O
  O71      1.0000 0.25985  0.27654  0.80123  Biso   1.000  O
  O72      1.0000 0.33214  0.30854  0.72881  Biso   1.000  O
  C177     1.0000 0.41570  0.45300  0.03997  Biso   1.000  C
  C178     1.0000 0.44840  0.47210  0.02579  Biso   1.000  C
  C179     1.0000 0.49421  0.48524  0.99182  Biso   1.000  C
  C180     1.0000 0.33410  0.49870  0.07598  Biso   1.000  C
  C181     1.0000 0.33340  0.53360  0.07496  Biso   1.000  C
  C182     1.0000 0.36110  0.56270  0.08360  Biso   1.000  C
  H106     1.0000 0.38080  0.56170  0.09160  Biso   1.000  H
  C183     1.0000 0.36180  0.59550  0.08110  Biso   1.000  C
  H107     1.0000 0.38390  0.61770  0.08440  Biso   1.000  H
  C184     1.0000 0.33250  0.59720  0.07416  Biso   1.000  C
  C185     1.0000 0.30450  0.56750  0.06530  Biso   1.000  C
  H108     1.0000 0.28410  0.56820  0.05820  Biso   1.000  H
  C186     1.0000 0.30490  0.53420  0.06650  Biso   1.000  C
  H109     1.0000 0.28420  0.51210  0.06090  Biso   1.000  H
  C187     1.0000 0.33310  0.63400  0.07310  Biso   1.000  C
  C188     1.0000 0.30130  0.63460  0.07210  Biso   1.000  C
  H110     1.0000 0.27880  0.61220  0.07070  Biso   1.000  H
  C189     1.0000 0.38810  0.44120  0.13459  Biso   1.000  C
  C190     1.0000 0.41140  0.45480  0.15799  Biso   1.000  C
  C191     1.0000 0.40560  0.43000  0.17630  Biso   1.000  C
  H111     1.0000 0.38880  0.40490  0.17320  Biso   1.000  H
  C192     1.0000 0.42410  0.44090  0.20004  Biso   1.000  C
  H112     1.0000 0.42010  0.42390  0.21330  Biso   1.000  H
  C193     1.0000 0.44880  0.47870  0.20250  Biso   1.000  C
  C194     1.0000 0.45620  0.50570  0.18350  Biso   1.000  C
  H113     1.0000 0.47360  0.53080  0.18600  Biso   1.000  H
  C195     1.0000 0.43590  0.49270  0.16056  Biso   1.000  C
  H114     1.0000 0.43880  0.50920  0.14730  Biso   1.000  H
  C196     1.0000 0.28190  0.38410  0.02030  Biso   1.000  C
  C197     1.0000 0.26070  0.37210  0.99781  Biso   1.000  C
  C198     1.0000 0.26310  0.35050  0.97970  Biso   1.000  C
  H115     1.0000 0.27930  0.34120  0.98210  Biso   1.000  H
  C199     1.0000 0.24210  0.34180  0.95769  Biso   1.000  C
  H116     1.0000 0.24570  0.32750  0.94530  Biso   1.000  H
  C200     1.0000 0.21780  0.35150  0.95247  Biso   1.000  C
  C201     1.0000 0.21920  0.37690  0.97020  Biso   1.000  C
  H117     1.0000 0.20570  0.38890  0.96620  Biso   1.000  H
  C202     1.0000 0.23880  0.38660  0.99351  Biso   1.000  C
  H118     1.0000 0.23660  0.40240  0.00550  Biso   1.000  H
  C203     1.0000 0.19600  0.34030  0.93047  Biso   1.000  C
  C204     1.0000 0.20640  0.32990  0.90846  Biso   1.000  C
  H119     1.0000 0.22850  0.32920  0.90760  Biso   1.000  H
  C205     1.0000 0.18380  0.32080  0.88824  Biso   1.000  C
  C206     1.0000 0.15010  0.31980  0.88850  Biso   1.000  C
  H120     1.0000 0.13460  0.31220  0.87400  Biso   1.000  H
  C207     1.0000 0.13990  0.33060  0.91115  Biso   1.000  C
  C208     1.0000 0.16090  0.33950  0.93248  Biso   1.000  C
  H121     1.0000 0.15320  0.34500  0.94800  Biso   1.000  H
  C209     1.0000 0.10540  0.33110  0.91276  Biso   1.000  C
  C210     1.0000 0.08980  0.33000  0.93550  Biso   1.000  C
  H122     1.0000 0.09980  0.32640  0.95070  Biso   1.000  H
  C211     1.0000 0.05800  0.33440  0.93660  Biso   1.000  C
  H123     1.0000 0.04980  0.33830  0.95250  Biso   1.000  H
  C212     1.0000 0.04020  0.33290  0.91551  Biso   1.000  C
  C213     1.0000 0.05460  0.33150  0.89327  Biso   1.000  C
  H124     1.0000 0.04250  0.33080  0.87780  Biso   1.000  H
  C214     1.0000 0.08770  0.33100  0.89270  Biso   1.000  C
  H125     1.0000 0.09760  0.33050  0.87660  Biso   1.000  H
  C215     1.0000 0.33472  0.32830  0.08148  Biso   1.000  C
  C216     1.0000 0.19410  0.30800  0.86500  Biso   1.000  C
  C217     1.0000 0.17490  0.29360  0.84490  Biso   1.000  C
  H126     1.0000 0.15060  0.28950  0.84500  Biso   1.000  H
  C218     1.0000 0.18630  0.28340  0.82259  Biso   1.000  C
  H127     1.0000 0.16990  0.27340  0.80860  Biso   1.000  H
  C219     1.0000 0.21720  0.28720  0.82106  Biso   1.000  C
  C220     1.0000 0.23880  0.30560  0.83990  Biso   1.000  C
  H128     1.0000 0.26440  0.31460  0.83820  Biso   1.000  H
  C221     1.0000 0.22580  0.31270  0.86250  Biso   1.000  C
  H129     1.0000 0.24190  0.32150  0.87680  Biso   1.000  H
  C222     1.0000 0.22910  0.27280  0.79914  Biso   1.000  C
  C223     1.0000 0.29610  0.20330  0.70259  Biso   1.000  C
  C224     1.0000 0.31170  0.18570  0.68424  Biso   1.000  C
  C225     1.0000 0.32850  0.14760  0.66525  Biso   1.000  C
  C226     1.0000 0.34290  0.17830  0.65127  Biso   1.000  C
  C227     1.0000 0.35900  0.13800  0.63243  Biso   1.000  C
  C228     1.0000 0.25350  0.37440  0.11710  Biso   1.000  C
  C229     1.0000 0.39270  0.37480  0.73022  Biso   1.000  C
  H130     1.0000 0.37970  0.36540  0.71480  Biso   1.000  H
  C230     1.0000 0.42670  0.40880  0.72928  Biso   1.000  C
  H131     1.0000 0.43730  0.41970  0.71340  Biso   1.000  H
  C231     1.0000 0.47040  0.49380  0.22689  Biso   1.000  C
  C232     1.0000 0.50600  0.52240  0.22706  Biso   1.000  C
  H132     1.0000 0.51820  0.53250  0.21140  Biso   1.000  H
  Zn21     1.0000 0.53808  0.91495  0.08314  Biso   1.000  Zn
  Zn22     1.0000 0.61069  0.95512  0.04962  Biso   1.000  Zn
  Zn23     1.0000 0.58182  0.87408  0.07130  Biso   1.000  Zn
  Zn24     1.0000 0.61543  0.94249  0.10823  Biso   1.000  Zn
  Zn25     1.0000 0.73619  0.02546  0.71973  Biso   1.000  Zn
  S17      1.0000 0.55091  0.00582  0.00030  Biso   1.000  S
  S18      1.0000 0.48556  0.96717  0.03058  Biso   1.000  S
  H133     1.0000 0.46760  0.95250  0.04280  Biso   1.000  H
  H134     1.0000 0.58150  0.01890  0.99210  Biso   1.000  H
  C233     1.0000 0.85563  0.15970  0.69052  Biso   1.000  C
  S19      1.0000 0.78941  0.12511  0.66068  Biso   1.000  S
  H135     1.0000 0.76550  0.10820  0.65470  Biso   1.000  H
  H136     1.0000 0.87360  0.16480  0.70320  Biso   1.000  H
  C234     1.0000 0.82082  0.18677  0.62675  Biso   1.000  C
  S20      1.0000 0.88609  0.21992  0.65697  Biso   1.000  S
  H137     1.0000 0.90990  0.23580  0.66350  Biso   1.000  H
  H138     1.0000 0.80320  0.18190  0.61390  Biso   1.000  H
  O73      1.0000 0.58647  0.92160  0.07794  Biso   1.000  O
  O74      1.0000 0.57980  0.97251  0.03475  Biso   1.000  O
  O75      1.0000 0.52742  0.94237  0.05787  Biso   1.000  O
  O76      1.0000 0.53511  0.93306  0.11672  Biso   1.000  O
  O77      1.0000 0.58984  0.95300  0.13376  Biso   1.000  O
  O78      1.0000 0.65973  0.98904  0.10116  Biso   1.000  O
  O79      1.0000 0.65640  0.99765  0.06025  Biso   1.000  O
  O80      1.0000 0.62215  0.93002  0.02283  Biso   1.000  O
  O81      1.0000 0.60087  0.87457  0.03756  Biso   1.000  O
  O82      1.0000 0.53047  0.83556  0.07154  Biso   1.000  O
  O83      1.0000 0.50049  0.86409  0.08185  Biso   1.000  O
  O84      1.0000 0.60818  0.86198  0.09753  Biso   1.000  O
  O85      1.0000 0.63028  0.91023  0.12265  Biso   1.000  O
  O86      1.0000 0.81862  0.09552  0.72056  Biso   1.000  O
  O87      1.0000 0.76523  0.06889  0.69875  Biso   1.000  O
  O88      1.0000 0.73774  0.94779  0.78015  Biso   1.000  O
  O89      1.0000 0.72346  0.98331  0.80123  Biso   1.000  O
  O90      1.0000 0.69146  0.02360  0.72881  Biso   1.000  O
  C235     1.0000 0.54700  0.96270  0.03997  Biso   1.000  C
  C236     1.0000 0.52790  0.97630  0.02579  Biso   1.000  C
  C237     1.0000 0.51476  0.00897  0.99182  Biso   1.000  C
  C238     1.0000 0.50130  0.83540  0.07598  Biso   1.000  C
  C239     1.0000 0.46640  0.79980  0.07496  Biso   1.000  C
  C240     1.0000 0.43730  0.79840  0.08360  Biso   1.000  C
  H139     1.0000 0.43830  0.81910  0.09160  Biso   1.000  H
  C241     1.0000 0.40450  0.76630  0.08110  Biso   1.000  C
  H140     1.0000 0.38230  0.76620  0.08440  Biso   1.000  H
  C242     1.0000 0.40280  0.73530  0.07416  Biso   1.000  C
  C243     1.0000 0.43250  0.73700  0.06530  Biso   1.000  C
  H141     1.0000 0.43180  0.71590  0.05820  Biso   1.000  H
  C244     1.0000 0.46580  0.77070  0.06650  Biso   1.000  C
  H142     1.0000 0.48790  0.77210  0.06090  Biso   1.000  H
  C245     1.0000 0.36600  0.69910  0.07310  Biso   1.000  C
  C246     1.0000 0.36540  0.66670  0.07210  Biso   1.000  C
  H143     1.0000 0.38780  0.66660  0.07070  Biso   1.000  H
  C247     1.0000 0.55880  0.94690  0.13459  Biso   1.000  C
  C248     1.0000 0.54520  0.95660  0.15799  Biso   1.000  C
  C249     1.0000 0.57000  0.97560  0.17630  Biso   1.000  C
  H144     1.0000 0.59510  0.98390  0.17320  Biso   1.000  H
  C250     1.0000 0.55910  0.98320  0.20004  Biso   1.000  C
  H145     1.0000 0.57610  0.99620  0.21330  Biso   1.000  H
  C251     1.0000 0.52130  0.97010  0.20250  Biso   1.000  C
  C252     1.0000 0.49430  0.95050  0.18350  Biso   1.000  C
  H146     1.0000 0.46920  0.94280  0.18600  Biso   1.000  H
  C253     1.0000 0.50730  0.94320  0.16056  Biso   1.000  C
  H147     1.0000 0.49080  0.92960  0.14730  Biso   1.000  H
  C254     1.0000 0.61590  0.89780  0.02030  Biso   1.000  C
  C255     1.0000 0.62790  0.88860  0.99781  Biso   1.000  C
  C256     1.0000 0.64950  0.91260  0.97970  Biso   1.000  C
  H148     1.0000 0.65880  0.93810  0.98210  Biso   1.000  H
  C257     1.0000 0.65820  0.90030  0.95769  Biso   1.000  C
  H149     1.0000 0.67250  0.91820  0.94530  Biso   1.000  H
  C258     1.0000 0.64850  0.86630  0.95247  Biso   1.000  C
  C259     1.0000 0.62310  0.84230  0.97020  Biso   1.000  C
  H150     1.0000 0.61110  0.81680  0.96620  Biso   1.000  H
  C260     1.0000 0.61340  0.85220  0.99351  Biso   1.000  C
  H151     1.0000 0.59760  0.83420  0.00550  Biso   1.000  H
  C261     1.0000 0.65970  0.85570  0.93047  Biso   1.000  C
  C262     1.0000 0.67010  0.87650  0.90846  Biso   1.000  C
  H152     1.0000 0.67080  0.89930  0.90760  Biso   1.000  H
  C263     1.0000 0.67920  0.86300  0.88824  Biso   1.000  C
  C264     1.0000 0.68020  0.83030  0.88850  Biso   1.000  C
  H153     1.0000 0.68780  0.82240  0.87400  Biso   1.000  H
  C265     1.0000 0.66940  0.80930  0.91115  Biso   1.000  C
  C266     1.0000 0.66050  0.82140  0.93248  Biso   1.000  C
  H154     1.0000 0.65500  0.80820  0.94800  Biso   1.000  H
  C267     1.0000 0.66890  0.77430  0.91276  Biso   1.000  C
  C268     1.0000 0.67000  0.75980  0.93550  Biso   1.000  C
  H155     1.0000 0.67360  0.77340  0.95070  Biso   1.000  H
  C269     1.0000 0.66560  0.72360  0.93660  Biso   1.000  C
  H156     1.0000 0.66170  0.71150  0.95250  Biso   1.000  H
  C270     1.0000 0.66710  0.70730  0.91551  Biso   1.000  C
  C271     1.0000 0.66850  0.72310  0.89327  Biso   1.000  C
  H157     1.0000 0.66920  0.71170  0.87780  Biso   1.000  H
  C272     1.0000 0.66900  0.75670  0.89270  Biso   1.000  C
  H158     1.0000 0.66950  0.76710  0.87660  Biso   1.000  H
  C273     1.0000 0.67170  0.00642  0.08148  Biso   1.000  C
  C274     1.0000 0.69200  0.88610  0.86500  Biso   1.000  C
  C275     1.0000 0.70640  0.88130  0.84490  Biso   1.000  C
  H159     1.0000 0.71050  0.86110  0.84500  Biso   1.000  H
  C276     1.0000 0.71660  0.90290  0.82259  Biso   1.000  C
  H160     1.0000 0.72660  0.89650  0.80860  Biso   1.000  H
  C277     1.0000 0.71280  0.93000  0.82106  Biso   1.000  C
  C278     1.0000 0.69440  0.93320  0.83990  Biso   1.000  C
  H161     1.0000 0.68540  0.94980  0.83820  Biso   1.000  H
  C279     1.0000 0.68730  0.91310  0.86250  Biso   1.000  C
  H162     1.0000 0.67850  0.92040  0.87680  Biso   1.000  H
  C280     1.0000 0.72720  0.95630  0.79914  Biso   1.000  C
  C281     1.0000 0.79670  0.09280  0.70259  Biso   1.000  C
  C282     1.0000 0.81430  0.12600  0.68424  Biso   1.000  C
  C283     1.0000 0.85240  0.18090  0.66525  Biso   1.000  C
  C284     1.0000 0.82170  0.16460  0.65127  Biso   1.000  C
  C285     1.0000 0.86200  0.22100  0.63243  Biso   1.000  C
  C286     1.0000 0.62560  0.87910  0.11710  Biso   1.000  C
  C287     1.0000 0.62520  0.01790  0.73022  Biso   1.000  C
  H163     1.0000 0.63460  0.01430  0.71480  Biso   1.000  H
  C288     1.0000 0.59120  0.01790  0.72928  Biso   1.000  C
  H164     1.0000 0.58030  0.01760  0.71340  Biso   1.000  H
  C289     1.0000 0.50620  0.97660  0.22689  Biso   1.000  C
  C290     1.0000 0.47760  0.98360  0.22706  Biso   1.000  C
  H165     1.0000 0.46750  0.98570  0.21140  Biso   1.000  H
  Zn26     1.0000 0.08505  0.62313  0.08314  Biso   1.000  Zn
  Zn27     1.0000 0.04488  0.65557  0.04962  Biso   1.000  Zn
  Zn28     1.0000 0.12592  0.70774  0.07130  Biso   1.000  Zn
  Zn29     1.0000 0.05751  0.67294  0.10823  Biso   1.000  Zn
  Zn30     1.0000 0.97454  0.71073  0.71973  Biso   1.000  Zn
  S21      1.0000 0.99418  0.54509  0.00030  Biso   1.000  S
  S22      1.0000 0.03283  0.51839  0.03058  Biso   1.000  S
  H166     1.0000 0.04750  0.51510  0.04280  Biso   1.000  H
  H167     1.0000 0.98110  0.56260  0.99210  Biso   1.000  H
  C291     1.0000 0.84030  0.69593  0.69052  Biso   1.000  C
  S23      1.0000 0.87489  0.66430  0.66068  Biso   1.000  S
  H168     1.0000 0.89180  0.65730  0.65470  Biso   1.000  H
  H169     1.0000 0.83520  0.70880  0.70320  Biso   1.000  H
  C292     1.0000 0.81323  0.63405  0.62675  Biso   1.000  C
  S24      1.0000 0.78008  0.66617  0.65697  Biso   1.000  S
  H170     1.0000 0.76420  0.67410  0.66350  Biso   1.000  H
  H171     1.0000 0.81810  0.62130  0.61390  Biso   1.000  H
  O91      1.0000 0.07840  0.66487  0.07794  Biso   1.000  O
  O92      1.0000 0.02749  0.60729  0.03475  Biso   1.000  O
  O93      1.0000 0.05763  0.58505  0.05787  Biso   1.000  O
  O94      1.0000 0.06694  0.60205  0.11672  Biso   1.000  O
  O95      1.0000 0.04700  0.63684  0.13376  Biso   1.000  O
  O96      1.0000 0.01096  0.67069  0.10116  Biso   1.000  O
  O97      1.0000 0.00235  0.65875  0.06025  Biso   1.000  O
  O98      1.0000 0.06998  0.69213  0.02283  Biso   1.000  O
  O99      1.0000 0.12543  0.72630  0.03756  Biso   1.000  O
  O100     1.0000 0.16444  0.69491  0.07154  Biso   1.000  O
  O101     1.0000 0.13591  0.63640  0.08185  Biso   1.000  O
  O102     1.0000 0.13802  0.74620  0.09753  Biso   1.000  O
  O103     1.0000 0.08977  0.72005  0.12265  Biso   1.000  O
  O104     1.0000 0.90448  0.72310  0.72056  Biso   1.000  O
  O105     1.0000 0.93111  0.69634  0.69875  Biso   1.000  O
  O106     1.0000 0.05221  0.78995  0.78015  Biso   1.000  O
  O107     1.0000 0.01669  0.74015  0.80123  Biso   1.000  O
  O108     1.0000 0.97640  0.66786  0.72881  Biso   1.000  O
  C293     1.0000 0.03730  0.58430  0.03997  Biso   1.000  C
  C294     1.0000 0.02370  0.55160  0.02579  Biso   1.000  C
  C295     1.0000 0.99103  0.50579  0.99182  Biso   1.000  C
  C296     1.0000 0.16460  0.66590  0.07598  Biso   1.000  C
  C297     1.0000 0.20020  0.66660  0.07496  Biso   1.000  C
  C298     1.0000 0.20160  0.63890  0.08360  Biso   1.000  C
  H172     1.0000 0.18090  0.61920  0.09160  Biso   1.000  H
  C299     1.0000 0.23370  0.63820  0.08110  Biso   1.000  C
  H173     1.0000 0.23380  0.61610  0.08440  Biso   1.000  H
  C300     1.0000 0.26470  0.66750  0.07416  Biso   1.000  C
  C301     1.0000 0.26300  0.69550  0.06530  Biso   1.000  C
  H174     1.0000 0.28410  0.71590  0.05820  Biso   1.000  H
  C302     1.0000 0.22930  0.69510  0.06650  Biso   1.000  C
  H175     1.0000 0.22790  0.71580  0.06090  Biso   1.000  H
  C303     1.0000 0.30090  0.66690  0.07310  Biso   1.000  C
  C304     1.0000 0.33330  0.69870  0.07210  Biso   1.000  C
  H176     1.0000 0.33340  0.72120  0.07070  Biso   1.000  H
  C305     1.0000 0.05310  0.61190  0.13459  Biso   1.000  C
  C306     1.0000 0.04340  0.58860  0.15799  Biso   1.000  C
  C307     1.0000 0.02440  0.59440  0.17630  Biso   1.000  C
  H177     1.0000 0.01610  0.61120  0.17320  Biso   1.000  H
  C308     1.0000 0.01680  0.57590  0.20004  Biso   1.000  C
  H178     1.0000 0.00380  0.57990  0.21330  Biso   1.000  H
  C309     1.0000 0.02990  0.55120  0.20250  Biso   1.000  C
  C310     1.0000 0.04950  0.54380  0.18350  Biso   1.000  C
  H179     1.0000 0.05720  0.52640  0.18600  Biso   1.000  H
  C311     1.0000 0.05680  0.56410  0.16056  Biso   1.000  C
  H180     1.0000 0.07040  0.56120  0.14730  Biso   1.000  H
  C312     1.0000 0.10220  0.71810  0.02030  Biso   1.000  C
  C313     1.0000 0.11140  0.73930  0.99781  Biso   1.000  C
  C314     1.0000 0.08740  0.73690  0.97970  Biso   1.000  C
  H181     1.0000 0.06190  0.72070  0.98210  Biso   1.000  H
  C315     1.0000 0.09970  0.75790  0.95769  Biso   1.000  C
  H182     1.0000 0.08180  0.75430  0.94530  Biso   1.000  H
  C316     1.0000 0.13370  0.78220  0.95247  Biso   1.000  C
  C317     1.0000 0.15770  0.78080  0.97020  Biso   1.000  C
  H183     1.0000 0.18320  0.79430  0.96620  Biso   1.000  H
  C318     1.0000 0.14780  0.76120  0.99351  Biso   1.000  C
  H184     1.0000 0.16580  0.76340  0.00550  Biso   1.000  H
  C319     1.0000 0.14430  0.80400  0.93047  Biso   1.000  C
  C320     1.0000 0.12350  0.79360  0.90846  Biso   1.000  C
  H185     1.0000 0.10070  0.77150  0.90760  Biso   1.000  H
  C321     1.0000 0.13700  0.81620  0.88824  Biso   1.000  C
  C322     1.0000 0.16970  0.84990  0.88850  Biso   1.000  C
  H186     1.0000 0.17760  0.86540  0.87400  Biso   1.000  H
  C323     1.0000 0.19070  0.86010  0.91115  Biso   1.000  C
  C324     1.0000 0.17860  0.83910  0.93248  Biso   1.000  C
  H187     1.0000 0.19180  0.84680  0.94800  Biso   1.000  H
  C325     1.0000 0.22570  0.89460  0.91276  Biso   1.000  C
  C326     1.0000 0.24020  0.91020  0.93550  Biso   1.000  C
  H188     1.0000 0.22660  0.90020  0.95070  Biso   1.000  H
  C327     1.0000 0.27640  0.94200  0.93660  Biso   1.000  C
  H189     1.0000 0.28850  0.95020  0.95250  Biso   1.000  H
  C328     1.0000 0.29270  0.95980  0.91551  Biso   1.000  C
  C329     1.0000 0.27690  0.94540  0.89327  Biso   1.000  C
  H190     1.0000 0.28830  0.95750  0.87780  Biso   1.000  H
  C330     1.0000 0.24330  0.91230  0.89270  Biso   1.000  C
  H191     1.0000 0.23290  0.90240  0.87660  Biso   1.000  H
  C331     1.0000 0.99358  0.66528  0.08148  Biso   1.000  C
  C332     1.0000 0.11390  0.80590  0.86500  Biso   1.000  C
  C333     1.0000 0.11870  0.82510  0.84490  Biso   1.000  C
  H192     1.0000 0.13890  0.84940  0.84500  Biso   1.000  H
  C334     1.0000 0.09710  0.81370  0.82259  Biso   1.000  C
  H193     1.0000 0.10350  0.83010  0.80860  Biso   1.000  H
  C335     1.0000 0.07000  0.78280  0.82106  Biso   1.000  C
  C336     1.0000 0.06680  0.76120  0.83990  Biso   1.000  C
  H194     1.0000 0.05020  0.73560  0.83820  Biso   1.000  H
  C337     1.0000 0.08690  0.77420  0.86250  Biso   1.000  C
  H195     1.0000 0.07960  0.75810  0.87680  Biso   1.000  H
  C338     1.0000 0.04370  0.77090  0.79914  Biso   1.000  C
  C339     1.0000 0.90720  0.70390  0.70259  Biso   1.000  C
  C340     1.0000 0.87400  0.68830  0.68424  Biso   1.000  C
  C341     1.0000 0.81910  0.67150  0.66525  Biso   1.000  C
  C342     1.0000 0.83540  0.65710  0.65127  Biso   1.000  C
  C343     1.0000 0.77900  0.64100  0.63243  Biso   1.000  C
  C344     1.0000 0.12090  0.74650  0.11710  Biso   1.000  C
  C345     1.0000 0.98210  0.60730  0.73022  Biso   1.000  C
  H196     1.0000 0.98570  0.62030  0.71480  Biso   1.000  H
  C346     1.0000 0.98210  0.57330  0.72928  Biso   1.000  C
  H197     1.0000 0.98240  0.56270  0.71340  Biso   1.000  H
  C347     1.0000 0.02340  0.52960  0.22689  Biso   1.000  C
  C348     1.0000 0.01640  0.49400  0.22706  Biso   1.000  C
  H198     1.0000 0.01430  0.48180  0.21140  Biso   1.000  H
  Zn31     1.0000 0.37687  0.46192  0.41686  Biso   1.000  Zn
  Zn32     1.0000 0.34443  0.38931  0.45038  Biso   1.000  Zn
  Zn33     1.0000 0.29226  0.41818  0.42870  Biso   1.000  Zn
  Zn34     1.0000 0.32706  0.38457  0.39177  Biso   1.000  Zn
  Zn35     1.0000 0.28927  0.26381  0.78027  Biso   1.000  Zn
  S25      1.0000 0.45491  0.44909  0.49970  Biso   1.000  S
  S26      1.0000 0.48161  0.51444  0.46942  Biso   1.000  S
  H199     1.0000 0.48490  0.53240  0.45720  Biso   1.000  H
  H200     1.0000 0.43740  0.41850  0.50790  Biso   1.000  H
  C349     1.0000 0.30407  0.14437  0.80948  Biso   1.000  C
  S27      1.0000 0.33570  0.21059  0.83932  Biso   1.000  S
  H201     1.0000 0.34270  0.23450  0.84530  Biso   1.000  H
  H202     1.0000 0.29120  0.12640  0.79680  Biso   1.000  H
  C350     1.0000 0.36595  0.17918  0.87325  Biso   1.000  C
  S28      1.0000 0.33383  0.11391  0.84303  Biso   1.000  S
  H203     1.0000 0.32590  0.09010  0.83650  Biso   1.000  H
  H204     1.0000 0.37870  0.19680  0.88610  Biso   1.000  H
  O109     1.0000 0.33513  0.41353  0.42206  Biso   1.000  O
  O110     1.0000 0.39271  0.42020  0.46525  Biso   1.000  O
  O111     1.0000 0.41495  0.47258  0.44213  Biso   1.000  O
  O112     1.0000 0.39795  0.46489  0.38328  Biso   1.000  O
  O113     1.0000 0.36316  0.41016  0.36624  Biso   1.000  O
  O114     1.0000 0.32931  0.34027  0.39884  Biso   1.000  O
  O115     1.0000 0.34125  0.34360  0.43975  Biso   1.000  O
  O116     1.0000 0.30787  0.37785  0.47717  Biso   1.000  O
  O117     1.0000 0.27370  0.39913  0.46244  Biso   1.000  O
  O118     1.0000 0.30509  0.46953  0.42846  Biso   1.000  O
  O119     1.0000 0.36360  0.49951  0.41815  Biso   1.000  O
  O120     1.0000 0.25380  0.39182  0.40247  Biso   1.000  O
  O121     1.0000 0.27995  0.36972  0.37735  Biso   1.000  O
  O122     1.0000 0.27690  0.18138  0.77944  Biso   1.000  O
  O123     1.0000 0.30366  0.23477  0.80125  Biso   1.000  O
  O124     1.0000 0.21005  0.26226  0.71985  Biso   1.000  O
  O125     1.0000 0.25985  0.27654  0.69877  Biso   1.000  O
  O126     1.0000 0.33214  0.30854  0.77119  Biso   1.000  O
  C351     1.0000 0.41570  0.45300  0.46003  Biso   1.000  C
  C352     1.0000 0.44840  0.47210  0.47421  Biso   1.000  C
  C353     1.0000 0.49421  0.48524  0.50818  Biso   1.000  C
  C354     1.0000 0.33410  0.49870  0.42402  Biso   1.000  C
  C355     1.0000 0.33340  0.53360  0.42504  Biso   1.000  C
  C356     1.0000 0.36110  0.56270  0.41640  Biso   1.000  C
  H205     1.0000 0.38080  0.56170  0.40840  Biso   1.000  H
  C357     1.0000 0.36180  0.59550  0.41890  Biso   1.000  C
  H206     1.0000 0.38390  0.61770  0.41560  Biso   1.000  H
  C358     1.0000 0.33250  0.59720  0.42584  Biso   1.000  C
  C359     1.0000 0.30450  0.56750  0.43470  Biso   1.000  C
  H207     1.0000 0.28410  0.56820  0.44180  Biso   1.000  H
  C360     1.0000 0.30490  0.53420  0.43350  Biso   1.000  C
  H208     1.0000 0.28420  0.51210  0.43910  Biso   1.000  H
  C361     1.0000 0.33310  0.63400  0.42690  Biso   1.000  C
  C362     1.0000 0.30130  0.63460  0.42790  Biso   1.000  C
  H209     1.0000 0.27880  0.61220  0.42930  Biso   1.000  H
  C363     1.0000 0.38810  0.44120  0.36541  Biso   1.000  C
  C364     1.0000 0.41140  0.45480  0.34201  Biso   1.000  C
  C365     1.0000 0.40560  0.43000  0.32370  Biso   1.000  C
  H210     1.0000 0.38880  0.40490  0.32680  Biso   1.000  H
  C366     1.0000 0.42410  0.44090  0.29996  Biso   1.000  C
  H211     1.0000 0.42010  0.42390  0.28670  Biso   1.000  H
  C367     1.0000 0.44880  0.47870  0.29750  Biso   1.000  C
  C368     1.0000 0.45620  0.50570  0.31650  Biso   1.000  C
  H212     1.0000 0.47360  0.53080  0.31400  Biso   1.000  H
  C369     1.0000 0.43590  0.49270  0.33944  Biso   1.000  C
  H213     1.0000 0.43880  0.50920  0.35270  Biso   1.000  H
  C370     1.0000 0.28190  0.38410  0.47970  Biso   1.000  C
  C371     1.0000 0.26070  0.37210  0.50219  Biso   1.000  C
  C372     1.0000 0.26310  0.35050  0.52030  Biso   1.000  C
  H214     1.0000 0.27930  0.34120  0.51790  Biso   1.000  H
  C373     1.0000 0.24210  0.34180  0.54231  Biso   1.000  C
  H215     1.0000 0.24570  0.32750  0.55470  Biso   1.000  H
  C374     1.0000 0.21780  0.35150  0.54753  Biso   1.000  C
  C375     1.0000 0.21920  0.37690  0.52980  Biso   1.000  C
  H216     1.0000 0.20570  0.38890  0.53380  Biso   1.000  H
  C376     1.0000 0.23880  0.38660  0.50649  Biso   1.000  C
  H217     1.0000 0.23660  0.40240  0.49450  Biso   1.000  H
  C377     1.0000 0.19600  0.34030  0.56953  Biso   1.000  C
  C378     1.0000 0.20640  0.32990  0.59154  Biso   1.000  C
  H218     1.0000 0.22850  0.32920  0.59240  Biso   1.000  H
  C379     1.0000 0.18380  0.32080  0.61176  Biso   1.000  C
  C380     1.0000 0.15010  0.31980  0.61150  Biso   1.000  C
  H219     1.0000 0.13460  0.31220  0.62600  Biso   1.000  H
  C381     1.0000 0.13990  0.33060  0.58885  Biso   1.000  C
  C382     1.0000 0.16090  0.33950  0.56752  Biso   1.000  C
  H220     1.0000 0.15320  0.34500  0.55200  Biso   1.000  H
  C383     1.0000 0.10540  0.33110  0.58724  Biso   1.000  C
  C384     1.0000 0.08980  0.33000  0.56450  Biso   1.000  C
  H221     1.0000 0.09980  0.32640  0.54930  Biso   1.000  H
  C385     1.0000 0.05800  0.33440  0.56340  Biso   1.000  C
  H222     1.0000 0.04980  0.33830  0.54750  Biso   1.000  H
  C386     1.0000 0.04020  0.33290  0.58449  Biso   1.000  C
  C387     1.0000 0.05460  0.33150  0.60673  Biso   1.000  C
  H223     1.0000 0.04250  0.33080  0.62220  Biso   1.000  H
  C388     1.0000 0.08770  0.33100  0.60730  Biso   1.000  C
  H224     1.0000 0.09760  0.33050  0.62340  Biso   1.000  H
  C389     1.0000 0.33472  0.32830  0.41852  Biso   1.000  C
  C390     1.0000 0.19410  0.30800  0.63500  Biso   1.000  C
  C391     1.0000 0.17490  0.29360  0.65510  Biso   1.000  C
  H225     1.0000 0.15060  0.28950  0.65500  Biso   1.000  H
  C392     1.0000 0.18630  0.28340  0.67741  Biso   1.000  C
  H226     1.0000 0.16990  0.27340  0.69140  Biso   1.000  H
  C393     1.0000 0.21720  0.28720  0.67894  Biso   1.000  C
  C394     1.0000 0.23880  0.30560  0.66010  Biso   1.000  C
  H227     1.0000 0.26440  0.31460  0.66180  Biso   1.000  H
  C395     1.0000 0.22580  0.31270  0.63750  Biso   1.000  C
  H228     1.0000 0.24190  0.32150  0.62320  Biso   1.000  H
  C396     1.0000 0.22910  0.27280  0.70086  Biso   1.000  C
  C397     1.0000 0.29610  0.20330  0.79741  Biso   1.000  C
  C398     1.0000 0.31170  0.18570  0.81576  Biso   1.000  C
  C399     1.0000 0.32850  0.14760  0.83475  Biso   1.000  C
  C400     1.0000 0.34290  0.17830  0.84873  Biso   1.000  C
  C401     1.0000 0.35900  0.13800  0.86757  Biso   1.000  C
  C402     1.0000 0.25350  0.37440  0.38290  Biso   1.000  C
  C403     1.0000 0.39270  0.37480  0.76978  Biso   1.000  C
  H229     1.0000 0.37970  0.36540  0.78520  Biso   1.000  H
  C404     1.0000 0.42670  0.40880  0.77072  Biso   1.000  C
  H230     1.0000 0.43730  0.41970  0.78660  Biso   1.000  H
  C405     1.0000 0.47040  0.49380  0.27311  Biso   1.000  C
  C406     1.0000 0.50600  0.52240  0.27294  Biso   1.000  C
  H231     1.0000 0.51820  0.53250  0.28860  Biso   1.000  H
  Zn36     1.0000 0.53808  0.91495  0.41686  Biso   1.000  Zn
  Zn37     1.0000 0.61069  0.95512  0.45038  Biso   1.000  Zn
  Zn38     1.0000 0.58182  0.87408  0.42870  Biso   1.000  Zn
  Zn39     1.0000 0.61543  0.94249  0.39177  Biso   1.000  Zn
  Zn40     1.0000 0.73619  0.02546  0.78027  Biso   1.000  Zn
  S29      1.0000 0.55091  0.00582  0.49970  Biso   1.000  S
  S30      1.0000 0.48556  0.96717  0.46942  Biso   1.000  S
  H232     1.0000 0.46760  0.95250  0.45720  Biso   1.000  H
  H233     1.0000 0.58150  0.01890  0.50790  Biso   1.000  H
  C407     1.0000 0.85563  0.15970  0.80948  Biso   1.000  C
  S31      1.0000 0.78941  0.12511  0.83932  Biso   1.000  S
  H234     1.0000 0.76550  0.10820  0.84530  Biso   1.000  H
  H235     1.0000 0.87360  0.16480  0.79680  Biso   1.000  H
  C408     1.0000 0.82082  0.18677  0.87325  Biso   1.000  C
  S32      1.0000 0.88609  0.21992  0.84303  Biso   1.000  S
  H236     1.0000 0.90990  0.23580  0.83650  Biso   1.000  H
  H237     1.0000 0.80320  0.18190  0.88610  Biso   1.000  H
  O127     1.0000 0.58647  0.92160  0.42206  Biso   1.000  O
  O128     1.0000 0.57980  0.97251  0.46525  Biso   1.000  O
  O129     1.0000 0.52742  0.94237  0.44213  Biso   1.000  O
  O130     1.0000 0.53511  0.93306  0.38328  Biso   1.000  O
  O131     1.0000 0.58984  0.95300  0.36624  Biso   1.000  O
  O132     1.0000 0.65973  0.98904  0.39884  Biso   1.000  O
  O133     1.0000 0.65640  0.99765  0.43975  Biso   1.000  O
  O134     1.0000 0.62215  0.93002  0.47717  Biso   1.000  O
  O135     1.0000 0.60087  0.87457  0.46244  Biso   1.000  O
  O136     1.0000 0.53047  0.83556  0.42846  Biso   1.000  O
  O137     1.0000 0.50049  0.86409  0.41815  Biso   1.000  O
  O138     1.0000 0.60818  0.86198  0.40247  Biso   1.000  O
  O139     1.0000 0.63028  0.91023  0.37735  Biso   1.000  O
  O140     1.0000 0.81862  0.09552  0.77944  Biso   1.000  O
  O141     1.0000 0.76523  0.06889  0.80125  Biso   1.000  O
  O142     1.0000 0.73774  0.94779  0.71985  Biso   1.000  O
  O143     1.0000 0.72346  0.98331  0.69877  Biso   1.000  O
  O144     1.0000 0.69146  0.02360  0.77119  Biso   1.000  O
  C409     1.0000 0.54700  0.96270  0.46003  Biso   1.000  C
  C410     1.0000 0.52790  0.97630  0.47421  Biso   1.000  C
  C411     1.0000 0.51476  0.00897  0.50818  Biso   1.000  C
  C412     1.0000 0.50130  0.83540  0.42402  Biso   1.000  C
  C413     1.0000 0.46640  0.79980  0.42504  Biso   1.000  C
  C414     1.0000 0.43730  0.79840  0.41640  Biso   1.000  C
  H238     1.0000 0.43830  0.81910  0.40840  Biso   1.000  H
  C415     1.0000 0.40450  0.76630  0.41890  Biso   1.000  C
  H239     1.0000 0.38230  0.76620  0.41560  Biso   1.000  H
  C416     1.0000 0.40280  0.73530  0.42584  Biso   1.000  C
  C417     1.0000 0.43250  0.73700  0.43470  Biso   1.000  C
  H240     1.0000 0.43180  0.71590  0.44180  Biso   1.000  H
  C418     1.0000 0.46580  0.77070  0.43350  Biso   1.000  C
  H241     1.0000 0.48790  0.77210  0.43910  Biso   1.000  H
  C419     1.0000 0.36600  0.69910  0.42690  Biso   1.000  C
  C420     1.0000 0.36540  0.66670  0.42790  Biso   1.000  C
  H242     1.0000 0.38780  0.66660  0.42930  Biso   1.000  H
  C421     1.0000 0.55880  0.94690  0.36541  Biso   1.000  C
  C422     1.0000 0.54520  0.95660  0.34201  Biso   1.000  C
  C423     1.0000 0.57000  0.97560  0.32370  Biso   1.000  C
  H243     1.0000 0.59510  0.98390  0.32680  Biso   1.000  H
  C424     1.0000 0.55910  0.98320  0.29996  Biso   1.000  C
  H244     1.0000 0.57610  0.99620  0.28670  Biso   1.000  H
  C425     1.0000 0.52130  0.97010  0.29750  Biso   1.000  C
  C426     1.0000 0.49430  0.95050  0.31650  Biso   1.000  C
  H245     1.0000 0.46920  0.94280  0.31400  Biso   1.000  H
  C427     1.0000 0.50730  0.94320  0.33944  Biso   1.000  C
  H246     1.0000 0.49080  0.92960  0.35270  Biso   1.000  H
  C428     1.0000 0.61590  0.89780  0.47970  Biso   1.000  C
  C429     1.0000 0.62790  0.88860  0.50219  Biso   1.000  C
  C430     1.0000 0.64950  0.91260  0.52030  Biso   1.000  C
  H247     1.0000 0.65880  0.93810  0.51790  Biso   1.000  H
  C431     1.0000 0.65820  0.90030  0.54231  Biso   1.000  C
  H248     1.0000 0.67250  0.91820  0.55470  Biso   1.000  H
  C432     1.0000 0.64850  0.86630  0.54753  Biso   1.000  C
  C433     1.0000 0.62310  0.84230  0.52980  Biso   1.000  C
  H249     1.0000 0.61110  0.81680  0.53380  Biso   1.000  H
  C434     1.0000 0.61340  0.85220  0.50649  Biso   1.000  C
  H250     1.0000 0.59760  0.83420  0.49450  Biso   1.000  H
  C435     1.0000 0.65970  0.85570  0.56953  Biso   1.000  C
  C436     1.0000 0.67010  0.87650  0.59154  Biso   1.000  C
  H251     1.0000 0.67080  0.89930  0.59240  Biso   1.000  H
  C437     1.0000 0.67920  0.86300  0.61176  Biso   1.000  C
  C438     1.0000 0.68020  0.83030  0.61150  Biso   1.000  C
  H252     1.0000 0.68780  0.82240  0.62600  Biso   1.000  H
  C439     1.0000 0.66940  0.80930  0.58885  Biso   1.000  C
  C440     1.0000 0.66050  0.82140  0.56752  Biso   1.000  C
  H253     1.0000 0.65500  0.80820  0.55200  Biso   1.000  H
  C441     1.0000 0.66890  0.77430  0.58724  Biso   1.000  C
  C442     1.0000 0.67000  0.75980  0.56450  Biso   1.000  C
  H254     1.0000 0.67360  0.77340  0.54930  Biso   1.000  H
  C443     1.0000 0.66560  0.72360  0.56340  Biso   1.000  C
  H255     1.0000 0.66170  0.71150  0.54750  Biso   1.000  H
  C444     1.0000 0.66710  0.70730  0.58449  Biso   1.000  C
  C445     1.0000 0.66850  0.72310  0.60673  Biso   1.000  C
  H256     1.0000 0.66920  0.71170  0.62220  Biso   1.000  H
  C446     1.0000 0.66900  0.75670  0.60730  Biso   1.000  C
  H257     1.0000 0.66950  0.76710  0.62340  Biso   1.000  H
  C447     1.0000 0.67170  0.00642  0.41852  Biso   1.000  C
  C448     1.0000 0.69200  0.88610  0.63500  Biso   1.000  C
  C449     1.0000 0.70640  0.88130  0.65510  Biso   1.000  C
  H258     1.0000 0.71050  0.86110  0.65500  Biso   1.000  H
  C450     1.0000 0.71660  0.90290  0.67741  Biso   1.000  C
  H259     1.0000 0.72660  0.89650  0.69140  Biso   1.000  H
  C451     1.0000 0.71280  0.93000  0.67894  Biso   1.000  C
  C452     1.0000 0.69440  0.93320  0.66010  Biso   1.000  C
  H260     1.0000 0.68540  0.94980  0.66180  Biso   1.000  H
  C453     1.0000 0.68730  0.91310  0.63750  Biso   1.000  C
  H261     1.0000 0.67850  0.92040  0.62320  Biso   1.000  H
  C454     1.0000 0.72720  0.95630  0.70086  Biso   1.000  C
  C455     1.0000 0.79670  0.09280  0.79741  Biso   1.000  C
  C456     1.0000 0.81430  0.12600  0.81576  Biso   1.000  C
  C457     1.0000 0.85240  0.18090  0.83475  Biso   1.000  C
  C458     1.0000 0.82170  0.16460  0.84873  Biso   1.000  C
  C459     1.0000 0.86200  0.22100  0.86757  Biso   1.000  C
  C460     1.0000 0.62560  0.87910  0.38290  Biso   1.000  C
  C461     1.0000 0.62520  0.01790  0.76978  Biso   1.000  C
  H262     1.0000 0.63460  0.01430  0.78520  Biso   1.000  H
  C462     1.0000 0.59120  0.01790  0.77072  Biso   1.000  C
  H263     1.0000 0.58030  0.01760  0.78660  Biso   1.000  H
  C463     1.0000 0.50620  0.97660  0.27311  Biso   1.000  C
  C464     1.0000 0.47760  0.98360  0.27294  Biso   1.000  C
  H264     1.0000 0.46750  0.98570  0.28860  Biso   1.000  H
  Zn41     1.0000 0.08505  0.62313  0.41686  Biso   1.000  Zn
  Zn42     1.0000 0.04488  0.65557  0.45038  Biso   1.000  Zn
  Zn43     1.0000 0.12592  0.70774  0.42870  Biso   1.000  Zn
  Zn44     1.0000 0.05751  0.67294  0.39177  Biso   1.000  Zn
  Zn45     1.0000 0.97454  0.71073  0.78027  Biso   1.000  Zn
  S33      1.0000 0.99418  0.54509  0.49970  Biso   1.000  S
  S34      1.0000 0.03283  0.51839  0.46942  Biso   1.000  S
  H265     1.0000 0.04750  0.51510  0.45720  Biso   1.000  H
  H266     1.0000 0.98110  0.56260  0.50790  Biso   1.000  H
  C465     1.0000 0.84030  0.69593  0.80948  Biso   1.000  C
  S35      1.0000 0.87489  0.66430  0.83932  Biso   1.000  S
  H267     1.0000 0.89180  0.65730  0.84530  Biso   1.000  H
  H268     1.0000 0.83520  0.70880  0.79680  Biso   1.000  H
  C466     1.0000 0.81323  0.63405  0.87325  Biso   1.000  C
  S36      1.0000 0.78008  0.66617  0.84303  Biso   1.000  S
  H269     1.0000 0.76420  0.67410  0.83650  Biso   1.000  H
  H270     1.0000 0.81810  0.62130  0.88610  Biso   1.000  H
  O145     1.0000 0.07840  0.66487  0.42206  Biso   1.000  O
  O146     1.0000 0.02749  0.60729  0.46525  Biso   1.000  O
  O147     1.0000 0.05763  0.58505  0.44213  Biso   1.000  O
  O148     1.0000 0.06694  0.60205  0.38328  Biso   1.000  O
  O149     1.0000 0.04700  0.63684  0.36624  Biso   1.000  O
  O150     1.0000 0.01096  0.67069  0.39884  Biso   1.000  O
  O151     1.0000 0.00235  0.65875  0.43975  Biso   1.000  O
  O152     1.0000 0.06998  0.69213  0.47717  Biso   1.000  O
  O153     1.0000 0.12543  0.72630  0.46244  Biso   1.000  O
  O154     1.0000 0.16444  0.69491  0.42846  Biso   1.000  O
  O155     1.0000 0.13591  0.63640  0.41815  Biso   1.000  O
  O156     1.0000 0.13802  0.74620  0.40247  Biso   1.000  O
  O157     1.0000 0.08977  0.72005  0.37735  Biso   1.000  O
  O158     1.0000 0.90448  0.72310  0.77944  Biso   1.000  O
  O159     1.0000 0.93111  0.69634  0.80125  Biso   1.000  O
  O160     1.0000 0.05221  0.78995  0.71985  Biso   1.000  O
  O161     1.0000 0.01669  0.74015  0.69877  Biso   1.000  O
  O162     1.0000 0.97640  0.66786  0.77119  Biso   1.000  O
  C467     1.0000 0.03730  0.58430  0.46003  Biso   1.000  C
  C468     1.0000 0.02370  0.55160  0.47421  Biso   1.000  C
  C469     1.0000 0.99103  0.50579  0.50818  Biso   1.000  C
  C470     1.0000 0.16460  0.66590  0.42402  Biso   1.000  C
  C471     1.0000 0.20020  0.66660  0.42504  Biso   1.000  C
  C472     1.0000 0.20160  0.63890  0.41640  Biso   1.000  C
  H271     1.0000 0.18090  0.61920  0.40840  Biso   1.000  H
  C473     1.0000 0.23370  0.63820  0.41890  Biso   1.000  C
  H272     1.0000 0.23380  0.61610  0.41560  Biso   1.000  H
  C474     1.0000 0.26470  0.66750  0.42584  Biso   1.000  C
  C475     1.0000 0.26300  0.69550  0.43470  Biso   1.000  C
  H273     1.0000 0.28410  0.71590  0.44180  Biso   1.000  H
  C476     1.0000 0.22930  0.69510  0.43350  Biso   1.000  C
  H274     1.0000 0.22790  0.71580  0.43910  Biso   1.000  H
  C477     1.0000 0.30090  0.66690  0.42690  Biso   1.000  C
  C478     1.0000 0.33330  0.69870  0.42790  Biso   1.000  C
  H275     1.0000 0.33340  0.72120  0.42930  Biso   1.000  H
  C479     1.0000 0.05310  0.61190  0.36541  Biso   1.000  C
  C480     1.0000 0.04340  0.58860  0.34201  Biso   1.000  C
  C481     1.0000 0.02440  0.59440  0.32370  Biso   1.000  C
  H276     1.0000 0.01610  0.61120  0.32680  Biso   1.000  H
  C482     1.0000 0.01680  0.57590  0.29996  Biso   1.000  C
  H277     1.0000 0.00380  0.57990  0.28670  Biso   1.000  H
  C483     1.0000 0.02990  0.55120  0.29750  Biso   1.000  C
  C484     1.0000 0.04950  0.54380  0.31650  Biso   1.000  C
  H278     1.0000 0.05720  0.52640  0.31400  Biso   1.000  H
  C485     1.0000 0.05680  0.56410  0.33944  Biso   1.000  C
  H279     1.0000 0.07040  0.56120  0.35270  Biso   1.000  H
  C486     1.0000 0.10220  0.71810  0.47970  Biso   1.000  C
  C487     1.0000 0.11140  0.73930  0.50219  Biso   1.000  C
  C488     1.0000 0.08740  0.73690  0.52030  Biso   1.000  C
  H280     1.0000 0.06190  0.72070  0.51790  Biso   1.000  H
  C489     1.0000 0.09970  0.75790  0.54231  Biso   1.000  C
  H281     1.0000 0.08180  0.75430  0.55470  Biso   1.000  H
  C490     1.0000 0.13370  0.78220  0.54753  Biso   1.000  C
  C491     1.0000 0.15770  0.78080  0.52980  Biso   1.000  C
  H282     1.0000 0.18320  0.79430  0.53380  Biso   1.000  H
  C492     1.0000 0.14780  0.76120  0.50649  Biso   1.000  C
  H283     1.0000 0.16580  0.76340  0.49450  Biso   1.000  H
  C493     1.0000 0.14430  0.80400  0.56953  Biso   1.000  C
  C494     1.0000 0.12350  0.79360  0.59154  Biso   1.000  C
  H284     1.0000 0.10070  0.77150  0.59240  Biso   1.000  H
  C495     1.0000 0.13700  0.81620  0.61176  Biso   1.000  C
  C496     1.0000 0.16970  0.84990  0.61150  Biso   1.000  C
  H285     1.0000 0.17760  0.86540  0.62600  Biso   1.000  H
  C497     1.0000 0.19070  0.86010  0.58885  Biso   1.000  C
  C498     1.0000 0.17860  0.83910  0.56752  Biso   1.000  C
  H286     1.0000 0.19180  0.84680  0.55200  Biso   1.000  H
  C499     1.0000 0.22570  0.89460  0.58724  Biso   1.000  C
  C500     1.0000 0.24020  0.91020  0.56450  Biso   1.000  C
  H287     1.0000 0.22660  0.90020  0.54930  Biso   1.000  H
  C501     1.0000 0.27640  0.94200  0.56340  Biso   1.000  C
  H288     1.0000 0.28850  0.95020  0.54750  Biso   1.000  H
  C502     1.0000 0.29270  0.95980  0.58449  Biso   1.000  C
  C503     1.0000 0.27690  0.94540  0.60673  Biso   1.000  C
  H289     1.0000 0.28830  0.95750  0.62220  Biso   1.000  H
  C504     1.0000 0.24330  0.91230  0.60730  Biso   1.000  C
  H290     1.0000 0.23290  0.90240  0.62340  Biso   1.000  H
  C505     1.0000 0.99358  0.66528  0.41852  Biso   1.000  C
  C506     1.0000 0.11390  0.80590  0.63500  Biso   1.000  C
  C507     1.0000 0.11870  0.82510  0.65510  Biso   1.000  C
  H291     1.0000 0.13890  0.84940  0.65500  Biso   1.000  H
  C508     1.0000 0.09710  0.81370  0.67741  Biso   1.000  C
  H292     1.0000 0.10350  0.83010  0.69140  Biso   1.000  H
  C509     1.0000 0.07000  0.78280  0.67894  Biso   1.000  C
  C510     1.0000 0.06680  0.76120  0.66010  Biso   1.000  C
  H293     1.0000 0.05020  0.73560  0.66180  Biso   1.000  H
  C511     1.0000 0.08690  0.77420  0.63750  Biso   1.000  C
  H294     1.0000 0.07960  0.75810  0.62320  Biso   1.000  H
  C512     1.0000 0.04370  0.77090  0.70086  Biso   1.000  C
  C513     1.0000 0.90720  0.70390  0.79741  Biso   1.000  C
  C514     1.0000 0.87400  0.68830  0.81576  Biso   1.000  C
  C515     1.0000 0.81910  0.67150  0.83475  Biso   1.000  C
  C516     1.0000 0.83540  0.65710  0.84873  Biso   1.000  C
  C517     1.0000 0.77900  0.64100  0.86757  Biso   1.000  C
  C518     1.0000 0.12090  0.74650  0.38290  Biso   1.000  C
  C519     1.0000 0.98210  0.60730  0.76978  Biso   1.000  C
  H295     1.0000 0.98570  0.62030  0.78520  Biso   1.000  H
  C520     1.0000 0.98210  0.57330  0.77072  Biso   1.000  C
  H296     1.0000 0.98240  0.56270  0.78660  Biso   1.000  H
  C521     1.0000 0.02340  0.52960  0.27311  Biso   1.000  C
  C522     1.0000 0.01640  0.49400  0.27294  Biso   1.000  C
  H297     1.0000 0.01430  0.48180  0.28860  Biso   1.000  H
  Zn46     1.0000 0.62313  0.53808  0.91686  Biso   1.000  Zn
  Zn47     1.0000 0.65557  0.61069  0.95038  Biso   1.000  Zn
  Zn48     1.0000 0.70774  0.58182  0.92870  Biso   1.000  Zn
  Zn49     1.0000 0.67294  0.61543  0.89177  Biso   1.000  Zn
  Zn50     1.0000 0.71073  0.73619  0.28027  Biso   1.000  Zn
  S37      1.0000 0.54509  0.55091  0.99970  Biso   1.000  S
  S38      1.0000 0.51839  0.48556  0.96942  Biso   1.000  S
  H298     1.0000 0.51510  0.46760  0.95720  Biso   1.000  H
  H299     1.0000 0.56260  0.58150  0.00790  Biso   1.000  H
  C523     1.0000 0.69593  0.85563  0.30948  Biso   1.000  C
  S39      1.0000 0.66430  0.78941  0.33932  Biso   1.000  S
  H300     1.0000 0.65730  0.76550  0.34530  Biso   1.000  H
  H301     1.0000 0.70880  0.87360  0.29680  Biso   1.000  H
  C524     1.0000 0.63405  0.82082  0.37325  Biso   1.000  C
  S40      1.0000 0.66617  0.88609  0.34303  Biso   1.000  S
  H302     1.0000 0.67410  0.90990  0.33650  Biso   1.000  H
  H303     1.0000 0.62130  0.80320  0.38610  Biso   1.000  H
  O163     1.0000 0.66487  0.58647  0.92206  Biso   1.000  O
  O164     1.0000 0.60729  0.57980  0.96525  Biso   1.000  O
  O165     1.0000 0.58505  0.52742  0.94213  Biso   1.000  O
  O166     1.0000 0.60205  0.53511  0.88328  Biso   1.000  O
  O167     1.0000 0.63684  0.58984  0.86624  Biso   1.000  O
  O168     1.0000 0.67069  0.65973  0.89884  Biso   1.000  O
  O169     1.0000 0.65875  0.65640  0.93975  Biso   1.000  O
  O170     1.0000 0.69213  0.62215  0.97717  Biso   1.000  O
  O171     1.0000 0.72630  0.60087  0.96244  Biso   1.000  O
  O172     1.0000 0.69491  0.53047  0.92846  Biso   1.000  O
  O173     1.0000 0.63640  0.50049  0.91815  Biso   1.000  O
  O174     1.0000 0.74620  0.60818  0.90247  Biso   1.000  O
  O175     1.0000 0.72005  0.63028  0.87735  Biso   1.000  O
  O176     1.0000 0.72310  0.81862  0.27944  Biso   1.000  O
  O177     1.0000 0.69634  0.76523  0.30125  Biso   1.000  O
  O178     1.0000 0.78995  0.73774  0.21985  Biso   1.000  O
  O179     1.0000 0.74015  0.72346  0.19877  Biso   1.000  O
  O180     1.0000 0.66786  0.69146  0.27119  Biso   1.000  O
  C525     1.0000 0.58430  0.54700  0.96003  Biso   1.000  C
  C526     1.0000 0.55160  0.52790  0.97421  Biso   1.000  C
  C527     1.0000 0.50579  0.51476  0.00818  Biso   1.000  C
  C528     1.0000 0.66590  0.50130  0.92402  Biso   1.000  C
  C529     1.0000 0.66660  0.46640  0.92504  Biso   1.000  C
  C530     1.0000 0.63890  0.43730  0.91640  Biso   1.000  C
  H304     1.0000 0.61920  0.43830  0.90840  Biso   1.000  H
  C531     1.0000 0.63820  0.40450  0.91890  Biso   1.000  C
  H305     1.0000 0.61610  0.38230  0.91560  Biso   1.000  H
  C532     1.0000 0.66750  0.40280  0.92584  Biso   1.000  C
  C533     1.0000 0.69550  0.43250  0.93470  Biso   1.000  C
  H306     1.0000 0.71590  0.43180  0.94180  Biso   1.000  H
  C534     1.0000 0.69510  0.46580  0.93350  Biso   1.000  C
  H307     1.0000 0.71580  0.48790  0.93910  Biso   1.000  H
  C535     1.0000 0.66690  0.36600  0.92690  Biso   1.000  C
  C536     1.0000 0.69870  0.36540  0.92790  Biso   1.000  C
  H308     1.0000 0.72120  0.38780  0.92930  Biso   1.000  H
  C537     1.0000 0.61190  0.55880  0.86541  Biso   1.000  C
  C538     1.0000 0.58860  0.54520  0.84201  Biso   1.000  C
  C539     1.0000 0.59440  0.57000  0.82370  Biso   1.000  C
  H309     1.0000 0.61120  0.59510  0.82680  Biso   1.000  H
  C540     1.0000 0.57590  0.55910  0.79996  Biso   1.000  C
  H310     1.0000 0.57990  0.57610  0.78670  Biso   1.000  H
  C541     1.0000 0.55120  0.52130  0.79750  Biso   1.000  C
  C542     1.0000 0.54380  0.49430  0.81650  Biso   1.000  C
  H311     1.0000 0.52640  0.46920  0.81400  Biso   1.000  H
  C543     1.0000 0.56410  0.50730  0.83944  Biso   1.000  C
  H312     1.0000 0.56120  0.49080  0.85270  Biso   1.000  H
  C544     1.0000 0.71810  0.61590  0.97970  Biso   1.000  C
  C545     1.0000 0.73930  0.62790  0.00219  Biso   1.000  C
  C546     1.0000 0.73690  0.64950  0.02030  Biso   1.000  C
  H313     1.0000 0.72070  0.65880  0.01790  Biso   1.000  H
  C547     1.0000 0.75790  0.65820  0.04231  Biso   1.000  C
  H314     1.0000 0.75430  0.67250  0.05470  Biso   1.000  H
  C548     1.0000 0.78220  0.64850  0.04753  Biso   1.000  C
  C549     1.0000 0.78080  0.62310  0.02980  Biso   1.000  C
  H315     1.0000 0.79430  0.61110  0.03380  Biso   1.000  H
  C550     1.0000 0.76120  0.61340  0.00649  Biso   1.000  C
  H316     1.0000 0.76340  0.59760  0.99450  Biso   1.000  H
  C551     1.0000 0.80400  0.65970  0.06953  Biso   1.000  C
  C552     1.0000 0.79360  0.67010  0.09154  Biso   1.000  C
  H317     1.0000 0.77150  0.67080  0.09240  Biso   1.000  H
  C553     1.0000 0.81620  0.67920  0.11176  Biso   1.000  C
  C554     1.0000 0.84990  0.68020  0.11150  Biso   1.000  C
  H318     1.0000 0.86540  0.68780  0.12600  Biso   1.000  H
  C555     1.0000 0.86010  0.66940  0.08885  Biso   1.000  C
  C556     1.0000 0.83910  0.66050  0.06752  Biso   1.000  C
  H319     1.0000 0.84680  0.65500  0.05200  Biso   1.000  H
  C557     1.0000 0.89460  0.66890  0.08724  Biso   1.000  C
  C558     1.0000 0.91020  0.67000  0.06450  Biso   1.000  C
  H320     1.0000 0.90020  0.67360  0.04930  Biso   1.000  H
  C559     1.0000 0.94200  0.66560  0.06340  Biso   1.000  C
  H321     1.0000 0.95020  0.66170  0.04750  Biso   1.000  H
  C560     1.0000 0.95980  0.66710  0.08449  Biso   1.000  C
  C561     1.0000 0.94540  0.66850  0.10673  Biso   1.000  C
  H322     1.0000 0.95750  0.66920  0.12220  Biso   1.000  H
  C562     1.0000 0.91230  0.66900  0.10730  Biso   1.000  C
  H323     1.0000 0.90240  0.66950  0.12340  Biso   1.000  H
  C563     1.0000 0.66528  0.67170  0.91852  Biso   1.000  C
  C564     1.0000 0.80590  0.69200  0.13500  Biso   1.000  C
  C565     1.0000 0.82510  0.70640  0.15510  Biso   1.000  C
  H324     1.0000 0.84940  0.71050  0.15500  Biso   1.000  H
  C566     1.0000 0.81370  0.71660  0.17741  Biso   1.000  C
  H325     1.0000 0.83010  0.72660  0.19140  Biso   1.000  H
  C567     1.0000 0.78280  0.71280  0.17894  Biso   1.000  C
  C568     1.0000 0.76120  0.69440  0.16010  Biso   1.000  C
  H326     1.0000 0.73560  0.68540  0.16180  Biso   1.000  H
  C569     1.0000 0.77420  0.68730  0.13750  Biso   1.000  C
  H327     1.0000 0.75810  0.67850  0.12320  Biso   1.000  H
  C570     1.0000 0.77090  0.72720  0.20086  Biso   1.000  C
  C571     1.0000 0.70390  0.79670  0.29741  Biso   1.000  C
  C572     1.0000 0.68830  0.81430  0.31576  Biso   1.000  C
  C573     1.0000 0.67150  0.85240  0.33475  Biso   1.000  C
  C574     1.0000 0.65710  0.82170  0.34873  Biso   1.000  C
  C575     1.0000 0.64100  0.86200  0.36757  Biso   1.000  C
  C576     1.0000 0.74650  0.62560  0.88290  Biso   1.000  C
  C577     1.0000 0.60730  0.62520  0.26978  Biso   1.000  C
  H328     1.0000 0.62030  0.63460  0.28520  Biso   1.000  H
  C578     1.0000 0.57330  0.59120  0.27072  Biso   1.000  C
  H329     1.0000 0.56270  0.58030  0.28660  Biso   1.000  H
  C579     1.0000 0.52960  0.50620  0.77311  Biso   1.000  C
  C580     1.0000 0.49400  0.47760  0.77294  Biso   1.000  C
  H330     1.0000 0.48180  0.46750  0.78860  Biso   1.000  H
  Zn51     1.0000 0.46192  0.08505  0.91686  Biso   1.000  Zn
  Zn52     1.0000 0.38931  0.04488  0.95038  Biso   1.000  Zn
  Zn53     1.0000 0.41818  0.12592  0.92870  Biso   1.000  Zn
  Zn54     1.0000 0.38457  0.05751  0.89177  Biso   1.000  Zn
  Zn55     1.0000 0.26381  0.97454  0.28027  Biso   1.000  Zn
  S41      1.0000 0.44909  0.99418  0.99970  Biso   1.000  S
  S42      1.0000 0.51444  0.03283  0.96942  Biso   1.000  S
  H331     1.0000 0.53240  0.04750  0.95720  Biso   1.000  H
  H332     1.0000 0.41850  0.98110  0.00790  Biso   1.000  H
  C581     1.0000 0.14437  0.84030  0.30948  Biso   1.000  C
  S43      1.0000 0.21059  0.87489  0.33932  Biso   1.000  S
  H333     1.0000 0.23450  0.89180  0.34530  Biso   1.000  H
  H334     1.0000 0.12640  0.83520  0.29680  Biso   1.000  H
  C582     1.0000 0.17918  0.81323  0.37325  Biso   1.000  C
  S44      1.0000 0.11391  0.78008  0.34303  Biso   1.000  S
  H335     1.0000 0.09010  0.76420  0.33650  Biso   1.000  H
  H336     1.0000 0.19680  0.81810  0.38610  Biso   1.000  H
  O181     1.0000 0.41353  0.07840  0.92206  Biso   1.000  O
  O182     1.0000 0.42020  0.02749  0.96525  Biso   1.000  O
  O183     1.0000 0.47258  0.05763  0.94213  Biso   1.000  O
  O184     1.0000 0.46489  0.06694  0.88328  Biso   1.000  O
  O185     1.0000 0.41016  0.04700  0.86624  Biso   1.000  O
  O186     1.0000 0.34027  0.01096  0.89884  Biso   1.000  O
  O187     1.0000 0.34360  0.00235  0.93975  Biso   1.000  O
  O188     1.0000 0.37785  0.06998  0.97717  Biso   1.000  O
  O189     1.0000 0.39913  0.12543  0.96244  Biso   1.000  O
  O190     1.0000 0.46953  0.16444  0.92846  Biso   1.000  O
  O191     1.0000 0.49951  0.13591  0.91815  Biso   1.000  O
  O192     1.0000 0.39182  0.13802  0.90247  Biso   1.000  O
  O193     1.0000 0.36972  0.08977  0.87735  Biso   1.000  O
  O194     1.0000 0.18138  0.90448  0.27944  Biso   1.000  O
  O195     1.0000 0.23477  0.93111  0.30125  Biso   1.000  O
  O196     1.0000 0.26226  0.05221  0.21985  Biso   1.000  O
  O197     1.0000 0.27654  0.01669  0.19877  Biso   1.000  O
  O198     1.0000 0.30854  0.97640  0.27119  Biso   1.000  O
  C583     1.0000 0.45300  0.03730  0.96003  Biso   1.000  C
  C584     1.0000 0.47210  0.02370  0.97421  Biso   1.000  C
  C585     1.0000 0.48524  0.99103  0.00818  Biso   1.000  C
  C586     1.0000 0.49870  0.16460  0.92402  Biso   1.000  C
  C587     1.0000 0.53360  0.20020  0.92504  Biso   1.000  C
  C588     1.0000 0.56270  0.20160  0.91640  Biso   1.000  C
  H337     1.0000 0.56170  0.18090  0.90840  Biso   1.000  H
  C589     1.0000 0.59550  0.23370  0.91890  Biso   1.000  C
  H338     1.0000 0.61770  0.23380  0.91560  Biso   1.000  H
  C590     1.0000 0.59720  0.26470  0.92584  Biso   1.000  C
  C591     1.0000 0.56750  0.26300  0.93470  Biso   1.000  C
  H339     1.0000 0.56820  0.28410  0.94180  Biso   1.000  H
  C592     1.0000 0.53420  0.22930  0.93350  Biso   1.000  C
  H340     1.0000 0.51210  0.22790  0.93910  Biso   1.000  H
  C593     1.0000 0.63400  0.30090  0.92690  Biso   1.000  C
  C594     1.0000 0.63460  0.33330  0.92790  Biso   1.000  C
  H341     1.0000 0.61220  0.33340  0.92930  Biso   1.000  H
  C595     1.0000 0.44120  0.05310  0.86541  Biso   1.000  C
  C596     1.0000 0.45480  0.04340  0.84201  Biso   1.000  C
  C597     1.0000 0.43000  0.02440  0.82370  Biso   1.000  C
  H342     1.0000 0.40490  0.01610  0.82680  Biso   1.000  H
  C598     1.0000 0.44090  0.01680  0.79996  Biso   1.000  C
  H343     1.0000 0.42390  0.00380  0.78670  Biso   1.000  H
  C599     1.0000 0.47870  0.02990  0.79750  Biso   1.000  C
  C600     1.0000 0.50570  0.04950  0.81650  Biso   1.000  C
  H344     1.0000 0.53080  0.05720  0.81400  Biso   1.000  H
  C601     1.0000 0.49270  0.05680  0.83944  Biso   1.000  C
  H345     1.0000 0.50920  0.07040  0.85270  Biso   1.000  H
  C602     1.0000 0.38410  0.10220  0.97970  Biso   1.000  C
  C603     1.0000 0.37210  0.11140  0.00219  Biso   1.000  C
  C604     1.0000 0.35050  0.08740  0.02030  Biso   1.000  C
  H346     1.0000 0.34120  0.06190  0.01790  Biso   1.000  H
  C605     1.0000 0.34180  0.09970  0.04231  Biso   1.000  C
  H347     1.0000 0.32750  0.08180  0.05470  Biso   1.000  H
  C606     1.0000 0.35150  0.13370  0.04753  Biso   1.000  C
  C607     1.0000 0.37690  0.15770  0.02980  Biso   1.000  C
  H348     1.0000 0.38890  0.18320  0.03380  Biso   1.000  H
  C608     1.0000 0.38660  0.14780  0.00649  Biso   1.000  C
  H349     1.0000 0.40240  0.16580  0.99450  Biso   1.000  H
  C609     1.0000 0.34030  0.14430  0.06953  Biso   1.000  C
  C610     1.0000 0.32990  0.12350  0.09154  Biso   1.000  C
  H350     1.0000 0.32920  0.10070  0.09240  Biso   1.000  H
  C611     1.0000 0.32080  0.13700  0.11176  Biso   1.000  C
  C612     1.0000 0.31980  0.16970  0.11150  Biso   1.000  C
  H351     1.0000 0.31220  0.17760  0.12600  Biso   1.000  H
  C613     1.0000 0.33060  0.19070  0.08885  Biso   1.000  C
  C614     1.0000 0.33950  0.17860  0.06752  Biso   1.000  C
  H352     1.0000 0.34500  0.19180  0.05200  Biso   1.000  H
  C615     1.0000 0.33110  0.22570  0.08724  Biso   1.000  C
  C616     1.0000 0.33000  0.24020  0.06450  Biso   1.000  C
  H353     1.0000 0.32640  0.22660  0.04930  Biso   1.000  H
  C617     1.0000 0.33440  0.27640  0.06340  Biso   1.000  C
  H354     1.0000 0.33830  0.28850  0.04750  Biso   1.000  H
  C618     1.0000 0.33290  0.29270  0.08449  Biso   1.000  C
  C619     1.0000 0.33150  0.27690  0.10673  Biso   1.000  C
  H355     1.0000 0.33080  0.28830  0.12220  Biso   1.000  H
  C620     1.0000 0.33100  0.24330  0.10730  Biso   1.000  C
  H356     1.0000 0.33050  0.23290  0.12340  Biso   1.000  H
  C621     1.0000 0.32830  0.99358  0.91852  Biso   1.000  C
  C622     1.0000 0.30800  0.11390  0.13500  Biso   1.000  C
  C623     1.0000 0.29360  0.11870  0.15510  Biso   1.000  C
  H357     1.0000 0.28950  0.13890  0.15500  Biso   1.000  H
  C624     1.0000 0.28340  0.09710  0.17741  Biso   1.000  C
  H358     1.0000 0.27340  0.10350  0.19140  Biso   1.000  H
  C625     1.0000 0.28720  0.07000  0.17894  Biso   1.000  C
  C626     1.0000 0.30560  0.06680  0.16010  Biso   1.000  C
  H359     1.0000 0.31460  0.05020  0.16180  Biso   1.000  H
  C627     1.0000 0.31270  0.08690  0.13750  Biso   1.000  C
  H360     1.0000 0.32150  0.07960  0.12320  Biso   1.000  H
  C628     1.0000 0.27280  0.04370  0.20086  Biso   1.000  C
  C629     1.0000 0.20330  0.90720  0.29741  Biso   1.000  C
  C630     1.0000 0.18570  0.87400  0.31576  Biso   1.000  C
  C631     1.0000 0.14760  0.81910  0.33475  Biso   1.000  C
  C632     1.0000 0.17830  0.83540  0.34873  Biso   1.000  C
  C633     1.0000 0.13800  0.77900  0.36757  Biso   1.000  C
  C634     1.0000 0.37440  0.12090  0.88290  Biso   1.000  C
  C635     1.0000 0.37480  0.98210  0.26978  Biso   1.000  C
  H361     1.0000 0.36540  0.98570  0.28520  Biso   1.000  H
  C636     1.0000 0.40880  0.98210  0.27072  Biso   1.000  C
  H362     1.0000 0.41970  0.98240  0.28660  Biso   1.000  H
  C637     1.0000 0.49380  0.02340  0.77311  Biso   1.000  C
  C638     1.0000 0.52240  0.01640  0.77294  Biso   1.000  C
  H363     1.0000 0.53250  0.01430  0.78860  Biso   1.000  H
  Zn56     1.0000 0.91495  0.37687  0.91686  Biso   1.000  Zn
  Zn57     1.0000 0.95512  0.34443  0.95038  Biso   1.000  Zn
  Zn58     1.0000 0.87408  0.29226  0.92870  Biso   1.000  Zn
  Zn59     1.0000 0.94249  0.32706  0.89177  Biso   1.000  Zn
  Zn60     1.0000 0.02546  0.28927  0.28027  Biso   1.000  Zn
  S45      1.0000 0.00582  0.45491  0.99970  Biso   1.000  S
  S46      1.0000 0.96717  0.48161  0.96942  Biso   1.000  S
  H364     1.0000 0.95250  0.48490  0.95720  Biso   1.000  H
  H365     1.0000 0.01890  0.43740  0.00790  Biso   1.000  H
  C639     1.0000 0.15970  0.30407  0.30948  Biso   1.000  C
  S47      1.0000 0.12511  0.33570  0.33932  Biso   1.000  S
  H366     1.0000 0.10820  0.34270  0.34530  Biso   1.000  H
  H367     1.0000 0.16480  0.29120  0.29680  Biso   1.000  H
  C640     1.0000 0.18677  0.36595  0.37325  Biso   1.000  C
  S48      1.0000 0.21992  0.33383  0.34303  Biso   1.000  S
  H368     1.0000 0.23580  0.32590  0.33650  Biso   1.000  H
  H369     1.0000 0.18190  0.37870  0.38610  Biso   1.000  H
  O199     1.0000 0.92160  0.33513  0.92206  Biso   1.000  O
  O200     1.0000 0.97251  0.39271  0.96525  Biso   1.000  O
  O201     1.0000 0.94237  0.41495  0.94213  Biso   1.000  O
  O202     1.0000 0.93306  0.39795  0.88328  Biso   1.000  O
  O203     1.0000 0.95300  0.36316  0.86624  Biso   1.000  O
  O204     1.0000 0.98904  0.32931  0.89884  Biso   1.000  O
  O205     1.0000 0.99765  0.34125  0.93975  Biso   1.000  O
  O206     1.0000 0.93002  0.30787  0.97717  Biso   1.000  O
  O207     1.0000 0.87457  0.27370  0.96244  Biso   1.000  O
  O208     1.0000 0.83556  0.30509  0.92846  Biso   1.000  O
  O209     1.0000 0.86409  0.36360  0.91815  Biso   1.000  O
  O210     1.0000 0.86198  0.25380  0.90247  Biso   1.000  O
  O211     1.0000 0.91023  0.27995  0.87735  Biso   1.000  O
  O212     1.0000 0.09552  0.27690  0.27944  Biso   1.000  O
  O213     1.0000 0.06889  0.30366  0.30125  Biso   1.000  O
  O214     1.0000 0.94779  0.21005  0.21985  Biso   1.000  O
  O215     1.0000 0.98331  0.25985  0.19877  Biso   1.000  O
  O216     1.0000 0.02360  0.33214  0.27119  Biso   1.000  O
  C641     1.0000 0.96270  0.41570  0.96003  Biso   1.000  C
  C642     1.0000 0.97630  0.44840  0.97421  Biso   1.000  C
  C643     1.0000 0.00897  0.49421  0.00818  Biso   1.000  C
  C644     1.0000 0.83540  0.33410  0.92402  Biso   1.000  C
  C645     1.0000 0.79980  0.33340  0.92504  Biso   1.000  C
  C646     1.0000 0.79840  0.36110  0.91640  Biso   1.000  C
  H370     1.0000 0.81910  0.38080  0.90840  Biso   1.000  H
  C647     1.0000 0.76630  0.36180  0.91890  Biso   1.000  C
  H371     1.0000 0.76620  0.38390  0.91560  Biso   1.000  H
  C648     1.0000 0.73530  0.33250  0.92584  Biso   1.000  C
  C649     1.0000 0.73700  0.30450  0.93470  Biso   1.000  C
  H372     1.0000 0.71590  0.28410  0.94180  Biso   1.000  H
  C650     1.0000 0.77070  0.30490  0.93350  Biso   1.000  C
  H373     1.0000 0.77210  0.28420  0.93910  Biso   1.000  H
  C651     1.0000 0.69910  0.33310  0.92690  Biso   1.000  C
  C652     1.0000 0.66670  0.30130  0.92790  Biso   1.000  C
  H374     1.0000 0.66660  0.27880  0.92930  Biso   1.000  H
  C653     1.0000 0.94690  0.38810  0.86541  Biso   1.000  C
  C654     1.0000 0.95660  0.41140  0.84201  Biso   1.000  C
  C655     1.0000 0.97560  0.40560  0.82370  Biso   1.000  C
  H375     1.0000 0.98390  0.38880  0.82680  Biso   1.000  H
  C656     1.0000 0.98320  0.42410  0.79996  Biso   1.000  C
  H376     1.0000 0.99620  0.42010  0.78670  Biso   1.000  H
  C657     1.0000 0.97010  0.44880  0.79750  Biso   1.000  C
  C658     1.0000 0.95050  0.45620  0.81650  Biso   1.000  C
  H377     1.0000 0.94280  0.47360  0.81400  Biso   1.000  H
  C659     1.0000 0.94320  0.43590  0.83944  Biso   1.000  C
  H378     1.0000 0.92960  0.43880  0.85270  Biso   1.000  H
  C660     1.0000 0.89780  0.28190  0.97970  Biso   1.000  C
  C661     1.0000 0.88860  0.26070  0.00219  Biso   1.000  C
  C662     1.0000 0.91260  0.26310  0.02030  Biso   1.000  C
  H379     1.0000 0.93810  0.27930  0.01790  Biso   1.000  H
  C663     1.0000 0.90030  0.24210  0.04231  Biso   1.000  C
  H380     1.0000 0.91820  0.24570  0.05470  Biso   1.000  H
  C664     1.0000 0.86630  0.21780  0.04753  Biso   1.000  C
  C665     1.0000 0.84230  0.21920  0.02980  Biso   1.000  C
  H381     1.0000 0.81680  0.20570  0.03380  Biso   1.000  H
  C666     1.0000 0.85220  0.23880  0.00649  Biso   1.000  C
  H382     1.0000 0.83420  0.23660  0.99450  Biso   1.000  H
  C667     1.0000 0.85570  0.19600  0.06953  Biso   1.000  C
  C668     1.0000 0.87650  0.20640  0.09154  Biso   1.000  C
  H383     1.0000 0.89930  0.22850  0.09240  Biso   1.000  H
  C669     1.0000 0.86300  0.18380  0.11176  Biso   1.000  C
  C670     1.0000 0.83030  0.15010  0.11150  Biso   1.000  C
  H384     1.0000 0.82240  0.13460  0.12600  Biso   1.000  H
  C671     1.0000 0.80930  0.13990  0.08885  Biso   1.000  C
  C672     1.0000 0.82140  0.16090  0.06752  Biso   1.000  C
  H385     1.0000 0.80820  0.15320  0.05200  Biso   1.000  H
  C673     1.0000 0.77430  0.10540  0.08724  Biso   1.000  C
  C674     1.0000 0.75980  0.08980  0.06450  Biso   1.000  C
  H386     1.0000 0.77340  0.09980  0.04930  Biso   1.000  H
  C675     1.0000 0.72360  0.05800  0.06340  Biso   1.000  C
  H387     1.0000 0.71150  0.04980  0.04750  Biso   1.000  H
  C676     1.0000 0.70730  0.04020  0.08449  Biso   1.000  C
  C677     1.0000 0.72310  0.05460  0.10673  Biso   1.000  C
  H388     1.0000 0.71170  0.04250  0.12220  Biso   1.000  H
  C678     1.0000 0.75670  0.08770  0.10730  Biso   1.000  C
  H389     1.0000 0.76710  0.09760  0.12340  Biso   1.000  H
  C679     1.0000 0.00642  0.33472  0.91852  Biso   1.000  C
  C680     1.0000 0.88610  0.19410  0.13500  Biso   1.000  C
  C681     1.0000 0.88130  0.17490  0.15510  Biso   1.000  C
  H390     1.0000 0.86110  0.15060  0.15500  Biso   1.000  H
  C682     1.0000 0.90290  0.18630  0.17741  Biso   1.000  C
  H391     1.0000 0.89650  0.16990  0.19140  Biso   1.000  H
  C683     1.0000 0.93000  0.21720  0.17894  Biso   1.000  C
  C684     1.0000 0.93320  0.23880  0.16010  Biso   1.000  C
  H392     1.0000 0.94980  0.26440  0.16180  Biso   1.000  H
  C685     1.0000 0.91310  0.22580  0.13750  Biso   1.000  C
  H393     1.0000 0.92040  0.24190  0.12320  Biso   1.000  H
  C686     1.0000 0.95630  0.22910  0.20086  Biso   1.000  C
  C687     1.0000 0.09280  0.29610  0.29741  Biso   1.000  C
  C688     1.0000 0.12600  0.31170  0.31576  Biso   1.000  C
  C689     1.0000 0.18090  0.32850  0.33475  Biso   1.000  C
  C690     1.0000 0.16460  0.34290  0.34873  Biso   1.000  C
  C691     1.0000 0.22100  0.35900  0.36757  Biso   1.000  C
  C692     1.0000 0.87910  0.25350  0.88290  Biso   1.000  C
  C693     1.0000 0.01790  0.39270  0.26978  Biso   1.000  C
  H394     1.0000 0.01430  0.37970  0.28520  Biso   1.000  H
  C694     1.0000 0.01790  0.42670  0.27072  Biso   1.000  C
  H395     1.0000 0.01760  0.43730  0.28660  Biso   1.000  H
  C695     1.0000 0.97660  0.47040  0.77311  Biso   1.000  C
  C696     1.0000 0.98360  0.50600  0.77294  Biso   1.000  C
  H396     1.0000 0.98570  0.51820  0.78860  Biso   1.000  H
  Zn61     1.0000 0.74631  0.81050  0.25000  Biso   1.000  Zn
  Zn62     1.0000 0.78396  0.76052  0.25000  Biso   1.000  Zn
  O217     1.0000 0.73828  0.76108  0.25000  Biso   1.000  O
  O218     1.0000 0.82353  0.81100  0.25000  Biso   1.000  O
  O219     1.0000 0.79839  0.84576  0.25000  Biso   1.000  O
  C697     1.0000 0.65420  0.67730  0.25000  Biso   1.000  C
  C698     1.0000 0.62070  0.64310  0.25000  Biso   1.000  C
  C699     1.0000 0.55770  0.57590  0.25000  Biso   1.000  C
  C700     1.0000 0.52410  0.53660  0.25000  Biso   1.000  C
  C701     1.0000 0.86290  0.87470  0.25000  Biso   1.000  C
  C702     1.0000 0.86330  0.90300  0.25000  Biso   1.000  C
  H397     1.0000 0.84120  0.90390  0.25000  Biso   1.000  H
  C703     1.0000 0.89890  0.93610  0.25000  Biso   1.000  C
  H398     1.0000 0.90020  0.95930  0.25000  Biso   1.000  H
  C704     1.0000 0.92910  0.93470  0.25000  Biso   1.000  C
  C705     1.0000 0.92570  0.90370  0.25000  Biso   1.000  C
  H399     1.0000 0.94700  0.90140  0.25000  Biso   1.000  H
  C706     1.0000 0.89110  0.87200  0.25000  Biso   1.000  C
  H400     1.0000 0.88900  0.84850  0.25000  Biso   1.000  H
  C707     1.0000 0.96580  0.96880  0.25000  Biso   1.000  C
  C708     1.0000 0.99770  0.96550  0.25000  Biso   1.000  C
  H401     1.0000 0.99580  0.94210  0.25000  Biso   1.000  H
  C709     1.0000 0.82500  0.84230  0.25000  Biso   1.000  C
  Zn63     1.0000 0.18950  0.93581  0.25000  Biso   1.000  Zn
  Zn64     1.0000 0.23948  0.02344  0.25000  Biso   1.000  Zn
  O220     1.0000 0.23892  0.97720  0.25000  Biso   1.000  O
  O221     1.0000 0.18900  0.01253  0.25000  Biso   1.000  O
  O222     1.0000 0.15424  0.95263  0.25000  Biso   1.000  O
  C710     1.0000 0.32270  0.97690  0.25000  Biso   1.000  C
  C711     1.0000 0.35690  0.97760  0.25000  Biso   1.000  C
  C712     1.0000 0.42410  0.98180  0.25000  Biso   1.000  C
  C713     1.0000 0.46340  0.98750  0.25000  Biso   1.000  C
  C714     1.0000 0.12530  0.98820  0.25000  Biso   1.000  C
  C715     1.0000 0.09700  0.96030  0.25000  Biso   1.000  C
  H402     1.0000 0.09610  0.93730  0.25000  Biso   1.000  H
  C716     1.0000 0.06390  0.96280  0.25000  Biso   1.000  C
  H403     1.0000 0.04070  0.94090  0.25000  Biso   1.000  H
  C717     1.0000 0.06530  0.99440  0.25000  Biso   1.000  C
  C718     1.0000 0.09630  0.02200  0.25000  Biso   1.000  C
  H404     1.0000 0.09860  0.04560  0.25000  Biso   1.000  H
  C719     1.0000 0.12800  0.01910  0.25000  Biso   1.000  C
  H405     1.0000 0.15150  0.04050  0.25000  Biso   1.000  H
  C720     1.0000 0.03120  0.99700  0.25000  Biso   1.000  C
  C721     1.0000 0.03450  0.03220  0.25000  Biso   1.000  C
  H406     1.0000 0.05790  0.05370  0.25000  Biso   1.000  H
  C722     1.0000 0.15770  0.98270  0.25000  Biso   1.000  C
  Zn65     1.0000 0.06419  0.25369  0.25000  Biso   1.000  Zn
  Zn66     1.0000 0.97656  0.21604  0.25000  Biso   1.000  Zn
  O223     1.0000 0.02280  0.26172  0.25000  Biso   1.000  O
  O224     1.0000 0.98747  0.17647  0.25000  Biso   1.000  O
  O225     1.0000 0.04737  0.20161  0.25000  Biso   1.000  O
  C723     1.0000 0.02310  0.34580  0.25000  Biso   1.000  C
  C724     1.0000 0.02240  0.37930  0.25000  Biso   1.000  C
  C725     1.0000 0.01820  0.44230  0.25000  Biso   1.000  C
  C726     1.0000 0.01250  0.47590  0.25000  Biso   1.000  C
  C727     1.0000 0.01180  0.13710  0.25000  Biso   1.000  C
  C728     1.0000 0.03970  0.13670  0.25000  Biso   1.000  C
  H407     1.0000 0.06270  0.15880  0.25000  Biso   1.000  H
  C729     1.0000 0.03720  0.10110  0.25000  Biso   1.000  C
  H408     1.0000 0.05910  0.09980  0.25000  Biso   1.000  H
  C730     1.0000 0.00560  0.07090  0.25000  Biso   1.000  C
  C731     1.0000 0.97800  0.07430  0.25000  Biso   1.000  C
  H409     1.0000 0.95440  0.05300  0.25000  Biso   1.000  H
  C732     1.0000 0.98090  0.10890  0.25000  Biso   1.000  C
  H410     1.0000 0.95950  0.11100  0.25000  Biso   1.000  H
  C733     1.0000 0.00300  0.03420  0.25000  Biso   1.000  C
  C734     1.0000 0.96780  0.00230  0.25000  Biso   1.000  C
  H411     1.0000 0.94630  0.00420  0.25000  Biso   1.000  H
  C735     1.0000 0.01730  0.17500  0.25000  Biso   1.000  C
  Zn67     1.0000 0.25369  0.18950  0.75000  Biso   1.000  Zn
  Zn68     1.0000 0.21604  0.23948  0.75000  Biso   1.000  Zn
  O226     1.0000 0.26172  0.23892  0.75000  Biso   1.000  O
  O227     1.0000 0.17647  0.18900  0.75000  Biso   1.000  O
  O228     1.0000 0.20161  0.15424  0.75000  Biso   1.000  O
  C736     1.0000 0.34580  0.32270  0.75000  Biso   1.000  C
  C737     1.0000 0.37930  0.35690  0.75000  Biso   1.000  C
  C738     1.0000 0.44230  0.42410  0.75000  Biso   1.000  C
  C739     1.0000 0.47590  0.46340  0.75000  Biso   1.000  C
  C740     1.0000 0.13710  0.12530  0.75000  Biso   1.000  C
  C741     1.0000 0.13670  0.09700  0.75000  Biso   1.000  C
  H412     1.0000 0.15880  0.09610  0.75000  Biso   1.000  H
  C742     1.0000 0.10110  0.06390  0.75000  Biso   1.000  C
  H413     1.0000 0.09980  0.04070  0.75000  Biso   1.000  H
  C743     1.0000 0.07090  0.06530  0.75000  Biso   1.000  C
  C744     1.0000 0.07430  0.09630  0.75000  Biso   1.000  C
  H414     1.0000 0.05300  0.09860  0.75000  Biso   1.000  H
  C745     1.0000 0.10890  0.12800  0.75000  Biso   1.000  C
  H415     1.0000 0.11100  0.15150  0.75000  Biso   1.000  H
  C746     1.0000 0.03420  0.03120  0.75000  Biso   1.000  C
  C747     1.0000 0.00230  0.03450  0.75000  Biso   1.000  C
  H416     1.0000 0.00420  0.05790  0.75000  Biso   1.000  H
  C748     1.0000 0.17500  0.15770  0.75000  Biso   1.000  C
  Zn69     1.0000 0.81050  0.06419  0.75000  Biso   1.000  Zn
  Zn70     1.0000 0.76052  0.97656  0.75000  Biso   1.000  Zn
  O229     1.0000 0.76108  0.02280  0.75000  Biso   1.000  O
  O230     1.0000 0.81100  0.98747  0.75000  Biso   1.000  O
  O231     1.0000 0.84576  0.04737  0.75000  Biso   1.000  O
  C749     1.0000 0.67730  0.02310  0.75000  Biso   1.000  C
  C750     1.0000 0.64310  0.02240  0.75000  Biso   1.000  C
  C751     1.0000 0.57590  0.01820  0.75000  Biso   1.000  C
  C752     1.0000 0.53660  0.01250  0.75000  Biso   1.000  C
  C753     1.0000 0.87470  0.01180  0.75000  Biso   1.000  C
  C754     1.0000 0.90300  0.03970  0.75000  Biso   1.000  C
  H417     1.0000 0.90390  0.06270  0.75000  Biso   1.000  H
  C755     1.0000 0.93610  0.03720  0.75000  Biso   1.000  C
  H418     1.0000 0.95930  0.05910  0.75000  Biso   1.000  H
  C756     1.0000 0.93470  0.00560  0.75000  Biso   1.000  C
  C757     1.0000 0.90370  0.97800  0.75000  Biso   1.000  C
  H419     1.0000 0.90140  0.95440  0.75000  Biso   1.000  H
  C758     1.0000 0.87200  0.98090  0.75000  Biso   1.000  C
  H420     1.0000 0.84850  0.95950  0.75000  Biso   1.000  H
  C759     1.0000 0.96880  0.00300  0.75000  Biso   1.000  C
  C760     1.0000 0.96550  0.96780  0.75000  Biso   1.000  C
  H421     1.0000 0.94210  0.94630  0.75000  Biso   1.000  H
  C761     1.0000 0.84230  0.01730  0.75000  Biso   1.000  C
  Zn71     1.0000 0.93581  0.74631  0.75000  Biso   1.000  Zn
  Zn72     1.0000 0.02344  0.78396  0.75000  Biso   1.000  Zn
  O232     1.0000 0.97720  0.73828  0.75000  Biso   1.000  O
  O233     1.0000 0.01253  0.82353  0.75000  Biso   1.000  O
  O234     1.0000 0.95263  0.79839  0.75000  Biso   1.000  O
  C762     1.0000 0.97690  0.65420  0.75000  Biso   1.000  C
  C763     1.0000 0.97760  0.62070  0.75000  Biso   1.000  C
  C764     1.0000 0.98180  0.55770  0.75000  Biso   1.000  C
  C765     1.0000 0.98750  0.52410  0.75000  Biso   1.000  C
  C766     1.0000 0.98820  0.86290  0.75000  Biso   1.000  C
  C767     1.0000 0.96030  0.86330  0.75000  Biso   1.000  C
  H422     1.0000 0.93730  0.84120  0.75000  Biso   1.000  H
  C768     1.0000 0.96280  0.89890  0.75000  Biso   1.000  C
  H423     1.0000 0.94090  0.90020  0.75000  Biso   1.000  H
  C769     1.0000 0.99440  0.92910  0.75000  Biso   1.000  C
  C770     1.0000 0.02200  0.92570  0.75000  Biso   1.000  C
  H424     1.0000 0.04560  0.94700  0.75000  Biso   1.000  H
  C771     1.0000 0.01910  0.89110  0.75000  Biso   1.000  C
  H425     1.0000 0.04050  0.88900  0.75000  Biso   1.000  H
  C772     1.0000 0.99700  0.96580  0.75000  Biso   1.000  C
  C773     1.0000 0.03220  0.99770  0.75000  Biso   1.000  C
  H426     1.0000 0.05370  0.99580  0.75000  Biso   1.000  H
  C774     1.0000 0.98270  0.82500  0.75000  Biso   1.000  C
  C775     1.0000 0.54670  0.52270  0.75000  Biso   1.000  C
  H427     1.0000 0.56960  0.54480  0.75000  Biso   1.000  H
  C776     1.0000 0.47730  0.02400  0.75000  Biso   1.000  C
  H428     1.0000 0.45520  0.02480  0.75000  Biso   1.000  H
  C777     1.0000 0.97600  0.45330  0.75000  Biso   1.000  C
  H429     1.0000 0.97520  0.43040  0.75000  Biso   1.000  H
  C778     1.0000 0.45330  0.47730  0.25000  Biso   1.000  C
  H430     1.0000 0.43040  0.45520  0.25000  Biso   1.000  H
  C779     1.0000 0.52270  0.97600  0.25000  Biso   1.000  C
  H431     1.0000 0.54480  0.97520  0.25000  Biso   1.000  H
  C780     1.0000 0.02400  0.54670  0.25000  Biso   1.000  C
  H432     1.0000 0.02480  0.56960  0.25000  Biso   1.000  H
