data_image0
_cell_length_a       49.365
_cell_length_b       49.365
_cell_length_c       49.365
_cell_angle_alpha    90
_cell_angle_beta     90
_cell_angle_gamma    90

_symmetry_space_group_name_H-M    "P 1"
_symmetry_int_tables_number       1

loop_
  _symmetry_equiv_pos_as_xyz
  'x, y, z'

loop_
  _atom_site_label
  _atom_site_occupancy
  _atom_site_fract_x
  _atom_site_fract_y
  _atom_site_fract_z
  _atom_site_thermal_displace_type
  _atom_site_B_iso_or_equiv
  _atom_site_type_symbol
  O1       1.0000 0.25187  0.42023  0.97577  Biso   1.000  O
  O2       1.0000 0.21111  0.44804  0.94731  Biso   1.000  O
  O3       1.0000 0.17675  0.52756  0.02887  Biso   1.000  O
  O4       1.0000 0.98020  0.92970  0.04000  Biso   1.000  O
  C1       1.0000 0.26600  0.36520  0.02590  Biso   1.000  C
  H1       1.0000 0.26560  0.37460  0.04230  Biso   1.000  H
  C2       1.0000 0.27070  0.33770  0.02500  Biso   1.000  C
  H2       1.0000 0.27220  0.32770  0.04090  Biso   1.000  H
  C3       1.0000 0.29520  0.23080  0.02190  Biso   1.000  C
  C4       1.0000 0.18690  0.54600  0.04620  Biso   1.000  C
  C5       1.0000 0.16540  0.55950  0.06220  Biso   1.000  C
  C6       1.0000 0.17235  0.57820  0.08210  Biso   1.000  C
  H3       1.0000 0.19040  0.58080  0.08670  Biso   1.000  H
  C7       1.0000 0.15230  0.59290  0.09530  Biso   1.000  C
  H4       1.0000 0.15690  0.60530  0.10860  Biso   1.000  H
  C8       1.0000 0.12520  0.58890  0.08850  Biso   1.000  C
  C9       1.0000 0.11826  0.57020  0.06860  Biso   1.000  C
  H5       1.0000 0.10020  0.56760  0.06410  Biso   1.000  H
  C10      1.0000 0.13840  0.55550  0.05550  Biso   1.000  C
  H6       1.0000 0.13370  0.54310  0.04210  Biso   1.000  H
  C11      1.0000 0.10430  0.60520  0.10160  Biso   1.000  C
  C12      1.0000 0.08760  0.61900  0.11180  Biso   1.000  C
  C13      1.0000 0.06660  0.63700  0.12280  Biso   1.000  C
  C14      1.0000 0.05680  0.63170  0.14860  Biso   1.000  C
  C15      1.0000 0.03640  0.64780  0.15960  Biso   1.000  C
  C16      1.0000 0.02595  0.66930  0.14460  Biso   1.000  C
  C17      1.0000 0.03580  0.67460  0.11880  Biso   1.000  C
  C18      1.0000 0.05610  0.65840  0.10790  Biso   1.000  C
  C19      1.0000 0.02130  0.73320  0.14270  Biso   1.000  C
  C20      1.0000 0.02130  0.75960  0.13510  Biso   1.000  C
  C21      1.0000 0.97640  0.86210  0.08630  Biso   1.000  C
  H7       1.0000 0.96110  0.85610  0.09540  Biso   1.000  H
  C22      1.0000 0.97680  0.88660  0.07260  Biso   1.000  C
  H8       1.0000 0.96020  0.89480  0.06880  Biso   1.000  H
  C23      1.0000 0.02280  0.69750  0.20400  Biso   1.000  C
  F1       1.0000 0.02770  0.64340  0.18260  Biso   1.000  F
  F2       1.0000 0.06580  0.61170  0.16330  Biso   1.000  F
  F3       1.0000 0.06750  0.66100  0.08410  Biso   1.000  F
  F4       1.0000 0.02580  0.69100  0.10400  Biso   1.000  F
  F5       1.0000 0.04590  0.72030  0.14280  Biso   1.000  F
  F6       1.0000 0.04510  0.77370  0.13100  Biso   1.000  F
  F7       1.0000 0.04610  0.69230  0.19150  Biso   1.000  F
  F8       1.0000 0.29370  0.24540  0.04530  Biso   1.000  F
  O5       1.0000 0.74813  0.57977  0.97577  Biso   1.000  O
  O6       1.0000 0.78889  0.55196  0.94731  Biso   1.000  O
  O7       1.0000 0.82325  0.47244  0.02887  Biso   1.000  O
  O8       1.0000 0.01980  0.07030  0.04000  Biso   1.000  O
  C24      1.0000 0.73400  0.63480  0.02590  Biso   1.000  C
  H9       1.0000 0.73440  0.62540  0.04230  Biso   1.000  H
  C25      1.0000 0.72930  0.66230  0.02500  Biso   1.000  C
  H10      1.0000 0.72780  0.67230  0.04090  Biso   1.000  H
  C26      1.0000 0.70480  0.76920  0.02190  Biso   1.000  C
  C27      1.0000 0.81310  0.45400  0.04620  Biso   1.000  C
  C28      1.0000 0.83460  0.44050  0.06220  Biso   1.000  C
  C29      1.0000 0.82765  0.42180  0.08210  Biso   1.000  C
  H11      1.0000 0.80960  0.41920  0.08670  Biso   1.000  H
  C30      1.0000 0.84770  0.40710  0.09530  Biso   1.000  C
  H12      1.0000 0.84310  0.39470  0.10860  Biso   1.000  H
  C31      1.0000 0.87480  0.41110  0.08850  Biso   1.000  C
  C32      1.0000 0.88174  0.42980  0.06860  Biso   1.000  C
  H13      1.0000 0.89980  0.43240  0.06410  Biso   1.000  H
  C33      1.0000 0.86160  0.44450  0.05550  Biso   1.000  C
  H14      1.0000 0.86630  0.45690  0.04210  Biso   1.000  H
  C34      1.0000 0.89570  0.39480  0.10160  Biso   1.000  C
  C35      1.0000 0.91240  0.38100  0.11180  Biso   1.000  C
  C36      1.0000 0.93340  0.36300  0.12280  Biso   1.000  C
  C37      1.0000 0.94320  0.36830  0.14860  Biso   1.000  C
  C38      1.0000 0.96360  0.35220  0.15960  Biso   1.000  C
  C39      1.0000 0.97405  0.33070  0.14460  Biso   1.000  C
  C40      1.0000 0.96420  0.32540  0.11880  Biso   1.000  C
  C41      1.0000 0.94390  0.34160  0.10790  Biso   1.000  C
  C42      1.0000 0.97870  0.26680  0.14270  Biso   1.000  C
  C43      1.0000 0.97870  0.24040  0.13510  Biso   1.000  C
  C44      1.0000 0.02360  0.13790  0.08630  Biso   1.000  C
  H15      1.0000 0.03890  0.14390  0.09540  Biso   1.000  H
  C45      1.0000 0.02320  0.11340  0.07260  Biso   1.000  C
  H16      1.0000 0.03980  0.10520  0.06880  Biso   1.000  H
  C46      1.0000 0.97720  0.30250  0.20400  Biso   1.000  C
  F9       1.0000 0.97230  0.35660  0.18260  Biso   1.000  F
  F10      1.0000 0.93420  0.38830  0.16330  Biso   1.000  F
  F11      1.0000 0.93250  0.33900  0.08410  Biso   1.000  F
  F12      1.0000 0.97420  0.30900  0.10400  Biso   1.000  F
  F13      1.0000 0.95410  0.27970  0.14280  Biso   1.000  F
  F14      1.0000 0.95490  0.22630  0.13100  Biso   1.000  F
  F15      1.0000 0.95390  0.30770  0.19150  Biso   1.000  F
  F16      1.0000 0.70630  0.75460  0.04530  Biso   1.000  F
  O9       1.0000 0.74813  0.42023  0.02423  Biso   1.000  O
  O10      1.0000 0.78889  0.44804  0.05269  Biso   1.000  O
  O11      1.0000 0.82325  0.52756  0.97113  Biso   1.000  O
  O12      1.0000 0.01980  0.92970  0.96000  Biso   1.000  O
  C47      1.0000 0.73400  0.36520  0.97410  Biso   1.000  C
  H17      1.0000 0.73440  0.37460  0.95770  Biso   1.000  H
  C48      1.0000 0.72930  0.33770  0.97500  Biso   1.000  C
  H18      1.0000 0.72780  0.32770  0.95910  Biso   1.000  H
  C49      1.0000 0.70480  0.23080  0.97810  Biso   1.000  C
  C50      1.0000 0.81310  0.54600  0.95380  Biso   1.000  C
  C51      1.0000 0.83460  0.55950  0.93780  Biso   1.000  C
  C52      1.0000 0.82765  0.57820  0.91790  Biso   1.000  C
  H19      1.0000 0.80960  0.58080  0.91330  Biso   1.000  H
  C53      1.0000 0.84770  0.59290  0.90470  Biso   1.000  C
  H20      1.0000 0.84310  0.60530  0.89140  Biso   1.000  H
  C54      1.0000 0.87480  0.58890  0.91150  Biso   1.000  C
  C55      1.0000 0.88174  0.57020  0.93140  Biso   1.000  C
  H21      1.0000 0.89980  0.56760  0.93590  Biso   1.000  H
  C56      1.0000 0.86160  0.55550  0.94450  Biso   1.000  C
  H22      1.0000 0.86630  0.54310  0.95790  Biso   1.000  H
  C57      1.0000 0.89570  0.60520  0.89840  Biso   1.000  C
  C58      1.0000 0.91240  0.61900  0.88820  Biso   1.000  C
  C59      1.0000 0.93340  0.63700  0.87720  Biso   1.000  C
  C60      1.0000 0.94320  0.63170  0.85140  Biso   1.000  C
  C61      1.0000 0.96360  0.64780  0.84040  Biso   1.000  C
  C62      1.0000 0.97405  0.66930  0.85540  Biso   1.000  C
  C63      1.0000 0.96420  0.67460  0.88120  Biso   1.000  C
  C64      1.0000 0.94390  0.65840  0.89210  Biso   1.000  C
  C65      1.0000 0.97870  0.73320  0.85730  Biso   1.000  C
  C66      1.0000 0.97870  0.75960  0.86490  Biso   1.000  C
  C67      1.0000 0.02360  0.86210  0.91370  Biso   1.000  C
  H23      1.0000 0.03890  0.85610  0.90460  Biso   1.000  H
  C68      1.0000 0.02320  0.88660  0.92740  Biso   1.000  C
  H24      1.0000 0.03980  0.89480  0.93120  Biso   1.000  H
  C69      1.0000 0.97720  0.69750  0.79600  Biso   1.000  C
  F17      1.0000 0.97230  0.64340  0.81740  Biso   1.000  F
  F18      1.0000 0.93420  0.61170  0.83670  Biso   1.000  F
  F19      1.0000 0.93250  0.66100  0.91590  Biso   1.000  F
  F20      1.0000 0.97420  0.69100  0.89600  Biso   1.000  F
  F21      1.0000 0.95410  0.72030  0.85720  Biso   1.000  F
  F22      1.0000 0.95490  0.77370  0.86900  Biso   1.000  F
  F23      1.0000 0.95390  0.69230  0.80850  Biso   1.000  F
  F24      1.0000 0.70630  0.24540  0.95470  Biso   1.000  F
  O13      1.0000 0.25187  0.57977  0.02423  Biso   1.000  O
  O14      1.0000 0.21111  0.55196  0.05269  Biso   1.000  O
  O15      1.0000 0.17675  0.47244  0.97113  Biso   1.000  O
  O16      1.0000 0.98020  0.07030  0.96000  Biso   1.000  O
  C70      1.0000 0.26600  0.63480  0.97410  Biso   1.000  C
  H25      1.0000 0.26560  0.62540  0.95770  Biso   1.000  H
  C71      1.0000 0.27070  0.66230  0.97500  Biso   1.000  C
  H26      1.0000 0.27220  0.67230  0.95910  Biso   1.000  H
  C72      1.0000 0.29520  0.76920  0.97810  Biso   1.000  C
  C73      1.0000 0.18690  0.45400  0.95380  Biso   1.000  C
  C74      1.0000 0.16540  0.44050  0.93780  Biso   1.000  C
  C75      1.0000 0.17235  0.42180  0.91790  Biso   1.000  C
  H27      1.0000 0.19040  0.41920  0.91330  Biso   1.000  H
  C76      1.0000 0.15230  0.40710  0.90470  Biso   1.000  C
  H28      1.0000 0.15690  0.39470  0.89140  Biso   1.000  H
  C77      1.0000 0.12520  0.41110  0.91150  Biso   1.000  C
  C78      1.0000 0.11826  0.42980  0.93140  Biso   1.000  C
  H29      1.0000 0.10020  0.43240  0.93590  Biso   1.000  H
  C79      1.0000 0.13840  0.44450  0.94450  Biso   1.000  C
  H30      1.0000 0.13370  0.45690  0.95790  Biso   1.000  H
  C80      1.0000 0.10430  0.39480  0.89840  Biso   1.000  C
  C81      1.0000 0.08760  0.38100  0.88820  Biso   1.000  C
  C82      1.0000 0.06660  0.36300  0.87720  Biso   1.000  C
  C83      1.0000 0.05680  0.36830  0.85140  Biso   1.000  C
  C84      1.0000 0.03640  0.35220  0.84040  Biso   1.000  C
  C85      1.0000 0.02595  0.33070  0.85540  Biso   1.000  C
  C86      1.0000 0.03580  0.32540  0.88120  Biso   1.000  C
  C87      1.0000 0.05610  0.34160  0.89210  Biso   1.000  C
  C88      1.0000 0.02130  0.26680  0.85730  Biso   1.000  C
  C89      1.0000 0.02130  0.24040  0.86490  Biso   1.000  C
  C90      1.0000 0.97640  0.13790  0.91370  Biso   1.000  C
  H31      1.0000 0.96110  0.14390  0.90460  Biso   1.000  H
  C91      1.0000 0.97680  0.11340  0.92740  Biso   1.000  C
  H32      1.0000 0.96020  0.10520  0.93120  Biso   1.000  H
  C92      1.0000 0.02280  0.30250  0.79600  Biso   1.000  C
  F25      1.0000 0.02770  0.35660  0.81740  Biso   1.000  F
  F26      1.0000 0.06580  0.38830  0.83670  Biso   1.000  F
  F27      1.0000 0.06750  0.33900  0.91590  Biso   1.000  F
  F28      1.0000 0.02580  0.30900  0.89600  Biso   1.000  F
  F29      1.0000 0.04590  0.27970  0.85720  Biso   1.000  F
  F30      1.0000 0.04510  0.22630  0.86900  Biso   1.000  F
  F31      1.0000 0.04610  0.30770  0.80850  Biso   1.000  F
  F32      1.0000 0.29370  0.75460  0.95470  Biso   1.000  F
  O17      1.0000 0.97577  0.25187  0.42023  Biso   1.000  O
  O18      1.0000 0.94731  0.21111  0.44804  Biso   1.000  O
  O19      1.0000 0.02887  0.17675  0.52756  Biso   1.000  O
  O20      1.0000 0.04000  0.98020  0.92970  Biso   1.000  O
  C93      1.0000 0.02590  0.26600  0.36520  Biso   1.000  C
  H33      1.0000 0.04230  0.26560  0.37460  Biso   1.000  H
  C94      1.0000 0.02500  0.27070  0.33770  Biso   1.000  C
  H34      1.0000 0.04090  0.27220  0.32770  Biso   1.000  H
  C95      1.0000 0.02190  0.29520  0.23080  Biso   1.000  C
  C96      1.0000 0.04620  0.18690  0.54600  Biso   1.000  C
  C97      1.0000 0.06220  0.16540  0.55950  Biso   1.000  C
  C98      1.0000 0.08210  0.17235  0.57820  Biso   1.000  C
  H35      1.0000 0.08670  0.19040  0.58080  Biso   1.000  H
  C99      1.0000 0.09530  0.15230  0.59290  Biso   1.000  C
  H36      1.0000 0.10860  0.15690  0.60530  Biso   1.000  H
  C100     1.0000 0.08850  0.12520  0.58890  Biso   1.000  C
  C101     1.0000 0.06860  0.11826  0.57020  Biso   1.000  C
  H37      1.0000 0.06410  0.10020  0.56760  Biso   1.000  H
  C102     1.0000 0.05550  0.13840  0.55550  Biso   1.000  C
  H38      1.0000 0.04210  0.13370  0.54310  Biso   1.000  H
  C103     1.0000 0.10160  0.10430  0.60520  Biso   1.000  C
  C104     1.0000 0.11180  0.08760  0.61900  Biso   1.000  C
  C105     1.0000 0.12280  0.06660  0.63700  Biso   1.000  C
  C106     1.0000 0.14860  0.05680  0.63170  Biso   1.000  C
  C107     1.0000 0.15960  0.03640  0.64780  Biso   1.000  C
  C108     1.0000 0.14460  0.02595  0.66930  Biso   1.000  C
  C109     1.0000 0.11880  0.03580  0.67460  Biso   1.000  C
  C110     1.0000 0.10790  0.05610  0.65840  Biso   1.000  C
  C111     1.0000 0.14270  0.02130  0.73320  Biso   1.000  C
  C112     1.0000 0.13510  0.02130  0.75960  Biso   1.000  C
  C113     1.0000 0.08630  0.97640  0.86210  Biso   1.000  C
  H39      1.0000 0.09540  0.96110  0.85610  Biso   1.000  H
  C114     1.0000 0.07260  0.97680  0.88660  Biso   1.000  C
  H40      1.0000 0.06880  0.96020  0.89480  Biso   1.000  H
  C115     1.0000 0.20400  0.02280  0.69750  Biso   1.000  C
  F33      1.0000 0.18260  0.02770  0.64340  Biso   1.000  F
  F34      1.0000 0.16330  0.06580  0.61170  Biso   1.000  F
  F35      1.0000 0.08410  0.06750  0.66100  Biso   1.000  F
  F36      1.0000 0.10400  0.02580  0.69100  Biso   1.000  F
  F37      1.0000 0.14280  0.04590  0.72030  Biso   1.000  F
  F38      1.0000 0.13100  0.04510  0.77370  Biso   1.000  F
  F39      1.0000 0.19150  0.04610  0.69230  Biso   1.000  F
  F40      1.0000 0.04530  0.29370  0.24540  Biso   1.000  F
  O21      1.0000 0.97577  0.74813  0.57977  Biso   1.000  O
  O22      1.0000 0.94731  0.78889  0.55196  Biso   1.000  O
  O23      1.0000 0.02887  0.82325  0.47244  Biso   1.000  O
  O24      1.0000 0.04000  0.01980  0.07030  Biso   1.000  O
  C116     1.0000 0.02590  0.73400  0.63480  Biso   1.000  C
  H41      1.0000 0.04230  0.73440  0.62540  Biso   1.000  H
  C117     1.0000 0.02500  0.72930  0.66230  Biso   1.000  C
  H42      1.0000 0.04090  0.72780  0.67230  Biso   1.000  H
  C118     1.0000 0.02190  0.70480  0.76920  Biso   1.000  C
  C119     1.0000 0.04620  0.81310  0.45400  Biso   1.000  C
  C120     1.0000 0.06220  0.83460  0.44050  Biso   1.000  C
  C121     1.0000 0.08210  0.82765  0.42180  Biso   1.000  C
  H43      1.0000 0.08670  0.80960  0.41920  Biso   1.000  H
  C122     1.0000 0.09530  0.84770  0.40710  Biso   1.000  C
  H44      1.0000 0.10860  0.84310  0.39470  Biso   1.000  H
  C123     1.0000 0.08850  0.87480  0.41110  Biso   1.000  C
  C124     1.0000 0.06860  0.88174  0.42980  Biso   1.000  C
  H45      1.0000 0.06410  0.89980  0.43240  Biso   1.000  H
  C125     1.0000 0.05550  0.86160  0.44450  Biso   1.000  C
  H46      1.0000 0.04210  0.86630  0.45690  Biso   1.000  H
  C126     1.0000 0.10160  0.89570  0.39480  Biso   1.000  C
  C127     1.0000 0.11180  0.91240  0.38100  Biso   1.000  C
  C128     1.0000 0.12280  0.93340  0.36300  Biso   1.000  C
  C129     1.0000 0.14860  0.94320  0.36830  Biso   1.000  C
  C130     1.0000 0.15960  0.96360  0.35220  Biso   1.000  C
  C131     1.0000 0.14460  0.97405  0.33070  Biso   1.000  C
  C132     1.0000 0.11880  0.96420  0.32540  Biso   1.000  C
  C133     1.0000 0.10790  0.94390  0.34160  Biso   1.000  C
  C134     1.0000 0.14270  0.97870  0.26680  Biso   1.000  C
  C135     1.0000 0.13510  0.97870  0.24040  Biso   1.000  C
  C136     1.0000 0.08630  0.02360  0.13790  Biso   1.000  C
  H47      1.0000 0.09540  0.03890  0.14390  Biso   1.000  H
  C137     1.0000 0.07260  0.02320  0.11340  Biso   1.000  C
  H48      1.0000 0.06880  0.03980  0.10520  Biso   1.000  H
  C138     1.0000 0.20400  0.97720  0.30250  Biso   1.000  C
  F41      1.0000 0.18260  0.97230  0.35660  Biso   1.000  F
  F42      1.0000 0.16330  0.93420  0.38830  Biso   1.000  F
  F43      1.0000 0.08410  0.93250  0.33900  Biso   1.000  F
  F44      1.0000 0.10400  0.97420  0.30900  Biso   1.000  F
  F45      1.0000 0.14280  0.95410  0.27970  Biso   1.000  F
  F46      1.0000 0.13100  0.95490  0.22630  Biso   1.000  F
  F47      1.0000 0.19150  0.95390  0.30770  Biso   1.000  F
  F48      1.0000 0.04530  0.70630  0.75460  Biso   1.000  F
  O25      1.0000 0.02423  0.74813  0.42023  Biso   1.000  O
  O26      1.0000 0.05269  0.78889  0.44804  Biso   1.000  O
  O27      1.0000 0.97113  0.82325  0.52756  Biso   1.000  O
  O28      1.0000 0.96000  0.01980  0.92970  Biso   1.000  O
  C139     1.0000 0.97410  0.73400  0.36520  Biso   1.000  C
  H49      1.0000 0.95770  0.73440  0.37460  Biso   1.000  H
  C140     1.0000 0.97500  0.72930  0.33770  Biso   1.000  C
  H50      1.0000 0.95910  0.72780  0.32770  Biso   1.000  H
  C141     1.0000 0.97810  0.70480  0.23080  Biso   1.000  C
  C142     1.0000 0.95380  0.81310  0.54600  Biso   1.000  C
  C143     1.0000 0.93780  0.83460  0.55950  Biso   1.000  C
  C144     1.0000 0.91790  0.82765  0.57820  Biso   1.000  C
  H51      1.0000 0.91330  0.80960  0.58080  Biso   1.000  H
  C145     1.0000 0.90470  0.84770  0.59290  Biso   1.000  C
  H52      1.0000 0.89140  0.84310  0.60530  Biso   1.000  H
  C146     1.0000 0.91150  0.87480  0.58890  Biso   1.000  C
  C147     1.0000 0.93140  0.88174  0.57020  Biso   1.000  C
  H53      1.0000 0.93590  0.89980  0.56760  Biso   1.000  H
  C148     1.0000 0.94450  0.86160  0.55550  Biso   1.000  C
  H54      1.0000 0.95790  0.86630  0.54310  Biso   1.000  H
  C149     1.0000 0.89840  0.89570  0.60520  Biso   1.000  C
  C150     1.0000 0.88820  0.91240  0.61900  Biso   1.000  C
  C151     1.0000 0.87720  0.93340  0.63700  Biso   1.000  C
  C152     1.0000 0.85140  0.94320  0.63170  Biso   1.000  C
  C153     1.0000 0.84040  0.96360  0.64780  Biso   1.000  C
  C154     1.0000 0.85540  0.97405  0.66930  Biso   1.000  C
  C155     1.0000 0.88120  0.96420  0.67460  Biso   1.000  C
  C156     1.0000 0.89210  0.94390  0.65840  Biso   1.000  C
  C157     1.0000 0.85730  0.97870  0.73320  Biso   1.000  C
  C158     1.0000 0.86490  0.97870  0.75960  Biso   1.000  C
  C159     1.0000 0.91370  0.02360  0.86210  Biso   1.000  C
  H55      1.0000 0.90460  0.03890  0.85610  Biso   1.000  H
  C160     1.0000 0.92740  0.02320  0.88660  Biso   1.000  C
  H56      1.0000 0.93120  0.03980  0.89480  Biso   1.000  H
  C161     1.0000 0.79600  0.97720  0.69750  Biso   1.000  C
  F49      1.0000 0.81740  0.97230  0.64340  Biso   1.000  F
  F50      1.0000 0.83670  0.93420  0.61170  Biso   1.000  F
  F51      1.0000 0.91590  0.93250  0.66100  Biso   1.000  F
  F52      1.0000 0.89600  0.97420  0.69100  Biso   1.000  F
  F53      1.0000 0.85720  0.95410  0.72030  Biso   1.000  F
  F54      1.0000 0.86900  0.95490  0.77370  Biso   1.000  F
  F55      1.0000 0.80850  0.95390  0.69230  Biso   1.000  F
  F56      1.0000 0.95470  0.70630  0.24540  Biso   1.000  F
  O29      1.0000 0.02423  0.25187  0.57977  Biso   1.000  O
  O30      1.0000 0.05269  0.21111  0.55196  Biso   1.000  O
  O31      1.0000 0.97113  0.17675  0.47244  Biso   1.000  O
  O32      1.0000 0.96000  0.98020  0.07030  Biso   1.000  O
  C162     1.0000 0.97410  0.26600  0.63480  Biso   1.000  C
  H57      1.0000 0.95770  0.26560  0.62540  Biso   1.000  H
  C163     1.0000 0.97500  0.27070  0.66230  Biso   1.000  C
  H58      1.0000 0.95910  0.27220  0.67230  Biso   1.000  H
  C164     1.0000 0.97810  0.29520  0.76920  Biso   1.000  C
  C165     1.0000 0.95380  0.18690  0.45400  Biso   1.000  C
  C166     1.0000 0.93780  0.16540  0.44050  Biso   1.000  C
  C167     1.0000 0.91790  0.17235  0.42180  Biso   1.000  C
  H59      1.0000 0.91330  0.19040  0.41920  Biso   1.000  H
  C168     1.0000 0.90470  0.15230  0.40710  Biso   1.000  C
  H60      1.0000 0.89140  0.15690  0.39470  Biso   1.000  H
  C169     1.0000 0.91150  0.12520  0.41110  Biso   1.000  C
  C170     1.0000 0.93140  0.11826  0.42980  Biso   1.000  C
  H61      1.0000 0.93590  0.10020  0.43240  Biso   1.000  H
  C171     1.0000 0.94450  0.13840  0.44450  Biso   1.000  C
  H62      1.0000 0.95790  0.13370  0.45690  Biso   1.000  H
  C172     1.0000 0.89840  0.10430  0.39480  Biso   1.000  C
  C173     1.0000 0.88820  0.08760  0.38100  Biso   1.000  C
  C174     1.0000 0.87720  0.06660  0.36300  Biso   1.000  C
  C175     1.0000 0.85140  0.05680  0.36830  Biso   1.000  C
  C176     1.0000 0.84040  0.03640  0.35220  Biso   1.000  C
  C177     1.0000 0.85540  0.02595  0.33070  Biso   1.000  C
  C178     1.0000 0.88120  0.03580  0.32540  Biso   1.000  C
  C179     1.0000 0.89210  0.05610  0.34160  Biso   1.000  C
  C180     1.0000 0.85730  0.02130  0.26680  Biso   1.000  C
  C181     1.0000 0.86490  0.02130  0.24040  Biso   1.000  C
  C182     1.0000 0.91370  0.97640  0.13790  Biso   1.000  C
  H63      1.0000 0.90460  0.96110  0.14390  Biso   1.000  H
  C183     1.0000 0.92740  0.97680  0.11340  Biso   1.000  C
  H64      1.0000 0.93120  0.96020  0.10520  Biso   1.000  H
  C184     1.0000 0.79600  0.02280  0.30250  Biso   1.000  C
  F57      1.0000 0.81740  0.02770  0.35660  Biso   1.000  F
  F58      1.0000 0.83670  0.06580  0.38830  Biso   1.000  F
  F59      1.0000 0.91590  0.06750  0.33900  Biso   1.000  F
  F60      1.0000 0.89600  0.02580  0.30900  Biso   1.000  F
  F61      1.0000 0.85720  0.04590  0.27970  Biso   1.000  F
  F62      1.0000 0.86900  0.04510  0.22630  Biso   1.000  F
  F63      1.0000 0.80850  0.04610  0.30770  Biso   1.000  F
  F64      1.0000 0.95470  0.29370  0.75460  Biso   1.000  F
  O33      1.0000 0.42023  0.97577  0.25187  Biso   1.000  O
  O34      1.0000 0.44804  0.94731  0.21111  Biso   1.000  O
  O35      1.0000 0.52756  0.02887  0.17675  Biso   1.000  O
  O36      1.0000 0.92970  0.04000  0.98020  Biso   1.000  O
  C185     1.0000 0.36520  0.02590  0.26600  Biso   1.000  C
  H65      1.0000 0.37460  0.04230  0.26560  Biso   1.000  H
  C186     1.0000 0.33770  0.02500  0.27070  Biso   1.000  C
  H66      1.0000 0.32770  0.04090  0.27220  Biso   1.000  H
  C187     1.0000 0.23080  0.02190  0.29520  Biso   1.000  C
  C188     1.0000 0.54600  0.04620  0.18690  Biso   1.000  C
  C189     1.0000 0.55950  0.06220  0.16540  Biso   1.000  C
  C190     1.0000 0.57820  0.08210  0.17235  Biso   1.000  C
  H67      1.0000 0.58080  0.08670  0.19040  Biso   1.000  H
  C191     1.0000 0.59290  0.09530  0.15230  Biso   1.000  C
  H68      1.0000 0.60530  0.10860  0.15690  Biso   1.000  H
  C192     1.0000 0.58890  0.08850  0.12520  Biso   1.000  C
  C193     1.0000 0.57020  0.06860  0.11826  Biso   1.000  C
  H69      1.0000 0.56760  0.06410  0.10020  Biso   1.000  H
  C194     1.0000 0.55550  0.05550  0.13840  Biso   1.000  C
  H70      1.0000 0.54310  0.04210  0.13370  Biso   1.000  H
  C195     1.0000 0.60520  0.10160  0.10430  Biso   1.000  C
  C196     1.0000 0.61900  0.11180  0.08760  Biso   1.000  C
  C197     1.0000 0.63700  0.12280  0.06660  Biso   1.000  C
  C198     1.0000 0.63170  0.14860  0.05680  Biso   1.000  C
  C199     1.0000 0.64780  0.15960  0.03640  Biso   1.000  C
  C200     1.0000 0.66930  0.14460  0.02595  Biso   1.000  C
  C201     1.0000 0.67460  0.11880  0.03580  Biso   1.000  C
  C202     1.0000 0.65840  0.10790  0.05610  Biso   1.000  C
  C203     1.0000 0.73320  0.14270  0.02130  Biso   1.000  C
  C204     1.0000 0.75960  0.13510  0.02130  Biso   1.000  C
  C205     1.0000 0.86210  0.08630  0.97640  Biso   1.000  C
  H71      1.0000 0.85610  0.09540  0.96110  Biso   1.000  H
  C206     1.0000 0.88660  0.07260  0.97680  Biso   1.000  C
  H72      1.0000 0.89480  0.06880  0.96020  Biso   1.000  H
  C207     1.0000 0.69750  0.20400  0.02280  Biso   1.000  C
  F65      1.0000 0.64340  0.18260  0.02770  Biso   1.000  F
  F66      1.0000 0.61170  0.16330  0.06580  Biso   1.000  F
  F67      1.0000 0.66100  0.08410  0.06750  Biso   1.000  F
  F68      1.0000 0.69100  0.10400  0.02580  Biso   1.000  F
  F69      1.0000 0.72030  0.14280  0.04590  Biso   1.000  F
  F70      1.0000 0.77370  0.13100  0.04510  Biso   1.000  F
  F71      1.0000 0.69230  0.19150  0.04610  Biso   1.000  F
  F72      1.0000 0.24540  0.04530  0.29370  Biso   1.000  F
  O37      1.0000 0.57977  0.97577  0.74813  Biso   1.000  O
  O38      1.0000 0.55196  0.94731  0.78889  Biso   1.000  O
  O39      1.0000 0.47244  0.02887  0.82325  Biso   1.000  O
  O40      1.0000 0.07030  0.04000  0.01980  Biso   1.000  O
  C208     1.0000 0.63480  0.02590  0.73400  Biso   1.000  C
  H73      1.0000 0.62540  0.04230  0.73440  Biso   1.000  H
  C209     1.0000 0.66230  0.02500  0.72930  Biso   1.000  C
  H74      1.0000 0.67230  0.04090  0.72780  Biso   1.000  H
  C210     1.0000 0.76920  0.02190  0.70480  Biso   1.000  C
  C211     1.0000 0.45400  0.04620  0.81310  Biso   1.000  C
  C212     1.0000 0.44050  0.06220  0.83460  Biso   1.000  C
  C213     1.0000 0.42180  0.08210  0.82765  Biso   1.000  C
  H75      1.0000 0.41920  0.08670  0.80960  Biso   1.000  H
  C214     1.0000 0.40710  0.09530  0.84770  Biso   1.000  C
  H76      1.0000 0.39470  0.10860  0.84310  Biso   1.000  H
  C215     1.0000 0.41110  0.08850  0.87480  Biso   1.000  C
  C216     1.0000 0.42980  0.06860  0.88174  Biso   1.000  C
  H77      1.0000 0.43240  0.06410  0.89980  Biso   1.000  H
  C217     1.0000 0.44450  0.05550  0.86160  Biso   1.000  C
  H78      1.0000 0.45690  0.04210  0.86630  Biso   1.000  H
  C218     1.0000 0.39480  0.10160  0.89570  Biso   1.000  C
  C219     1.0000 0.38100  0.11180  0.91240  Biso   1.000  C
  C220     1.0000 0.36300  0.12280  0.93340  Biso   1.000  C
  C221     1.0000 0.36830  0.14860  0.94320  Biso   1.000  C
  C222     1.0000 0.35220  0.15960  0.96360  Biso   1.000  C
  C223     1.0000 0.33070  0.14460  0.97405  Biso   1.000  C
  C224     1.0000 0.32540  0.11880  0.96420  Biso   1.000  C
  C225     1.0000 0.34160  0.10790  0.94390  Biso   1.000  C
  C226     1.0000 0.26680  0.14270  0.97870  Biso   1.000  C
  C227     1.0000 0.24040  0.13510  0.97870  Biso   1.000  C
  C228     1.0000 0.13790  0.08630  0.02360  Biso   1.000  C
  H79      1.0000 0.14390  0.09540  0.03890  Biso   1.000  H
  C229     1.0000 0.11340  0.07260  0.02320  Biso   1.000  C
  H80      1.0000 0.10520  0.06880  0.03980  Biso   1.000  H
  C230     1.0000 0.30250  0.20400  0.97720  Biso   1.000  C
  F73      1.0000 0.35660  0.18260  0.97230  Biso   1.000  F
  F74      1.0000 0.38830  0.16330  0.93420  Biso   1.000  F
  F75      1.0000 0.33900  0.08410  0.93250  Biso   1.000  F
  F76      1.0000 0.30900  0.10400  0.97420  Biso   1.000  F
  F77      1.0000 0.27970  0.14280  0.95410  Biso   1.000  F
  F78      1.0000 0.22630  0.13100  0.95490  Biso   1.000  F
  F79      1.0000 0.30770  0.19150  0.95390  Biso   1.000  F
  F80      1.0000 0.75460  0.04530  0.70630  Biso   1.000  F
  O41      1.0000 0.42023  0.02423  0.74813  Biso   1.000  O
  O42      1.0000 0.44804  0.05269  0.78889  Biso   1.000  O
  O43      1.0000 0.52756  0.97113  0.82325  Biso   1.000  O
  O44      1.0000 0.92970  0.96000  0.01980  Biso   1.000  O
  C231     1.0000 0.36520  0.97410  0.73400  Biso   1.000  C
  H81      1.0000 0.37460  0.95770  0.73440  Biso   1.000  H
  C232     1.0000 0.33770  0.97500  0.72930  Biso   1.000  C
  H82      1.0000 0.32770  0.95910  0.72780  Biso   1.000  H
  C233     1.0000 0.23080  0.97810  0.70480  Biso   1.000  C
  C234     1.0000 0.54600  0.95380  0.81310  Biso   1.000  C
  C235     1.0000 0.55950  0.93780  0.83460  Biso   1.000  C
  C236     1.0000 0.57820  0.91790  0.82765  Biso   1.000  C
  H83      1.0000 0.58080  0.91330  0.80960  Biso   1.000  H
  C237     1.0000 0.59290  0.90470  0.84770  Biso   1.000  C
  H84      1.0000 0.60530  0.89140  0.84310  Biso   1.000  H
  C238     1.0000 0.58890  0.91150  0.87480  Biso   1.000  C
  C239     1.0000 0.57020  0.93140  0.88174  Biso   1.000  C
  H85      1.0000 0.56760  0.93590  0.89980  Biso   1.000  H
  C240     1.0000 0.55550  0.94450  0.86160  Biso   1.000  C
  H86      1.0000 0.54310  0.95790  0.86630  Biso   1.000  H
  C241     1.0000 0.60520  0.89840  0.89570  Biso   1.000  C
  C242     1.0000 0.61900  0.88820  0.91240  Biso   1.000  C
  C243     1.0000 0.63700  0.87720  0.93340  Biso   1.000  C
  C244     1.0000 0.63170  0.85140  0.94320  Biso   1.000  C
  C245     1.0000 0.64780  0.84040  0.96360  Biso   1.000  C
  C246     1.0000 0.66930  0.85540  0.97405  Biso   1.000  C
  C247     1.0000 0.67460  0.88120  0.96420  Biso   1.000  C
  C248     1.0000 0.65840  0.89210  0.94390  Biso   1.000  C
  C249     1.0000 0.73320  0.85730  0.97870  Biso   1.000  C
  C250     1.0000 0.75960  0.86490  0.97870  Biso   1.000  C
  C251     1.0000 0.86210  0.91370  0.02360  Biso   1.000  C
  H87      1.0000 0.85610  0.90460  0.03890  Biso   1.000  H
  C252     1.0000 0.88660  0.92740  0.02320  Biso   1.000  C
  H88      1.0000 0.89480  0.93120  0.03980  Biso   1.000  H
  C253     1.0000 0.69750  0.79600  0.97720  Biso   1.000  C
  F81      1.0000 0.64340  0.81740  0.97230  Biso   1.000  F
  F82      1.0000 0.61170  0.83670  0.93420  Biso   1.000  F
  F83      1.0000 0.66100  0.91590  0.93250  Biso   1.000  F
  F84      1.0000 0.69100  0.89600  0.97420  Biso   1.000  F
  F85      1.0000 0.72030  0.85720  0.95410  Biso   1.000  F
  F86      1.0000 0.77370  0.86900  0.95490  Biso   1.000  F
  F87      1.0000 0.69230  0.80850  0.95390  Biso   1.000  F
  F88      1.0000 0.24540  0.95470  0.70630  Biso   1.000  F
  O45      1.0000 0.57977  0.02423  0.25187  Biso   1.000  O
  O46      1.0000 0.55196  0.05269  0.21111  Biso   1.000  O
  O47      1.0000 0.47244  0.97113  0.17675  Biso   1.000  O
  O48      1.0000 0.07030  0.96000  0.98020  Biso   1.000  O
  C254     1.0000 0.63480  0.97410  0.26600  Biso   1.000  C
  H89      1.0000 0.62540  0.95770  0.26560  Biso   1.000  H
  C255     1.0000 0.66230  0.97500  0.27070  Biso   1.000  C
  H90      1.0000 0.67230  0.95910  0.27220  Biso   1.000  H
  C256     1.0000 0.76920  0.97810  0.29520  Biso   1.000  C
  C257     1.0000 0.45400  0.95380  0.18690  Biso   1.000  C
  C258     1.0000 0.44050  0.93780  0.16540  Biso   1.000  C
  C259     1.0000 0.42180  0.91790  0.17235  Biso   1.000  C
  H91      1.0000 0.41920  0.91330  0.19040  Biso   1.000  H
  C260     1.0000 0.40710  0.90470  0.15230  Biso   1.000  C
  H92      1.0000 0.39470  0.89140  0.15690  Biso   1.000  H
  C261     1.0000 0.41110  0.91150  0.12520  Biso   1.000  C
  C262     1.0000 0.42980  0.93140  0.11826  Biso   1.000  C
  H93      1.0000 0.43240  0.93590  0.10020  Biso   1.000  H
  C263     1.0000 0.44450  0.94450  0.13840  Biso   1.000  C
  H94      1.0000 0.45690  0.95790  0.13370  Biso   1.000  H
  C264     1.0000 0.39480  0.89840  0.10430  Biso   1.000  C
  C265     1.0000 0.38100  0.88820  0.08760  Biso   1.000  C
  C266     1.0000 0.36300  0.87720  0.06660  Biso   1.000  C
  C267     1.0000 0.36830  0.85140  0.05680  Biso   1.000  C
  C268     1.0000 0.35220  0.84040  0.03640  Biso   1.000  C
  C269     1.0000 0.33070  0.85540  0.02595  Biso   1.000  C
  C270     1.0000 0.32540  0.88120  0.03580  Biso   1.000  C
  C271     1.0000 0.34160  0.89210  0.05610  Biso   1.000  C
  C272     1.0000 0.26680  0.85730  0.02130  Biso   1.000  C
  C273     1.0000 0.24040  0.86490  0.02130  Biso   1.000  C
  C274     1.0000 0.13790  0.91370  0.97640  Biso   1.000  C
  H95      1.0000 0.14390  0.90460  0.96110  Biso   1.000  H
  C275     1.0000 0.11340  0.92740  0.97680  Biso   1.000  C
  H96      1.0000 0.10520  0.93120  0.96020  Biso   1.000  H
  C276     1.0000 0.30250  0.79600  0.02280  Biso   1.000  C
  F89      1.0000 0.35660  0.81740  0.02770  Biso   1.000  F
  F90      1.0000 0.38830  0.83670  0.06580  Biso   1.000  F
  F91      1.0000 0.33900  0.91590  0.06750  Biso   1.000  F
  F92      1.0000 0.30900  0.89600  0.02580  Biso   1.000  F
  F93      1.0000 0.27970  0.85720  0.04590  Biso   1.000  F
  F94      1.0000 0.22630  0.86900  0.04510  Biso   1.000  F
  F95      1.0000 0.30770  0.80850  0.04610  Biso   1.000  F
  F96      1.0000 0.75460  0.95470  0.29370  Biso   1.000  F
  O49      1.0000 0.92023  0.75187  0.52423  Biso   1.000  O
  O50      1.0000 0.94804  0.71111  0.55269  Biso   1.000  O
  O51      1.0000 0.02756  0.67675  0.47113  Biso   1.000  O
  O52      1.0000 0.42970  0.48020  0.46000  Biso   1.000  O
  C277     1.0000 0.86520  0.76600  0.47410  Biso   1.000  C
  H97      1.0000 0.87460  0.76560  0.45770  Biso   1.000  H
  C278     1.0000 0.83770  0.77070  0.47500  Biso   1.000  C
  H98      1.0000 0.82770  0.77220  0.45910  Biso   1.000  H
  C279     1.0000 0.73080  0.79520  0.47810  Biso   1.000  C
  C280     1.0000 0.04600  0.68690  0.45380  Biso   1.000  C
  C281     1.0000 0.05950  0.66540  0.43780  Biso   1.000  C
  C282     1.0000 0.07820  0.67235  0.41790  Biso   1.000  C
  H99      1.0000 0.08080  0.69040  0.41330  Biso   1.000  H
  C283     1.0000 0.09290  0.65230  0.40470  Biso   1.000  C
  H100     1.0000 0.10530  0.65690  0.39140  Biso   1.000  H
  C284     1.0000 0.08890  0.62520  0.41150  Biso   1.000  C
  C285     1.0000 0.07020  0.61826  0.43140  Biso   1.000  C
  H101     1.0000 0.06760  0.60020  0.43590  Biso   1.000  H
  C286     1.0000 0.05550  0.63840  0.44450  Biso   1.000  C
  H102     1.0000 0.04310  0.63370  0.45790  Biso   1.000  H
  C287     1.0000 0.10520  0.60430  0.39840  Biso   1.000  C
  C288     1.0000 0.11900  0.58760  0.38820  Biso   1.000  C
  C289     1.0000 0.13700  0.56660  0.37720  Biso   1.000  C
  C290     1.0000 0.13170  0.55680  0.35140  Biso   1.000  C
  C291     1.0000 0.14780  0.53640  0.34040  Biso   1.000  C
  C292     1.0000 0.16930  0.52595  0.35540  Biso   1.000  C
  C293     1.0000 0.17460  0.53580  0.38120  Biso   1.000  C
  C294     1.0000 0.15840  0.55610  0.39210  Biso   1.000  C
  C295     1.0000 0.23320  0.52130  0.35730  Biso   1.000  C
  C296     1.0000 0.25960  0.52130  0.36490  Biso   1.000  C
  C297     1.0000 0.36210  0.47640  0.41370  Biso   1.000  C
  H103     1.0000 0.35610  0.46110  0.40460  Biso   1.000  H
  C298     1.0000 0.38660  0.47680  0.42740  Biso   1.000  C
  H104     1.0000 0.39480  0.46020  0.43120  Biso   1.000  H
  C299     1.0000 0.19750  0.52280  0.29600  Biso   1.000  C
  F97      1.0000 0.14340  0.52770  0.31740  Biso   1.000  F
  F98      1.0000 0.11170  0.56580  0.33670  Biso   1.000  F
  F99      1.0000 0.16100  0.56750  0.41590  Biso   1.000  F
  F100     1.0000 0.19100  0.52580  0.39600  Biso   1.000  F
  F101     1.0000 0.22030  0.54590  0.35720  Biso   1.000  F
  F102     1.0000 0.27370  0.54510  0.36900  Biso   1.000  F
  F103     1.0000 0.19230  0.54610  0.30850  Biso   1.000  F
  F104     1.0000 0.74540  0.79370  0.45470  Biso   1.000  F
  O53      1.0000 0.07977  0.24813  0.52423  Biso   1.000  O
  O54      1.0000 0.05196  0.28889  0.55269  Biso   1.000  O
  O55      1.0000 0.97244  0.32325  0.47113  Biso   1.000  O
  O56      1.0000 0.57030  0.51980  0.46000  Biso   1.000  O
  C300     1.0000 0.13480  0.23400  0.47410  Biso   1.000  C
  H105     1.0000 0.12540  0.23440  0.45770  Biso   1.000  H
  C301     1.0000 0.16230  0.22930  0.47500  Biso   1.000  C
  H106     1.0000 0.17230  0.22780  0.45910  Biso   1.000  H
  C302     1.0000 0.26920  0.20480  0.47810  Biso   1.000  C
  C303     1.0000 0.95400  0.31310  0.45380  Biso   1.000  C
  C304     1.0000 0.94050  0.33460  0.43780  Biso   1.000  C
  C305     1.0000 0.92180  0.32765  0.41790  Biso   1.000  C
  H107     1.0000 0.91920  0.30960  0.41330  Biso   1.000  H
  C306     1.0000 0.90710  0.34770  0.40470  Biso   1.000  C
  H108     1.0000 0.89470  0.34310  0.39140  Biso   1.000  H
  C307     1.0000 0.91110  0.37480  0.41150  Biso   1.000  C
  C308     1.0000 0.92980  0.38174  0.43140  Biso   1.000  C
  H109     1.0000 0.93240  0.39980  0.43590  Biso   1.000  H
  C309     1.0000 0.94450  0.36160  0.44450  Biso   1.000  C
  H110     1.0000 0.95690  0.36630  0.45790  Biso   1.000  H
  C310     1.0000 0.89480  0.39570  0.39840  Biso   1.000  C
  C311     1.0000 0.88100  0.41240  0.38820  Biso   1.000  C
  C312     1.0000 0.86300  0.43340  0.37720  Biso   1.000  C
  C313     1.0000 0.86830  0.44320  0.35140  Biso   1.000  C
  C314     1.0000 0.85220  0.46360  0.34040  Biso   1.000  C
  C315     1.0000 0.83070  0.47405  0.35540  Biso   1.000  C
  C316     1.0000 0.82540  0.46420  0.38120  Biso   1.000  C
  C317     1.0000 0.84160  0.44390  0.39210  Biso   1.000  C
  C318     1.0000 0.76680  0.47870  0.35730  Biso   1.000  C
  C319     1.0000 0.74040  0.47870  0.36490  Biso   1.000  C
  C320     1.0000 0.63790  0.52360  0.41370  Biso   1.000  C
  H111     1.0000 0.64390  0.53890  0.40460  Biso   1.000  H
  C321     1.0000 0.61340  0.52320  0.42740  Biso   1.000  C
  H112     1.0000 0.60520  0.53980  0.43120  Biso   1.000  H
  C322     1.0000 0.80250  0.47720  0.29600  Biso   1.000  C
  F105     1.0000 0.85660  0.47230  0.31740  Biso   1.000  F
  F106     1.0000 0.88830  0.43420  0.33670  Biso   1.000  F
  F107     1.0000 0.83900  0.43250  0.41590  Biso   1.000  F
  F108     1.0000 0.80900  0.47420  0.39600  Biso   1.000  F
  F109     1.0000 0.77970  0.45410  0.35720  Biso   1.000  F
  F110     1.0000 0.72630  0.45490  0.36900  Biso   1.000  F
  F111     1.0000 0.80770  0.45390  0.30850  Biso   1.000  F
  F112     1.0000 0.25460  0.20630  0.45470  Biso   1.000  F
  O57      1.0000 0.92023  0.24813  0.47577  Biso   1.000  O
  O58      1.0000 0.94804  0.28889  0.44731  Biso   1.000  O
  O59      1.0000 0.02756  0.32325  0.52887  Biso   1.000  O
  O60      1.0000 0.42970  0.51980  0.54000  Biso   1.000  O
  C323     1.0000 0.86520  0.23400  0.52590  Biso   1.000  C
  H113     1.0000 0.87460  0.23440  0.54230  Biso   1.000  H
  C324     1.0000 0.83770  0.22930  0.52500  Biso   1.000  C
  H114     1.0000 0.82770  0.22780  0.54090  Biso   1.000  H
  C325     1.0000 0.73080  0.20480  0.52190  Biso   1.000  C
  C326     1.0000 0.04600  0.31310  0.54620  Biso   1.000  C
  C327     1.0000 0.05950  0.33460  0.56220  Biso   1.000  C
  C328     1.0000 0.07820  0.32765  0.58210  Biso   1.000  C
  H115     1.0000 0.08080  0.30960  0.58670  Biso   1.000  H
  C329     1.0000 0.09290  0.34770  0.59530  Biso   1.000  C
  H116     1.0000 0.10530  0.34310  0.60860  Biso   1.000  H
  C330     1.0000 0.08890  0.37480  0.58850  Biso   1.000  C
  C331     1.0000 0.07020  0.38174  0.56860  Biso   1.000  C
  H117     1.0000 0.06760  0.39980  0.56410  Biso   1.000  H
  C332     1.0000 0.05550  0.36160  0.55550  Biso   1.000  C
  H118     1.0000 0.04310  0.36630  0.54210  Biso   1.000  H
  C333     1.0000 0.10520  0.39570  0.60160  Biso   1.000  C
  C334     1.0000 0.11900  0.41240  0.61180  Biso   1.000  C
  C335     1.0000 0.13700  0.43340  0.62280  Biso   1.000  C
  C336     1.0000 0.13170  0.44320  0.64860  Biso   1.000  C
  C337     1.0000 0.14780  0.46360  0.65960  Biso   1.000  C
  C338     1.0000 0.16930  0.47405  0.64460  Biso   1.000  C
  C339     1.0000 0.17460  0.46420  0.61880  Biso   1.000  C
  C340     1.0000 0.15840  0.44390  0.60790  Biso   1.000  C
  C341     1.0000 0.23320  0.47870  0.64270  Biso   1.000  C
  C342     1.0000 0.25960  0.47870  0.63510  Biso   1.000  C
  C343     1.0000 0.36210  0.52360  0.58630  Biso   1.000  C
  H119     1.0000 0.35610  0.53890  0.59540  Biso   1.000  H
  C344     1.0000 0.38660  0.52320  0.57260  Biso   1.000  C
  H120     1.0000 0.39480  0.53980  0.56880  Biso   1.000  H
  C345     1.0000 0.19750  0.47720  0.70400  Biso   1.000  C
  F113     1.0000 0.14340  0.47230  0.68260  Biso   1.000  F
  F114     1.0000 0.11170  0.43420  0.66330  Biso   1.000  F
  F115     1.0000 0.16100  0.43250  0.58410  Biso   1.000  F
  F116     1.0000 0.19100  0.47420  0.60400  Biso   1.000  F
  F117     1.0000 0.22030  0.45410  0.64280  Biso   1.000  F
  F118     1.0000 0.27370  0.45490  0.63100  Biso   1.000  F
  F119     1.0000 0.19230  0.45390  0.69150  Biso   1.000  F
  F120     1.0000 0.74540  0.20630  0.54530  Biso   1.000  F
  O61      1.0000 0.07977  0.75187  0.47577  Biso   1.000  O
  O62      1.0000 0.05196  0.71111  0.44731  Biso   1.000  O
  O63      1.0000 0.97244  0.67675  0.52887  Biso   1.000  O
  O64      1.0000 0.57030  0.48020  0.54000  Biso   1.000  O
  C346     1.0000 0.13480  0.76600  0.52590  Biso   1.000  C
  H121     1.0000 0.12540  0.76560  0.54230  Biso   1.000  H
  C347     1.0000 0.16230  0.77070  0.52500  Biso   1.000  C
  H122     1.0000 0.17230  0.77220  0.54090  Biso   1.000  H
  C348     1.0000 0.26920  0.79520  0.52190  Biso   1.000  C
  C349     1.0000 0.95400  0.68690  0.54620  Biso   1.000  C
  C350     1.0000 0.94050  0.66540  0.56220  Biso   1.000  C
  C351     1.0000 0.92180  0.67235  0.58210  Biso   1.000  C
  H123     1.0000 0.91920  0.69040  0.58670  Biso   1.000  H
  C352     1.0000 0.90710  0.65230  0.59530  Biso   1.000  C
  H124     1.0000 0.89470  0.65690  0.60860  Biso   1.000  H
  C353     1.0000 0.91110  0.62520  0.58850  Biso   1.000  C
  C354     1.0000 0.92980  0.61826  0.56860  Biso   1.000  C
  H125     1.0000 0.93240  0.60020  0.56410  Biso   1.000  H
  C355     1.0000 0.94450  0.63840  0.55550  Biso   1.000  C
  H126     1.0000 0.95690  0.63370  0.54210  Biso   1.000  H
  C356     1.0000 0.89480  0.60430  0.60160  Biso   1.000  C
  C357     1.0000 0.88100  0.58760  0.61180  Biso   1.000  C
  C358     1.0000 0.86300  0.56660  0.62280  Biso   1.000  C
  C359     1.0000 0.86830  0.55680  0.64860  Biso   1.000  C
  C360     1.0000 0.85220  0.53640  0.65960  Biso   1.000  C
  C361     1.0000 0.83070  0.52595  0.64460  Biso   1.000  C
  C362     1.0000 0.82540  0.53580  0.61880  Biso   1.000  C
  C363     1.0000 0.84160  0.55610  0.60790  Biso   1.000  C
  C364     1.0000 0.76680  0.52130  0.64270  Biso   1.000  C
  C365     1.0000 0.74040  0.52130  0.63510  Biso   1.000  C
  C366     1.0000 0.63790  0.47640  0.58630  Biso   1.000  C
  H127     1.0000 0.64390  0.46110  0.59540  Biso   1.000  H
  C367     1.0000 0.61340  0.47680  0.57260  Biso   1.000  C
  H128     1.0000 0.60520  0.46020  0.56880  Biso   1.000  H
  C368     1.0000 0.80250  0.52280  0.70400  Biso   1.000  C
  F121     1.0000 0.85660  0.52770  0.68260  Biso   1.000  F
  F122     1.0000 0.88830  0.56580  0.66330  Biso   1.000  F
  F123     1.0000 0.83900  0.56750  0.58410  Biso   1.000  F
  F124     1.0000 0.80900  0.52580  0.60400  Biso   1.000  F
  F125     1.0000 0.77970  0.54590  0.64280  Biso   1.000  F
  F126     1.0000 0.72630  0.54510  0.63100  Biso   1.000  F
  F127     1.0000 0.80770  0.54610  0.69150  Biso   1.000  F
  F128     1.0000 0.25460  0.79370  0.54530  Biso   1.000  F
  O65      1.0000 0.75187  0.47577  0.07977  Biso   1.000  O
  O66      1.0000 0.71111  0.44731  0.05196  Biso   1.000  O
  O67      1.0000 0.67675  0.52887  0.97244  Biso   1.000  O
  O68      1.0000 0.48020  0.54000  0.57030  Biso   1.000  O
  C369     1.0000 0.76600  0.52590  0.13480  Biso   1.000  C
  H129     1.0000 0.76560  0.54230  0.12540  Biso   1.000  H
  C370     1.0000 0.77070  0.52500  0.16230  Biso   1.000  C
  H130     1.0000 0.77220  0.54090  0.17230  Biso   1.000  H
  C371     1.0000 0.79520  0.52190  0.26920  Biso   1.000  C
  C372     1.0000 0.68690  0.54620  0.95400  Biso   1.000  C
  C373     1.0000 0.66540  0.56220  0.94050  Biso   1.000  C
  C374     1.0000 0.67235  0.58210  0.92180  Biso   1.000  C
  H131     1.0000 0.69040  0.58670  0.91920  Biso   1.000  H
  C375     1.0000 0.65230  0.59530  0.90710  Biso   1.000  C
  H132     1.0000 0.65690  0.60860  0.89470  Biso   1.000  H
  C376     1.0000 0.62520  0.58850  0.91110  Biso   1.000  C
  C377     1.0000 0.61826  0.56860  0.92980  Biso   1.000  C
  H133     1.0000 0.60020  0.56410  0.93240  Biso   1.000  H
  C378     1.0000 0.63840  0.55550  0.94450  Biso   1.000  C
  H134     1.0000 0.63370  0.54210  0.95690  Biso   1.000  H
  C379     1.0000 0.60430  0.60160  0.89480  Biso   1.000  C
  C380     1.0000 0.58760  0.61180  0.88100  Biso   1.000  C
  C381     1.0000 0.56660  0.62280  0.86300  Biso   1.000  C
  C382     1.0000 0.55680  0.64860  0.86830  Biso   1.000  C
  C383     1.0000 0.53640  0.65960  0.85220  Biso   1.000  C
  C384     1.0000 0.52595  0.64460  0.83070  Biso   1.000  C
  C385     1.0000 0.53580  0.61880  0.82540  Biso   1.000  C
  C386     1.0000 0.55610  0.60790  0.84160  Biso   1.000  C
  C387     1.0000 0.52130  0.64270  0.76680  Biso   1.000  C
  C388     1.0000 0.52130  0.63510  0.74040  Biso   1.000  C
  C389     1.0000 0.47640  0.58630  0.63790  Biso   1.000  C
  H135     1.0000 0.46110  0.59540  0.64390  Biso   1.000  H
  C390     1.0000 0.47680  0.57260  0.61340  Biso   1.000  C
  H136     1.0000 0.46020  0.56880  0.60520  Biso   1.000  H
  C391     1.0000 0.52280  0.70400  0.80250  Biso   1.000  C
  F129     1.0000 0.52770  0.68260  0.85660  Biso   1.000  F
  F130     1.0000 0.56580  0.66330  0.88830  Biso   1.000  F
  F131     1.0000 0.56750  0.58410  0.83900  Biso   1.000  F
  F132     1.0000 0.52580  0.60400  0.80900  Biso   1.000  F
  F133     1.0000 0.54590  0.64280  0.77970  Biso   1.000  F
  F134     1.0000 0.54510  0.63100  0.72630  Biso   1.000  F
  F135     1.0000 0.54610  0.69150  0.80770  Biso   1.000  F
  F136     1.0000 0.79370  0.54530  0.25460  Biso   1.000  F
  O69      1.0000 0.24813  0.47577  0.92023  Biso   1.000  O
  O70      1.0000 0.28889  0.44731  0.94804  Biso   1.000  O
  O71      1.0000 0.32325  0.52887  0.02756  Biso   1.000  O
  O72      1.0000 0.51980  0.54000  0.42970  Biso   1.000  O
  C392     1.0000 0.23400  0.52590  0.86520  Biso   1.000  C
  H137     1.0000 0.23440  0.54230  0.87460  Biso   1.000  H
  C393     1.0000 0.22930  0.52500  0.83770  Biso   1.000  C
  H138     1.0000 0.22780  0.54090  0.82770  Biso   1.000  H
  C394     1.0000 0.20480  0.52190  0.73080  Biso   1.000  C
  C395     1.0000 0.31310  0.54620  0.04600  Biso   1.000  C
  C396     1.0000 0.33460  0.56220  0.05950  Biso   1.000  C
  C397     1.0000 0.32765  0.58210  0.07820  Biso   1.000  C
  H139     1.0000 0.30960  0.58670  0.08080  Biso   1.000  H
  C398     1.0000 0.34770  0.59530  0.09290  Biso   1.000  C
  H140     1.0000 0.34310  0.60860  0.10530  Biso   1.000  H
  C399     1.0000 0.37480  0.58850  0.08890  Biso   1.000  C
  C400     1.0000 0.38174  0.56860  0.07020  Biso   1.000  C
  H141     1.0000 0.39980  0.56410  0.06760  Biso   1.000  H
  C401     1.0000 0.36160  0.55550  0.05550  Biso   1.000  C
  H142     1.0000 0.36630  0.54210  0.04310  Biso   1.000  H
  C402     1.0000 0.39570  0.60160  0.10520  Biso   1.000  C
  C403     1.0000 0.41240  0.61180  0.11900  Biso   1.000  C
  C404     1.0000 0.43340  0.62280  0.13700  Biso   1.000  C
  C405     1.0000 0.44320  0.64860  0.13170  Biso   1.000  C
  C406     1.0000 0.46360  0.65960  0.14780  Biso   1.000  C
  C407     1.0000 0.47405  0.64460  0.16930  Biso   1.000  C
  C408     1.0000 0.46420  0.61880  0.17460  Biso   1.000  C
  C409     1.0000 0.44390  0.60790  0.15840  Biso   1.000  C
  C410     1.0000 0.47870  0.64270  0.23320  Biso   1.000  C
  C411     1.0000 0.47870  0.63510  0.25960  Biso   1.000  C
  C412     1.0000 0.52360  0.58630  0.36210  Biso   1.000  C
  H143     1.0000 0.53890  0.59540  0.35610  Biso   1.000  H
  C413     1.0000 0.52320  0.57260  0.38660  Biso   1.000  C
  H144     1.0000 0.53980  0.56880  0.39480  Biso   1.000  H
  C414     1.0000 0.47720  0.70400  0.19750  Biso   1.000  C
  F137     1.0000 0.47230  0.68260  0.14340  Biso   1.000  F
  F138     1.0000 0.43420  0.66330  0.11170  Biso   1.000  F
  F139     1.0000 0.43250  0.58410  0.16100  Biso   1.000  F
  F140     1.0000 0.47420  0.60400  0.19100  Biso   1.000  F
  F141     1.0000 0.45410  0.64280  0.22030  Biso   1.000  F
  F142     1.0000 0.45490  0.63100  0.27370  Biso   1.000  F
  F143     1.0000 0.45390  0.69150  0.19230  Biso   1.000  F
  F144     1.0000 0.20630  0.54530  0.74540  Biso   1.000  F
  O73      1.0000 0.24813  0.52423  0.07977  Biso   1.000  O
  O74      1.0000 0.28889  0.55269  0.05196  Biso   1.000  O
  O75      1.0000 0.32325  0.47113  0.97244  Biso   1.000  O
  O76      1.0000 0.51980  0.46000  0.57030  Biso   1.000  O
  C415     1.0000 0.23400  0.47410  0.13480  Biso   1.000  C
  H145     1.0000 0.23440  0.45770  0.12540  Biso   1.000  H
  C416     1.0000 0.22930  0.47500  0.16230  Biso   1.000  C
  H146     1.0000 0.22780  0.45910  0.17230  Biso   1.000  H
  C417     1.0000 0.20480  0.47810  0.26920  Biso   1.000  C
  C418     1.0000 0.31310  0.45380  0.95400  Biso   1.000  C
  C419     1.0000 0.33460  0.43780  0.94050  Biso   1.000  C
  C420     1.0000 0.32765  0.41790  0.92180  Biso   1.000  C
  H147     1.0000 0.30960  0.41330  0.91920  Biso   1.000  H
  C421     1.0000 0.34770  0.40470  0.90710  Biso   1.000  C
  H148     1.0000 0.34310  0.39140  0.89470  Biso   1.000  H
  C422     1.0000 0.37480  0.41150  0.91110  Biso   1.000  C
  C423     1.0000 0.38174  0.43140  0.92980  Biso   1.000  C
  H149     1.0000 0.39980  0.43590  0.93240  Biso   1.000  H
  C424     1.0000 0.36160  0.44450  0.94450  Biso   1.000  C
  H150     1.0000 0.36630  0.45790  0.95690  Biso   1.000  H
  C425     1.0000 0.39570  0.39840  0.89480  Biso   1.000  C
  C426     1.0000 0.41240  0.38820  0.88100  Biso   1.000  C
  C427     1.0000 0.43340  0.37720  0.86300  Biso   1.000  C
  C428     1.0000 0.44320  0.35140  0.86830  Biso   1.000  C
  C429     1.0000 0.46360  0.34040  0.85220  Biso   1.000  C
  C430     1.0000 0.47405  0.35540  0.83070  Biso   1.000  C
  C431     1.0000 0.46420  0.38120  0.82540  Biso   1.000  C
  C432     1.0000 0.44390  0.39210  0.84160  Biso   1.000  C
  C433     1.0000 0.47870  0.35730  0.76680  Biso   1.000  C
  C434     1.0000 0.47870  0.36490  0.74040  Biso   1.000  C
  C435     1.0000 0.52360  0.41370  0.63790  Biso   1.000  C
  H151     1.0000 0.53890  0.40460  0.64390  Biso   1.000  H
  C436     1.0000 0.52320  0.42740  0.61340  Biso   1.000  C
  H152     1.0000 0.53980  0.43120  0.60520  Biso   1.000  H
  C437     1.0000 0.47720  0.29600  0.80250  Biso   1.000  C
  F145     1.0000 0.47230  0.31740  0.85660  Biso   1.000  F
  F146     1.0000 0.43420  0.33670  0.88830  Biso   1.000  F
  F147     1.0000 0.43250  0.41590  0.83900  Biso   1.000  F
  F148     1.0000 0.47420  0.39600  0.80900  Biso   1.000  F
  F149     1.0000 0.45410  0.35720  0.77970  Biso   1.000  F
  F150     1.0000 0.45490  0.36900  0.72630  Biso   1.000  F
  F151     1.0000 0.45390  0.30850  0.80770  Biso   1.000  F
  F152     1.0000 0.20630  0.45470  0.25460  Biso   1.000  F
  O77      1.0000 0.75187  0.52423  0.92023  Biso   1.000  O
  O78      1.0000 0.71111  0.55269  0.94804  Biso   1.000  O
  O79      1.0000 0.67675  0.47113  0.02756  Biso   1.000  O
  O80      1.0000 0.48020  0.46000  0.42970  Biso   1.000  O
  C438     1.0000 0.76600  0.47410  0.86520  Biso   1.000  C
  H153     1.0000 0.76560  0.45770  0.87460  Biso   1.000  H
  C439     1.0000 0.77070  0.47500  0.83770  Biso   1.000  C
  H154     1.0000 0.77220  0.45910  0.82770  Biso   1.000  H
  C440     1.0000 0.79520  0.47810  0.73080  Biso   1.000  C
  C441     1.0000 0.68690  0.45380  0.04600  Biso   1.000  C
  C442     1.0000 0.66540  0.43780  0.05950  Biso   1.000  C
  C443     1.0000 0.67235  0.41790  0.07820  Biso   1.000  C
  H155     1.0000 0.69040  0.41330  0.08080  Biso   1.000  H
  C444     1.0000 0.65230  0.40470  0.09290  Biso   1.000  C
  H156     1.0000 0.65690  0.39140  0.10530  Biso   1.000  H
  C445     1.0000 0.62520  0.41150  0.08890  Biso   1.000  C
  C446     1.0000 0.61826  0.43140  0.07020  Biso   1.000  C
  H157     1.0000 0.60020  0.43590  0.06760  Biso   1.000  H
  C447     1.0000 0.63840  0.44450  0.05550  Biso   1.000  C
  H158     1.0000 0.63370  0.45790  0.04310  Biso   1.000  H
  C448     1.0000 0.60430  0.39840  0.10520  Biso   1.000  C
  C449     1.0000 0.58760  0.38820  0.11900  Biso   1.000  C
  C450     1.0000 0.56660  0.37720  0.13700  Biso   1.000  C
  C451     1.0000 0.55680  0.35140  0.13170  Biso   1.000  C
  C452     1.0000 0.53640  0.34040  0.14780  Biso   1.000  C
  C453     1.0000 0.52595  0.35540  0.16930  Biso   1.000  C
  C454     1.0000 0.53580  0.38120  0.17460  Biso   1.000  C
  C455     1.0000 0.55610  0.39210  0.15840  Biso   1.000  C
  C456     1.0000 0.52130  0.35730  0.23320  Biso   1.000  C
  C457     1.0000 0.52130  0.36490  0.25960  Biso   1.000  C
  C458     1.0000 0.47640  0.41370  0.36210  Biso   1.000  C
  H159     1.0000 0.46110  0.40460  0.35610  Biso   1.000  H
  C459     1.0000 0.47680  0.42740  0.38660  Biso   1.000  C
  H160     1.0000 0.46020  0.43120  0.39480  Biso   1.000  H
  C460     1.0000 0.52280  0.29600  0.19750  Biso   1.000  C
  F153     1.0000 0.52770  0.31740  0.14340  Biso   1.000  F
  F154     1.0000 0.56580  0.33670  0.11170  Biso   1.000  F
  F155     1.0000 0.56750  0.41590  0.16100  Biso   1.000  F
  F156     1.0000 0.52580  0.39600  0.19100  Biso   1.000  F
  F157     1.0000 0.54590  0.35720  0.22030  Biso   1.000  F
  F158     1.0000 0.54510  0.36900  0.27370  Biso   1.000  F
  F159     1.0000 0.54610  0.30850  0.19230  Biso   1.000  F
  F160     1.0000 0.79370  0.45470  0.74540  Biso   1.000  F
  O81      1.0000 0.47577  0.92023  0.24813  Biso   1.000  O
  O82      1.0000 0.44731  0.94804  0.28889  Biso   1.000  O
  O83      1.0000 0.52887  0.02756  0.32325  Biso   1.000  O
  O84      1.0000 0.54000  0.42970  0.51980  Biso   1.000  O
  C461     1.0000 0.52590  0.86520  0.23400  Biso   1.000  C
  H161     1.0000 0.54230  0.87460  0.23440  Biso   1.000  H
  C462     1.0000 0.52500  0.83770  0.22930  Biso   1.000  C
  H162     1.0000 0.54090  0.82770  0.22780  Biso   1.000  H
  C463     1.0000 0.52190  0.73080  0.20480  Biso   1.000  C
  C464     1.0000 0.54620  0.04600  0.31310  Biso   1.000  C
  C465     1.0000 0.56220  0.05950  0.33460  Biso   1.000  C
  C466     1.0000 0.58210  0.07820  0.32765  Biso   1.000  C
  H163     1.0000 0.58670  0.08080  0.30960  Biso   1.000  H
  C467     1.0000 0.59530  0.09290  0.34770  Biso   1.000  C
  H164     1.0000 0.60860  0.10530  0.34310  Biso   1.000  H
  C468     1.0000 0.58850  0.08890  0.37480  Biso   1.000  C
  C469     1.0000 0.56860  0.07020  0.38174  Biso   1.000  C
  H165     1.0000 0.56410  0.06760  0.39980  Biso   1.000  H
  C470     1.0000 0.55550  0.05550  0.36160  Biso   1.000  C
  H166     1.0000 0.54210  0.04310  0.36630  Biso   1.000  H
  C471     1.0000 0.60160  0.10520  0.39570  Biso   1.000  C
  C472     1.0000 0.61180  0.11900  0.41240  Biso   1.000  C
  C473     1.0000 0.62280  0.13700  0.43340  Biso   1.000  C
  C474     1.0000 0.64860  0.13170  0.44320  Biso   1.000  C
  C475     1.0000 0.65960  0.14780  0.46360  Biso   1.000  C
  C476     1.0000 0.64460  0.16930  0.47405  Biso   1.000  C
  C477     1.0000 0.61880  0.17460  0.46420  Biso   1.000  C
  C478     1.0000 0.60790  0.15840  0.44390  Biso   1.000  C
  C479     1.0000 0.64270  0.23320  0.47870  Biso   1.000  C
  C480     1.0000 0.63510  0.25960  0.47870  Biso   1.000  C
  C481     1.0000 0.58630  0.36210  0.52360  Biso   1.000  C
  H167     1.0000 0.59540  0.35610  0.53890  Biso   1.000  H
  C482     1.0000 0.57260  0.38660  0.52320  Biso   1.000  C
  H168     1.0000 0.56880  0.39480  0.53980  Biso   1.000  H
  C483     1.0000 0.70400  0.19750  0.47720  Biso   1.000  C
  F161     1.0000 0.68260  0.14340  0.47230  Biso   1.000  F
  F162     1.0000 0.66330  0.11170  0.43420  Biso   1.000  F
  F163     1.0000 0.58410  0.16100  0.43250  Biso   1.000  F
  F164     1.0000 0.60400  0.19100  0.47420  Biso   1.000  F
  F165     1.0000 0.64280  0.22030  0.45410  Biso   1.000  F
  F166     1.0000 0.63100  0.27370  0.45490  Biso   1.000  F
  F167     1.0000 0.69150  0.19230  0.45390  Biso   1.000  F
  F168     1.0000 0.54530  0.74540  0.20630  Biso   1.000  F
  O85      1.0000 0.47577  0.07977  0.75187  Biso   1.000  O
  O86      1.0000 0.44731  0.05196  0.71111  Biso   1.000  O
  O87      1.0000 0.52887  0.97244  0.67675  Biso   1.000  O
  O88      1.0000 0.54000  0.57030  0.48020  Biso   1.000  O
  C484     1.0000 0.52590  0.13480  0.76600  Biso   1.000  C
  H169     1.0000 0.54230  0.12540  0.76560  Biso   1.000  H
  C485     1.0000 0.52500  0.16230  0.77070  Biso   1.000  C
  H170     1.0000 0.54090  0.17230  0.77220  Biso   1.000  H
  C486     1.0000 0.52190  0.26920  0.79520  Biso   1.000  C
  C487     1.0000 0.54620  0.95400  0.68690  Biso   1.000  C
  C488     1.0000 0.56220  0.94050  0.66540  Biso   1.000  C
  C489     1.0000 0.58210  0.92180  0.67235  Biso   1.000  C
  H171     1.0000 0.58670  0.91920  0.69040  Biso   1.000  H
  C490     1.0000 0.59530  0.90710  0.65230  Biso   1.000  C
  H172     1.0000 0.60860  0.89470  0.65690  Biso   1.000  H
  C491     1.0000 0.58850  0.91110  0.62520  Biso   1.000  C
  C492     1.0000 0.56860  0.92980  0.61826  Biso   1.000  C
  H173     1.0000 0.56410  0.93240  0.60020  Biso   1.000  H
  C493     1.0000 0.55550  0.94450  0.63840  Biso   1.000  C
  H174     1.0000 0.54210  0.95690  0.63370  Biso   1.000  H
  C494     1.0000 0.60160  0.89480  0.60430  Biso   1.000  C
  C495     1.0000 0.61180  0.88100  0.58760  Biso   1.000  C
  C496     1.0000 0.62280  0.86300  0.56660  Biso   1.000  C
  C497     1.0000 0.64860  0.86830  0.55680  Biso   1.000  C
  C498     1.0000 0.65960  0.85220  0.53640  Biso   1.000  C
  C499     1.0000 0.64460  0.83070  0.52595  Biso   1.000  C
  C500     1.0000 0.61880  0.82540  0.53580  Biso   1.000  C
  C501     1.0000 0.60790  0.84160  0.55610  Biso   1.000  C
  C502     1.0000 0.64270  0.76680  0.52130  Biso   1.000  C
  C503     1.0000 0.63510  0.74040  0.52130  Biso   1.000  C
  C504     1.0000 0.58630  0.63790  0.47640  Biso   1.000  C
  H175     1.0000 0.59540  0.64390  0.46110  Biso   1.000  H
  C505     1.0000 0.57260  0.61340  0.47680  Biso   1.000  C
  H176     1.0000 0.56880  0.60520  0.46020  Biso   1.000  H
  C506     1.0000 0.70400  0.80250  0.52280  Biso   1.000  C
  F169     1.0000 0.68260  0.85660  0.52770  Biso   1.000  F
  F170     1.0000 0.66330  0.88830  0.56580  Biso   1.000  F
  F171     1.0000 0.58410  0.83900  0.56750  Biso   1.000  F
  F172     1.0000 0.60400  0.80900  0.52580  Biso   1.000  F
  F173     1.0000 0.64280  0.77970  0.54590  Biso   1.000  F
  F174     1.0000 0.63100  0.72630  0.54510  Biso   1.000  F
  F175     1.0000 0.69150  0.80770  0.54610  Biso   1.000  F
  F176     1.0000 0.54530  0.25460  0.79370  Biso   1.000  F
  O89      1.0000 0.52423  0.92023  0.75187  Biso   1.000  O
  O90      1.0000 0.55269  0.94804  0.71111  Biso   1.000  O
  O91      1.0000 0.47113  0.02756  0.67675  Biso   1.000  O
  O92      1.0000 0.46000  0.42970  0.48020  Biso   1.000  O
  C507     1.0000 0.47410  0.86520  0.76600  Biso   1.000  C
  H177     1.0000 0.45770  0.87460  0.76560  Biso   1.000  H
  C508     1.0000 0.47500  0.83770  0.77070  Biso   1.000  C
  H178     1.0000 0.45910  0.82770  0.77220  Biso   1.000  H
  C509     1.0000 0.47810  0.73080  0.79520  Biso   1.000  C
  C510     1.0000 0.45380  0.04600  0.68690  Biso   1.000  C
  C511     1.0000 0.43780  0.05950  0.66540  Biso   1.000  C
  C512     1.0000 0.41790  0.07820  0.67235  Biso   1.000  C
  H179     1.0000 0.41330  0.08080  0.69040  Biso   1.000  H
  C513     1.0000 0.40470  0.09290  0.65230  Biso   1.000  C
  H180     1.0000 0.39140  0.10530  0.65690  Biso   1.000  H
  C514     1.0000 0.41150  0.08890  0.62520  Biso   1.000  C
  C515     1.0000 0.43140  0.07020  0.61826  Biso   1.000  C
  H181     1.0000 0.43590  0.06760  0.60020  Biso   1.000  H
  C516     1.0000 0.44450  0.05550  0.63840  Biso   1.000  C
  H182     1.0000 0.45790  0.04310  0.63370  Biso   1.000  H
  C517     1.0000 0.39840  0.10520  0.60430  Biso   1.000  C
  C518     1.0000 0.38820  0.11900  0.58760  Biso   1.000  C
  C519     1.0000 0.37720  0.13700  0.56660  Biso   1.000  C
  C520     1.0000 0.35140  0.13170  0.55680  Biso   1.000  C
  C521     1.0000 0.34040  0.14780  0.53640  Biso   1.000  C
  C522     1.0000 0.35540  0.16930  0.52595  Biso   1.000  C
  C523     1.0000 0.38120  0.17460  0.53580  Biso   1.000  C
  C524     1.0000 0.39210  0.15840  0.55610  Biso   1.000  C
  C525     1.0000 0.35730  0.23320  0.52130  Biso   1.000  C
  C526     1.0000 0.36490  0.25960  0.52130  Biso   1.000  C
  C527     1.0000 0.41370  0.36210  0.47640  Biso   1.000  C
  H183     1.0000 0.40460  0.35610  0.46110  Biso   1.000  H
  C528     1.0000 0.42740  0.38660  0.47680  Biso   1.000  C
  H184     1.0000 0.43120  0.39480  0.46020  Biso   1.000  H
  C529     1.0000 0.29600  0.19750  0.52280  Biso   1.000  C
  F177     1.0000 0.31740  0.14340  0.52770  Biso   1.000  F
  F178     1.0000 0.33670  0.11170  0.56580  Biso   1.000  F
  F179     1.0000 0.41590  0.16100  0.56750  Biso   1.000  F
  F180     1.0000 0.39600  0.19100  0.52580  Biso   1.000  F
  F181     1.0000 0.35720  0.22030  0.54590  Biso   1.000  F
  F182     1.0000 0.36900  0.27370  0.54510  Biso   1.000  F
  F183     1.0000 0.30850  0.19230  0.54610  Biso   1.000  F
  F184     1.0000 0.45470  0.74540  0.79370  Biso   1.000  F
  O93      1.0000 0.52423  0.07977  0.24813  Biso   1.000  O
  O94      1.0000 0.55269  0.05196  0.28889  Biso   1.000  O
  O95      1.0000 0.47113  0.97244  0.32325  Biso   1.000  O
  O96      1.0000 0.46000  0.57030  0.51980  Biso   1.000  O
  C530     1.0000 0.47410  0.13480  0.23400  Biso   1.000  C
  H185     1.0000 0.45770  0.12540  0.23440  Biso   1.000  H
  C531     1.0000 0.47500  0.16230  0.22930  Biso   1.000  C
  H186     1.0000 0.45910  0.17230  0.22780  Biso   1.000  H
  C532     1.0000 0.47810  0.26920  0.20480  Biso   1.000  C
  C533     1.0000 0.45380  0.95400  0.31310  Biso   1.000  C
  C534     1.0000 0.43780  0.94050  0.33460  Biso   1.000  C
  C535     1.0000 0.41790  0.92180  0.32765  Biso   1.000  C
  H187     1.0000 0.41330  0.91920  0.30960  Biso   1.000  H
  C536     1.0000 0.40470  0.90710  0.34770  Biso   1.000  C
  H188     1.0000 0.39140  0.89470  0.34310  Biso   1.000  H
  C537     1.0000 0.41150  0.91110  0.37480  Biso   1.000  C
  C538     1.0000 0.43140  0.92980  0.38174  Biso   1.000  C
  H189     1.0000 0.43590  0.93240  0.39980  Biso   1.000  H
  C539     1.0000 0.44450  0.94450  0.36160  Biso   1.000  C
  H190     1.0000 0.45790  0.95690  0.36630  Biso   1.000  H
  C540     1.0000 0.39840  0.89480  0.39570  Biso   1.000  C
  C541     1.0000 0.38820  0.88100  0.41240  Biso   1.000  C
  C542     1.0000 0.37720  0.86300  0.43340  Biso   1.000  C
  C543     1.0000 0.35140  0.86830  0.44320  Biso   1.000  C
  C544     1.0000 0.34040  0.85220  0.46360  Biso   1.000  C
  C545     1.0000 0.35540  0.83070  0.47405  Biso   1.000  C
  C546     1.0000 0.38120  0.82540  0.46420  Biso   1.000  C
  C547     1.0000 0.39210  0.84160  0.44390  Biso   1.000  C
  C548     1.0000 0.35730  0.76680  0.47870  Biso   1.000  C
  C549     1.0000 0.36490  0.74040  0.47870  Biso   1.000  C
  C550     1.0000 0.41370  0.63790  0.52360  Biso   1.000  C
  H191     1.0000 0.40460  0.64390  0.53890  Biso   1.000  H
  C551     1.0000 0.42740  0.61340  0.52320  Biso   1.000  C
  H192     1.0000 0.43120  0.60520  0.53980  Biso   1.000  H
  C552     1.0000 0.29600  0.80250  0.47720  Biso   1.000  C
  F185     1.0000 0.31740  0.85660  0.47230  Biso   1.000  F
  F186     1.0000 0.33670  0.88830  0.43420  Biso   1.000  F
  F187     1.0000 0.41590  0.83900  0.43250  Biso   1.000  F
  F188     1.0000 0.39600  0.80900  0.47420  Biso   1.000  F
  F189     1.0000 0.35720  0.77970  0.45410  Biso   1.000  F
  F190     1.0000 0.36900  0.72630  0.45490  Biso   1.000  F
  F191     1.0000 0.30850  0.80770  0.45390  Biso   1.000  F
  F192     1.0000 0.45470  0.25460  0.20630  Biso   1.000  F
  O97      1.0000 0.74813  0.57977  0.02423  Biso   1.000  O
  O98      1.0000 0.78889  0.55196  0.05269  Biso   1.000  O
  O99      1.0000 0.82325  0.47244  0.97113  Biso   1.000  O
  O100     1.0000 0.01980  0.07030  0.96000  Biso   1.000  O
  C553     1.0000 0.73400  0.63480  0.97410  Biso   1.000  C
  H193     1.0000 0.73440  0.62540  0.95770  Biso   1.000  H
  C554     1.0000 0.72930  0.66230  0.97500  Biso   1.000  C
  H194     1.0000 0.72780  0.67230  0.95910  Biso   1.000  H
  C555     1.0000 0.70480  0.76920  0.97810  Biso   1.000  C
  C556     1.0000 0.81310  0.45400  0.95380  Biso   1.000  C
  C557     1.0000 0.83460  0.44050  0.93780  Biso   1.000  C
  C558     1.0000 0.82765  0.42180  0.91790  Biso   1.000  C
  H195     1.0000 0.80960  0.41920  0.91330  Biso   1.000  H
  C559     1.0000 0.84770  0.40710  0.90470  Biso   1.000  C
  H196     1.0000 0.84310  0.39470  0.89140  Biso   1.000  H
  C560     1.0000 0.87480  0.41110  0.91150  Biso   1.000  C
  C561     1.0000 0.88174  0.42980  0.93140  Biso   1.000  C
  H197     1.0000 0.89980  0.43240  0.93590  Biso   1.000  H
  C562     1.0000 0.86160  0.44450  0.94450  Biso   1.000  C
  H198     1.0000 0.86630  0.45690  0.95790  Biso   1.000  H
  C563     1.0000 0.89570  0.39480  0.89840  Biso   1.000  C
  C564     1.0000 0.91240  0.38100  0.88820  Biso   1.000  C
  C565     1.0000 0.93340  0.36300  0.87720  Biso   1.000  C
  C566     1.0000 0.94320  0.36830  0.85140  Biso   1.000  C
  C567     1.0000 0.96360  0.35220  0.84040  Biso   1.000  C
  C568     1.0000 0.97405  0.33070  0.85540  Biso   1.000  C
  C569     1.0000 0.96420  0.32540  0.88120  Biso   1.000  C
  C570     1.0000 0.94390  0.34160  0.89210  Biso   1.000  C
  C571     1.0000 0.97870  0.26680  0.85730  Biso   1.000  C
  C572     1.0000 0.97870  0.24040  0.86490  Biso   1.000  C
  C573     1.0000 0.02360  0.13790  0.91370  Biso   1.000  C
  H199     1.0000 0.03890  0.14390  0.90460  Biso   1.000  H
  C574     1.0000 0.02320  0.11340  0.92740  Biso   1.000  C
  H200     1.0000 0.03980  0.10520  0.93120  Biso   1.000  H
  C575     1.0000 0.97720  0.30250  0.79600  Biso   1.000  C
  F193     1.0000 0.97230  0.35660  0.81740  Biso   1.000  F
  F194     1.0000 0.93420  0.38830  0.83670  Biso   1.000  F
  F195     1.0000 0.93250  0.33900  0.91590  Biso   1.000  F
  F196     1.0000 0.97420  0.30900  0.89600  Biso   1.000  F
  F197     1.0000 0.95410  0.27970  0.85720  Biso   1.000  F
  F198     1.0000 0.95490  0.22630  0.86900  Biso   1.000  F
  F199     1.0000 0.95390  0.30770  0.80850  Biso   1.000  F
  F200     1.0000 0.70630  0.75460  0.95470  Biso   1.000  F
  O101     1.0000 0.25187  0.42023  0.02423  Biso   1.000  O
  O102     1.0000 0.21111  0.44804  0.05269  Biso   1.000  O
  O103     1.0000 0.17675  0.52756  0.97113  Biso   1.000  O
  O104     1.0000 0.98020  0.92970  0.96000  Biso   1.000  O
  C576     1.0000 0.26600  0.36520  0.97410  Biso   1.000  C
  H201     1.0000 0.26560  0.37460  0.95770  Biso   1.000  H
  C577     1.0000 0.27070  0.33770  0.97500  Biso   1.000  C
  H202     1.0000 0.27220  0.32770  0.95910  Biso   1.000  H
  C578     1.0000 0.29520  0.23080  0.97810  Biso   1.000  C
  C579     1.0000 0.18690  0.54600  0.95380  Biso   1.000  C
  C580     1.0000 0.16540  0.55950  0.93780  Biso   1.000  C
  C581     1.0000 0.17235  0.57820  0.91790  Biso   1.000  C
  H203     1.0000 0.19040  0.58080  0.91330  Biso   1.000  H
  C582     1.0000 0.15230  0.59290  0.90470  Biso   1.000  C
  H204     1.0000 0.15690  0.60530  0.89140  Biso   1.000  H
  C583     1.0000 0.12520  0.58890  0.91150  Biso   1.000  C
  C584     1.0000 0.11826  0.57020  0.93140  Biso   1.000  C
  H205     1.0000 0.10020  0.56760  0.93590  Biso   1.000  H
  C585     1.0000 0.13840  0.55550  0.94450  Biso   1.000  C
  H206     1.0000 0.13370  0.54310  0.95790  Biso   1.000  H
  C586     1.0000 0.10430  0.60520  0.89840  Biso   1.000  C
  C587     1.0000 0.08760  0.61900  0.88820  Biso   1.000  C
  C588     1.0000 0.06660  0.63700  0.87720  Biso   1.000  C
  C589     1.0000 0.05680  0.63170  0.85140  Biso   1.000  C
  C590     1.0000 0.03640  0.64780  0.84040  Biso   1.000  C
  C591     1.0000 0.02595  0.66930  0.85540  Biso   1.000  C
  C592     1.0000 0.03580  0.67460  0.88120  Biso   1.000  C
  C593     1.0000 0.05610  0.65840  0.89210  Biso   1.000  C
  C594     1.0000 0.02130  0.73320  0.85730  Biso   1.000  C
  C595     1.0000 0.02130  0.75960  0.86490  Biso   1.000  C
  C596     1.0000 0.97640  0.86210  0.91370  Biso   1.000  C
  H207     1.0000 0.96110  0.85610  0.90460  Biso   1.000  H
  C597     1.0000 0.97680  0.88660  0.92740  Biso   1.000  C
  H208     1.0000 0.96020  0.89480  0.93120  Biso   1.000  H
  C598     1.0000 0.02280  0.69750  0.79600  Biso   1.000  C
  F201     1.0000 0.02770  0.64340  0.81740  Biso   1.000  F
  F202     1.0000 0.06580  0.61170  0.83670  Biso   1.000  F
  F203     1.0000 0.06750  0.66100  0.91590  Biso   1.000  F
  F204     1.0000 0.02580  0.69100  0.89600  Biso   1.000  F
  F205     1.0000 0.04590  0.72030  0.85720  Biso   1.000  F
  F206     1.0000 0.04510  0.77370  0.86900  Biso   1.000  F
  F207     1.0000 0.04610  0.69230  0.80850  Biso   1.000  F
  F208     1.0000 0.29370  0.24540  0.95470  Biso   1.000  F
  O105     1.0000 0.25187  0.57977  0.97577  Biso   1.000  O
  O106     1.0000 0.21111  0.55196  0.94731  Biso   1.000  O
  O107     1.0000 0.17675  0.47244  0.02887  Biso   1.000  O
  O108     1.0000 0.98020  0.07030  0.04000  Biso   1.000  O
  C599     1.0000 0.26600  0.63480  0.02590  Biso   1.000  C
  H209     1.0000 0.26560  0.62540  0.04230  Biso   1.000  H
  C600     1.0000 0.27070  0.66230  0.02500  Biso   1.000  C
  H210     1.0000 0.27220  0.67230  0.04090  Biso   1.000  H
  C601     1.0000 0.29520  0.76920  0.02190  Biso   1.000  C
  C602     1.0000 0.18690  0.45400  0.04620  Biso   1.000  C
  C603     1.0000 0.16540  0.44050  0.06220  Biso   1.000  C
  C604     1.0000 0.17235  0.42180  0.08210  Biso   1.000  C
  H211     1.0000 0.19040  0.41920  0.08670  Biso   1.000  H
  C605     1.0000 0.15230  0.40710  0.09530  Biso   1.000  C
  H212     1.0000 0.15690  0.39470  0.10860  Biso   1.000  H
  C606     1.0000 0.12520  0.41110  0.08850  Biso   1.000  C
  C607     1.0000 0.11826  0.42980  0.06860  Biso   1.000  C
  H213     1.0000 0.10020  0.43240  0.06410  Biso   1.000  H
  C608     1.0000 0.13840  0.44450  0.05550  Biso   1.000  C
  H214     1.0000 0.13370  0.45690  0.04210  Biso   1.000  H
  C609     1.0000 0.10430  0.39480  0.10160  Biso   1.000  C
  C610     1.0000 0.08760  0.38100  0.11180  Biso   1.000  C
  C611     1.0000 0.06660  0.36300  0.12280  Biso   1.000  C
  C612     1.0000 0.05680  0.36830  0.14860  Biso   1.000  C
  C613     1.0000 0.03640  0.35220  0.15960  Biso   1.000  C
  C614     1.0000 0.02595  0.33070  0.14460  Biso   1.000  C
  C615     1.0000 0.03580  0.32540  0.11880  Biso   1.000  C
  C616     1.0000 0.05610  0.34160  0.10790  Biso   1.000  C
  C617     1.0000 0.02130  0.26680  0.14270  Biso   1.000  C
  C618     1.0000 0.02130  0.24040  0.13510  Biso   1.000  C
  C619     1.0000 0.97640  0.13790  0.08630  Biso   1.000  C
  H215     1.0000 0.96110  0.14390  0.09540  Biso   1.000  H
  C620     1.0000 0.97680  0.11340  0.07260  Biso   1.000  C
  H216     1.0000 0.96020  0.10520  0.06880  Biso   1.000  H
  C621     1.0000 0.02280  0.30250  0.20400  Biso   1.000  C
  F209     1.0000 0.02770  0.35660  0.18260  Biso   1.000  F
  F210     1.0000 0.06580  0.38830  0.16330  Biso   1.000  F
  F211     1.0000 0.06750  0.33900  0.08410  Biso   1.000  F
  F212     1.0000 0.02580  0.30900  0.10400  Biso   1.000  F
  F213     1.0000 0.04590  0.27970  0.14280  Biso   1.000  F
  F214     1.0000 0.04510  0.22630  0.13100  Biso   1.000  F
  F215     1.0000 0.04610  0.30770  0.19150  Biso   1.000  F
  F216     1.0000 0.29370  0.75460  0.04530  Biso   1.000  F
  O109     1.0000 0.74813  0.42023  0.97577  Biso   1.000  O
  O110     1.0000 0.78889  0.44804  0.94731  Biso   1.000  O
  O111     1.0000 0.82325  0.52756  0.02887  Biso   1.000  O
  O112     1.0000 0.01980  0.92970  0.04000  Biso   1.000  O
  C622     1.0000 0.73400  0.36520  0.02590  Biso   1.000  C
  H217     1.0000 0.73440  0.37460  0.04230  Biso   1.000  H
  C623     1.0000 0.72930  0.33770  0.02500  Biso   1.000  C
  H218     1.0000 0.72780  0.32770  0.04090  Biso   1.000  H
  C624     1.0000 0.70480  0.23080  0.02190  Biso   1.000  C
  C625     1.0000 0.81310  0.54600  0.04620  Biso   1.000  C
  C626     1.0000 0.83460  0.55950  0.06220  Biso   1.000  C
  C627     1.0000 0.82765  0.57820  0.08210  Biso   1.000  C
  H219     1.0000 0.80960  0.58080  0.08670  Biso   1.000  H
  C628     1.0000 0.84770  0.59290  0.09530  Biso   1.000  C
  H220     1.0000 0.84310  0.60530  0.10860  Biso   1.000  H
  C629     1.0000 0.87480  0.58890  0.08850  Biso   1.000  C
  C630     1.0000 0.88174  0.57020  0.06860  Biso   1.000  C
  H221     1.0000 0.89980  0.56760  0.06410  Biso   1.000  H
  C631     1.0000 0.86160  0.55550  0.05550  Biso   1.000  C
  H222     1.0000 0.86630  0.54310  0.04210  Biso   1.000  H
  C632     1.0000 0.89570  0.60520  0.10160  Biso   1.000  C
  C633     1.0000 0.91240  0.61900  0.11180  Biso   1.000  C
  C634     1.0000 0.93340  0.63700  0.12280  Biso   1.000  C
  C635     1.0000 0.94320  0.63170  0.14860  Biso   1.000  C
  C636     1.0000 0.96360  0.64780  0.15960  Biso   1.000  C
  C637     1.0000 0.97405  0.66930  0.14460  Biso   1.000  C
  C638     1.0000 0.96420  0.67460  0.11880  Biso   1.000  C
  C639     1.0000 0.94390  0.65840  0.10790  Biso   1.000  C
  C640     1.0000 0.97870  0.73320  0.14270  Biso   1.000  C
  C641     1.0000 0.97870  0.75960  0.13510  Biso   1.000  C
  C642     1.0000 0.02360  0.86210  0.08630  Biso   1.000  C
  H223     1.0000 0.03890  0.85610  0.09540  Biso   1.000  H
  C643     1.0000 0.02320  0.88660  0.07260  Biso   1.000  C
  H224     1.0000 0.03980  0.89480  0.06880  Biso   1.000  H
  C644     1.0000 0.97720  0.69750  0.20400  Biso   1.000  C
  F217     1.0000 0.97230  0.64340  0.18260  Biso   1.000  F
  F218     1.0000 0.93420  0.61170  0.16330  Biso   1.000  F
  F219     1.0000 0.93250  0.66100  0.08410  Biso   1.000  F
  F220     1.0000 0.97420  0.69100  0.10400  Biso   1.000  F
  F221     1.0000 0.95410  0.72030  0.14280  Biso   1.000  F
  F222     1.0000 0.95490  0.77370  0.13100  Biso   1.000  F
  F223     1.0000 0.95390  0.69230  0.19150  Biso   1.000  F
  F224     1.0000 0.70630  0.24540  0.04530  Biso   1.000  F
  O113     1.0000 0.02423  0.74813  0.57977  Biso   1.000  O
  O114     1.0000 0.05269  0.78889  0.55196  Biso   1.000  O
  O115     1.0000 0.97113  0.82325  0.47244  Biso   1.000  O
  O116     1.0000 0.96000  0.01980  0.07030  Biso   1.000  O
  C645     1.0000 0.97410  0.73400  0.63480  Biso   1.000  C
  H225     1.0000 0.95770  0.73440  0.62540  Biso   1.000  H
  C646     1.0000 0.97500  0.72930  0.66230  Biso   1.000  C
  H226     1.0000 0.95910  0.72780  0.67230  Biso   1.000  H
  C647     1.0000 0.97810  0.70480  0.76920  Biso   1.000  C
  C648     1.0000 0.95380  0.81310  0.45400  Biso   1.000  C
  C649     1.0000 0.93780  0.83460  0.44050  Biso   1.000  C
  C650     1.0000 0.91790  0.82765  0.42180  Biso   1.000  C
  H227     1.0000 0.91330  0.80960  0.41920  Biso   1.000  H
  C651     1.0000 0.90470  0.84770  0.40710  Biso   1.000  C
  H228     1.0000 0.89140  0.84310  0.39470  Biso   1.000  H
  C652     1.0000 0.91150  0.87480  0.41110  Biso   1.000  C
  C653     1.0000 0.93140  0.88174  0.42980  Biso   1.000  C
  H229     1.0000 0.93590  0.89980  0.43240  Biso   1.000  H
  C654     1.0000 0.94450  0.86160  0.44450  Biso   1.000  C
  H230     1.0000 0.95790  0.86630  0.45690  Biso   1.000  H
  C655     1.0000 0.89840  0.89570  0.39480  Biso   1.000  C
  C656     1.0000 0.88820  0.91240  0.38100  Biso   1.000  C
  C657     1.0000 0.87720  0.93340  0.36300  Biso   1.000  C
  C658     1.0000 0.85140  0.94320  0.36830  Biso   1.000  C
  C659     1.0000 0.84040  0.96360  0.35220  Biso   1.000  C
  C660     1.0000 0.85540  0.97405  0.33070  Biso   1.000  C
  C661     1.0000 0.88120  0.96420  0.32540  Biso   1.000  C
  C662     1.0000 0.89210  0.94390  0.34160  Biso   1.000  C
  C663     1.0000 0.85730  0.97870  0.26680  Biso   1.000  C
  C664     1.0000 0.86490  0.97870  0.24040  Biso   1.000  C
  C665     1.0000 0.91370  0.02360  0.13790  Biso   1.000  C
  H231     1.0000 0.90460  0.03890  0.14390  Biso   1.000  H
  C666     1.0000 0.92740  0.02320  0.11340  Biso   1.000  C
  H232     1.0000 0.93120  0.03980  0.10520  Biso   1.000  H
  C667     1.0000 0.79600  0.97720  0.30250  Biso   1.000  C
  F225     1.0000 0.81740  0.97230  0.35660  Biso   1.000  F
  F226     1.0000 0.83670  0.93420  0.38830  Biso   1.000  F
  F227     1.0000 0.91590  0.93250  0.33900  Biso   1.000  F
  F228     1.0000 0.89600  0.97420  0.30900  Biso   1.000  F
  F229     1.0000 0.85720  0.95410  0.27970  Biso   1.000  F
  F230     1.0000 0.86900  0.95490  0.22630  Biso   1.000  F
  F231     1.0000 0.80850  0.95390  0.30770  Biso   1.000  F
  F232     1.0000 0.95470  0.70630  0.75460  Biso   1.000  F
  O117     1.0000 0.02423  0.25187  0.42023  Biso   1.000  O
  O118     1.0000 0.05269  0.21111  0.44804  Biso   1.000  O
  O119     1.0000 0.97113  0.17675  0.52756  Biso   1.000  O
  O120     1.0000 0.96000  0.98020  0.92970  Biso   1.000  O
  C668     1.0000 0.97410  0.26600  0.36520  Biso   1.000  C
  H233     1.0000 0.95770  0.26560  0.37460  Biso   1.000  H
  C669     1.0000 0.97500  0.27070  0.33770  Biso   1.000  C
  H234     1.0000 0.95910  0.27220  0.32770  Biso   1.000  H
  C670     1.0000 0.97810  0.29520  0.23080  Biso   1.000  C
  C671     1.0000 0.95380  0.18690  0.54600  Biso   1.000  C
  C672     1.0000 0.93780  0.16540  0.55950  Biso   1.000  C
  C673     1.0000 0.91790  0.17235  0.57820  Biso   1.000  C
  H235     1.0000 0.91330  0.19040  0.58080  Biso   1.000  H
  C674     1.0000 0.90470  0.15230  0.59290  Biso   1.000  C
  H236     1.0000 0.89140  0.15690  0.60530  Biso   1.000  H
  C675     1.0000 0.91150  0.12520  0.58890  Biso   1.000  C
  C676     1.0000 0.93140  0.11826  0.57020  Biso   1.000  C
  H237     1.0000 0.93590  0.10020  0.56760  Biso   1.000  H
  C677     1.0000 0.94450  0.13840  0.55550  Biso   1.000  C
  H238     1.0000 0.95790  0.13370  0.54310  Biso   1.000  H
  C678     1.0000 0.89840  0.10430  0.60520  Biso   1.000  C
  C679     1.0000 0.88820  0.08760  0.61900  Biso   1.000  C
  C680     1.0000 0.87720  0.06660  0.63700  Biso   1.000  C
  C681     1.0000 0.85140  0.05680  0.63170  Biso   1.000  C
  C682     1.0000 0.84040  0.03640  0.64780  Biso   1.000  C
  C683     1.0000 0.85540  0.02595  0.66930  Biso   1.000  C
  C684     1.0000 0.88120  0.03580  0.67460  Biso   1.000  C
  C685     1.0000 0.89210  0.05610  0.65840  Biso   1.000  C
  C686     1.0000 0.85730  0.02130  0.73320  Biso   1.000  C
  C687     1.0000 0.86490  0.02130  0.75960  Biso   1.000  C
  C688     1.0000 0.91370  0.97640  0.86210  Biso   1.000  C
  H239     1.0000 0.90460  0.96110  0.85610  Biso   1.000  H
  C689     1.0000 0.92740  0.97680  0.88660  Biso   1.000  C
  H240     1.0000 0.93120  0.96020  0.89480  Biso   1.000  H
  C690     1.0000 0.79600  0.02280  0.69750  Biso   1.000  C
  F233     1.0000 0.81740  0.02770  0.64340  Biso   1.000  F
  F234     1.0000 0.83670  0.06580  0.61170  Biso   1.000  F
  F235     1.0000 0.91590  0.06750  0.66100  Biso   1.000  F
  F236     1.0000 0.89600  0.02580  0.69100  Biso   1.000  F
  F237     1.0000 0.85720  0.04590  0.72030  Biso   1.000  F
  F238     1.0000 0.86900  0.04510  0.77370  Biso   1.000  F
  F239     1.0000 0.80850  0.04610  0.69230  Biso   1.000  F
  F240     1.0000 0.95470  0.29370  0.24540  Biso   1.000  F
  O121     1.0000 0.97577  0.25187  0.57977  Biso   1.000  O
  O122     1.0000 0.94731  0.21111  0.55196  Biso   1.000  O
  O123     1.0000 0.02887  0.17675  0.47244  Biso   1.000  O
  O124     1.0000 0.04000  0.98020  0.07030  Biso   1.000  O
  C691     1.0000 0.02590  0.26600  0.63480  Biso   1.000  C
  H241     1.0000 0.04230  0.26560  0.62540  Biso   1.000  H
  C692     1.0000 0.02500  0.27070  0.66230  Biso   1.000  C
  H242     1.0000 0.04090  0.27220  0.67230  Biso   1.000  H
  C693     1.0000 0.02190  0.29520  0.76920  Biso   1.000  C
  C694     1.0000 0.04620  0.18690  0.45400  Biso   1.000  C
  C695     1.0000 0.06220  0.16540  0.44050  Biso   1.000  C
  C696     1.0000 0.08210  0.17235  0.42180  Biso   1.000  C
  H243     1.0000 0.08670  0.19040  0.41920  Biso   1.000  H
  C697     1.0000 0.09530  0.15230  0.40710  Biso   1.000  C
  H244     1.0000 0.10860  0.15690  0.39470  Biso   1.000  H
  C698     1.0000 0.08850  0.12520  0.41110  Biso   1.000  C
  C699     1.0000 0.06860  0.11826  0.42980  Biso   1.000  C
  H245     1.0000 0.06410  0.10020  0.43240  Biso   1.000  H
  C700     1.0000 0.05550  0.13840  0.44450  Biso   1.000  C
  H246     1.0000 0.04210  0.13370  0.45690  Biso   1.000  H
  C701     1.0000 0.10160  0.10430  0.39480  Biso   1.000  C
  C702     1.0000 0.11180  0.08760  0.38100  Biso   1.000  C
  C703     1.0000 0.12280  0.06660  0.36300  Biso   1.000  C
  C704     1.0000 0.14860  0.05680  0.36830  Biso   1.000  C
  C705     1.0000 0.15960  0.03640  0.35220  Biso   1.000  C
  C706     1.0000 0.14460  0.02595  0.33070  Biso   1.000  C
  C707     1.0000 0.11880  0.03580  0.32540  Biso   1.000  C
  C708     1.0000 0.10790  0.05610  0.34160  Biso   1.000  C
  C709     1.0000 0.14270  0.02130  0.26680  Biso   1.000  C
  C710     1.0000 0.13510  0.02130  0.24040  Biso   1.000  C
  C711     1.0000 0.08630  0.97640  0.13790  Biso   1.000  C
  H247     1.0000 0.09540  0.96110  0.14390  Biso   1.000  H
  C712     1.0000 0.07260  0.97680  0.11340  Biso   1.000  C
  H248     1.0000 0.06880  0.96020  0.10520  Biso   1.000  H
  C713     1.0000 0.20400  0.02280  0.30250  Biso   1.000  C
  F241     1.0000 0.18260  0.02770  0.35660  Biso   1.000  F
  F242     1.0000 0.16330  0.06580  0.38830  Biso   1.000  F
  F243     1.0000 0.08410  0.06750  0.33900  Biso   1.000  F
  F244     1.0000 0.10400  0.02580  0.30900  Biso   1.000  F
  F245     1.0000 0.14280  0.04590  0.27970  Biso   1.000  F
  F246     1.0000 0.13100  0.04510  0.22630  Biso   1.000  F
  F247     1.0000 0.19150  0.04610  0.30770  Biso   1.000  F
  F248     1.0000 0.04530  0.29370  0.75460  Biso   1.000  F
  O125     1.0000 0.97577  0.74813  0.42023  Biso   1.000  O
  O126     1.0000 0.94731  0.78889  0.44804  Biso   1.000  O
  O127     1.0000 0.02887  0.82325  0.52756  Biso   1.000  O
  O128     1.0000 0.04000  0.01980  0.92970  Biso   1.000  O
  C714     1.0000 0.02590  0.73400  0.36520  Biso   1.000  C
  H249     1.0000 0.04230  0.73440  0.37460  Biso   1.000  H
  C715     1.0000 0.02500  0.72930  0.33770  Biso   1.000  C
  H250     1.0000 0.04090  0.72780  0.32770  Biso   1.000  H
  C716     1.0000 0.02190  0.70480  0.23080  Biso   1.000  C
  C717     1.0000 0.04620  0.81310  0.54600  Biso   1.000  C
  C718     1.0000 0.06220  0.83460  0.55950  Biso   1.000  C
  C719     1.0000 0.08210  0.82765  0.57820  Biso   1.000  C
  H251     1.0000 0.08670  0.80960  0.58080  Biso   1.000  H
  C720     1.0000 0.09530  0.84770  0.59290  Biso   1.000  C
  H252     1.0000 0.10860  0.84310  0.60530  Biso   1.000  H
  C721     1.0000 0.08850  0.87480  0.58890  Biso   1.000  C
  C722     1.0000 0.06860  0.88174  0.57020  Biso   1.000  C
  H253     1.0000 0.06410  0.89980  0.56760  Biso   1.000  H
  C723     1.0000 0.05550  0.86160  0.55550  Biso   1.000  C
  H254     1.0000 0.04210  0.86630  0.54310  Biso   1.000  H
  C724     1.0000 0.10160  0.89570  0.60520  Biso   1.000  C
  C725     1.0000 0.11180  0.91240  0.61900  Biso   1.000  C
  C726     1.0000 0.12280  0.93340  0.63700  Biso   1.000  C
  C727     1.0000 0.14860  0.94320  0.63170  Biso   1.000  C
  C728     1.0000 0.15960  0.96360  0.64780  Biso   1.000  C
  C729     1.0000 0.14460  0.97405  0.66930  Biso   1.000  C
  C730     1.0000 0.11880  0.96420  0.67460  Biso   1.000  C
  C731     1.0000 0.10790  0.94390  0.65840  Biso   1.000  C
  C732     1.0000 0.14270  0.97870  0.73320  Biso   1.000  C
  C733     1.0000 0.13510  0.97870  0.75960  Biso   1.000  C
  C734     1.0000 0.08630  0.02360  0.86210  Biso   1.000  C
  H255     1.0000 0.09540  0.03890  0.85610  Biso   1.000  H
  C735     1.0000 0.07260  0.02320  0.88660  Biso   1.000  C
  H256     1.0000 0.06880  0.03980  0.89480  Biso   1.000  H
  C736     1.0000 0.20400  0.97720  0.69750  Biso   1.000  C
  F249     1.0000 0.18260  0.97230  0.64340  Biso   1.000  F
  F250     1.0000 0.16330  0.93420  0.61170  Biso   1.000  F
  F251     1.0000 0.08410  0.93250  0.66100  Biso   1.000  F
  F252     1.0000 0.10400  0.97420  0.69100  Biso   1.000  F
  F253     1.0000 0.14280  0.95410  0.72030  Biso   1.000  F
  F254     1.0000 0.13100  0.95490  0.77370  Biso   1.000  F
  F255     1.0000 0.19150  0.95390  0.69230  Biso   1.000  F
  F256     1.0000 0.04530  0.70630  0.24540  Biso   1.000  F
  O129     1.0000 0.57977  0.02423  0.74813  Biso   1.000  O
  O130     1.0000 0.55196  0.05269  0.78889  Biso   1.000  O
  O131     1.0000 0.47244  0.97113  0.82325  Biso   1.000  O
  O132     1.0000 0.07030  0.96000  0.01980  Biso   1.000  O
  C737     1.0000 0.63480  0.97410  0.73400  Biso   1.000  C
  H257     1.0000 0.62540  0.95770  0.73440  Biso   1.000  H
  C738     1.0000 0.66230  0.97500  0.72930  Biso   1.000  C
  H258     1.0000 0.67230  0.95910  0.72780  Biso   1.000  H
  C739     1.0000 0.76920  0.97810  0.70480  Biso   1.000  C
  C740     1.0000 0.45400  0.95380  0.81310  Biso   1.000  C
  C741     1.0000 0.44050  0.93780  0.83460  Biso   1.000  C
  C742     1.0000 0.42180  0.91790  0.82765  Biso   1.000  C
  H259     1.0000 0.41920  0.91330  0.80960  Biso   1.000  H
  C743     1.0000 0.40710  0.90470  0.84770  Biso   1.000  C
  H260     1.0000 0.39470  0.89140  0.84310  Biso   1.000  H
  C744     1.0000 0.41110  0.91150  0.87480  Biso   1.000  C
  C745     1.0000 0.42980  0.93140  0.88174  Biso   1.000  C
  H261     1.0000 0.43240  0.93590  0.89980  Biso   1.000  H
  C746     1.0000 0.44450  0.94450  0.86160  Biso   1.000  C
  H262     1.0000 0.45690  0.95790  0.86630  Biso   1.000  H
  C747     1.0000 0.39480  0.89840  0.89570  Biso   1.000  C
  C748     1.0000 0.38100  0.88820  0.91240  Biso   1.000  C
  C749     1.0000 0.36300  0.87720  0.93340  Biso   1.000  C
  C750     1.0000 0.36830  0.85140  0.94320  Biso   1.000  C
  C751     1.0000 0.35220  0.84040  0.96360  Biso   1.000  C
  C752     1.0000 0.33070  0.85540  0.97405  Biso   1.000  C
  C753     1.0000 0.32540  0.88120  0.96420  Biso   1.000  C
  C754     1.0000 0.34160  0.89210  0.94390  Biso   1.000  C
  C755     1.0000 0.26680  0.85730  0.97870  Biso   1.000  C
  C756     1.0000 0.24040  0.86490  0.97870  Biso   1.000  C
  C757     1.0000 0.13790  0.91370  0.02360  Biso   1.000  C
  H263     1.0000 0.14390  0.90460  0.03890  Biso   1.000  H
  C758     1.0000 0.11340  0.92740  0.02320  Biso   1.000  C
  H264     1.0000 0.10520  0.93120  0.03980  Biso   1.000  H
  C759     1.0000 0.30250  0.79600  0.97720  Biso   1.000  C
  F257     1.0000 0.35660  0.81740  0.97230  Biso   1.000  F
  F258     1.0000 0.38830  0.83670  0.93420  Biso   1.000  F
  F259     1.0000 0.33900  0.91590  0.93250  Biso   1.000  F
  F260     1.0000 0.30900  0.89600  0.97420  Biso   1.000  F
  F261     1.0000 0.27970  0.85720  0.95410  Biso   1.000  F
  F262     1.0000 0.22630  0.86900  0.95490  Biso   1.000  F
  F263     1.0000 0.30770  0.80850  0.95390  Biso   1.000  F
  F264     1.0000 0.75460  0.95470  0.70630  Biso   1.000  F
  O133     1.0000 0.42023  0.02423  0.25187  Biso   1.000  O
  O134     1.0000 0.44804  0.05269  0.21111  Biso   1.000  O
  O135     1.0000 0.52756  0.97113  0.17675  Biso   1.000  O
  O136     1.0000 0.92970  0.96000  0.98020  Biso   1.000  O
  C760     1.0000 0.36520  0.97410  0.26600  Biso   1.000  C
  H265     1.0000 0.37460  0.95770  0.26560  Biso   1.000  H
  C761     1.0000 0.33770  0.97500  0.27070  Biso   1.000  C
  H266     1.0000 0.32770  0.95910  0.27220  Biso   1.000  H
  C762     1.0000 0.23080  0.97810  0.29520  Biso   1.000  C
  C763     1.0000 0.54600  0.95380  0.18690  Biso   1.000  C
  C764     1.0000 0.55950  0.93780  0.16540  Biso   1.000  C
  C765     1.0000 0.57820  0.91790  0.17235  Biso   1.000  C
  H267     1.0000 0.58080  0.91330  0.19040  Biso   1.000  H
  C766     1.0000 0.59290  0.90470  0.15230  Biso   1.000  C
  H268     1.0000 0.60530  0.89140  0.15690  Biso   1.000  H
  C767     1.0000 0.58890  0.91150  0.12520  Biso   1.000  C
  C768     1.0000 0.57020  0.93140  0.11826  Biso   1.000  C
  H269     1.0000 0.56760  0.93590  0.10020  Biso   1.000  H
  C769     1.0000 0.55550  0.94450  0.13840  Biso   1.000  C
  H270     1.0000 0.54310  0.95790  0.13370  Biso   1.000  H
  C770     1.0000 0.60520  0.89840  0.10430  Biso   1.000  C
  C771     1.0000 0.61900  0.88820  0.08760  Biso   1.000  C
  C772     1.0000 0.63700  0.87720  0.06660  Biso   1.000  C
  C773     1.0000 0.63170  0.85140  0.05680  Biso   1.000  C
  C774     1.0000 0.64780  0.84040  0.03640  Biso   1.000  C
  C775     1.0000 0.66930  0.85540  0.02595  Biso   1.000  C
  C776     1.0000 0.67460  0.88120  0.03580  Biso   1.000  C
  C777     1.0000 0.65840  0.89210  0.05610  Biso   1.000  C
  C778     1.0000 0.73320  0.85730  0.02130  Biso   1.000  C
  C779     1.0000 0.75960  0.86490  0.02130  Biso   1.000  C
  C780     1.0000 0.86210  0.91370  0.97640  Biso   1.000  C
  H271     1.0000 0.85610  0.90460  0.96110  Biso   1.000  H
  C781     1.0000 0.88660  0.92740  0.97680  Biso   1.000  C
  H272     1.0000 0.89480  0.93120  0.96020  Biso   1.000  H
  C782     1.0000 0.69750  0.79600  0.02280  Biso   1.000  C
  F265     1.0000 0.64340  0.81740  0.02770  Biso   1.000  F
  F266     1.0000 0.61170  0.83670  0.06580  Biso   1.000  F
  F267     1.0000 0.66100  0.91590  0.06750  Biso   1.000  F
  F268     1.0000 0.69100  0.89600  0.02580  Biso   1.000  F
  F269     1.0000 0.72030  0.85720  0.04590  Biso   1.000  F
  F270     1.0000 0.77370  0.86900  0.04510  Biso   1.000  F
  F271     1.0000 0.69230  0.80850  0.04610  Biso   1.000  F
  F272     1.0000 0.24540  0.95470  0.29370  Biso   1.000  F
  O137     1.0000 0.57977  0.97577  0.25187  Biso   1.000  O
  O138     1.0000 0.55196  0.94731  0.21111  Biso   1.000  O
  O139     1.0000 0.47244  0.02887  0.17675  Biso   1.000  O
  O140     1.0000 0.07030  0.04000  0.98020  Biso   1.000  O
  C783     1.0000 0.63480  0.02590  0.26600  Biso   1.000  C
  H273     1.0000 0.62540  0.04230  0.26560  Biso   1.000  H
  C784     1.0000 0.66230  0.02500  0.27070  Biso   1.000  C
  H274     1.0000 0.67230  0.04090  0.27220  Biso   1.000  H
  C785     1.0000 0.76920  0.02190  0.29520  Biso   1.000  C
  C786     1.0000 0.45400  0.04620  0.18690  Biso   1.000  C
  C787     1.0000 0.44050  0.06220  0.16540  Biso   1.000  C
  C788     1.0000 0.42180  0.08210  0.17235  Biso   1.000  C
  H275     1.0000 0.41920  0.08670  0.19040  Biso   1.000  H
  C789     1.0000 0.40710  0.09530  0.15230  Biso   1.000  C
  H276     1.0000 0.39470  0.10860  0.15690  Biso   1.000  H
  C790     1.0000 0.41110  0.08850  0.12520  Biso   1.000  C
  C791     1.0000 0.42980  0.06860  0.11826  Biso   1.000  C
  H277     1.0000 0.43240  0.06410  0.10020  Biso   1.000  H
  C792     1.0000 0.44450  0.05550  0.13840  Biso   1.000  C
  H278     1.0000 0.45690  0.04210  0.13370  Biso   1.000  H
  C793     1.0000 0.39480  0.10160  0.10430  Biso   1.000  C
  C794     1.0000 0.38100  0.11180  0.08760  Biso   1.000  C
  C795     1.0000 0.36300  0.12280  0.06660  Biso   1.000  C
  C796     1.0000 0.36830  0.14860  0.05680  Biso   1.000  C
  C797     1.0000 0.35220  0.15960  0.03640  Biso   1.000  C
  C798     1.0000 0.33070  0.14460  0.02595  Biso   1.000  C
  C799     1.0000 0.32540  0.11880  0.03580  Biso   1.000  C
  C800     1.0000 0.34160  0.10790  0.05610  Biso   1.000  C
  C801     1.0000 0.26680  0.14270  0.02130  Biso   1.000  C
  C802     1.0000 0.24040  0.13510  0.02130  Biso   1.000  C
  C803     1.0000 0.13790  0.08630  0.97640  Biso   1.000  C
  H279     1.0000 0.14390  0.09540  0.96110  Biso   1.000  H
  C804     1.0000 0.11340  0.07260  0.97680  Biso   1.000  C
  H280     1.0000 0.10520  0.06880  0.96020  Biso   1.000  H
  C805     1.0000 0.30250  0.20400  0.02280  Biso   1.000  C
  F273     1.0000 0.35660  0.18260  0.02770  Biso   1.000  F
  F274     1.0000 0.38830  0.16330  0.06580  Biso   1.000  F
  F275     1.0000 0.33900  0.08410  0.06750  Biso   1.000  F
  F276     1.0000 0.30900  0.10400  0.02580  Biso   1.000  F
  F277     1.0000 0.27970  0.14280  0.04590  Biso   1.000  F
  F278     1.0000 0.22630  0.13100  0.04510  Biso   1.000  F
  F279     1.0000 0.30770  0.19150  0.04610  Biso   1.000  F
  F280     1.0000 0.75460  0.04530  0.29370  Biso   1.000  F
  O141     1.0000 0.42023  0.97577  0.74813  Biso   1.000  O
  O142     1.0000 0.44804  0.94731  0.78889  Biso   1.000  O
  O143     1.0000 0.52756  0.02887  0.82325  Biso   1.000  O
  O144     1.0000 0.92970  0.04000  0.01980  Biso   1.000  O
  C806     1.0000 0.36520  0.02590  0.73400  Biso   1.000  C
  H281     1.0000 0.37460  0.04230  0.73440  Biso   1.000  H
  C807     1.0000 0.33770  0.02500  0.72930  Biso   1.000  C
  H282     1.0000 0.32770  0.04090  0.72780  Biso   1.000  H
  C808     1.0000 0.23080  0.02190  0.70480  Biso   1.000  C
  C809     1.0000 0.54600  0.04620  0.81310  Biso   1.000  C
  C810     1.0000 0.55950  0.06220  0.83460  Biso   1.000  C
  C811     1.0000 0.57820  0.08210  0.82765  Biso   1.000  C
  H283     1.0000 0.58080  0.08670  0.80960  Biso   1.000  H
  C812     1.0000 0.59290  0.09530  0.84770  Biso   1.000  C
  H284     1.0000 0.60530  0.10860  0.84310  Biso   1.000  H
  C813     1.0000 0.58890  0.08850  0.87480  Biso   1.000  C
  C814     1.0000 0.57020  0.06860  0.88174  Biso   1.000  C
  H285     1.0000 0.56760  0.06410  0.89980  Biso   1.000  H
  C815     1.0000 0.55550  0.05550  0.86160  Biso   1.000  C
  H286     1.0000 0.54310  0.04210  0.86630  Biso   1.000  H
  C816     1.0000 0.60520  0.10160  0.89570  Biso   1.000  C
  C817     1.0000 0.61900  0.11180  0.91240  Biso   1.000  C
  C818     1.0000 0.63700  0.12280  0.93340  Biso   1.000  C
  C819     1.0000 0.63170  0.14860  0.94320  Biso   1.000  C
  C820     1.0000 0.64780  0.15960  0.96360  Biso   1.000  C
  C821     1.0000 0.66930  0.14460  0.97405  Biso   1.000  C
  C822     1.0000 0.67460  0.11880  0.96420  Biso   1.000  C
  C823     1.0000 0.65840  0.10790  0.94390  Biso   1.000  C
  C824     1.0000 0.73320  0.14270  0.97870  Biso   1.000  C
  C825     1.0000 0.75960  0.13510  0.97870  Biso   1.000  C
  C826     1.0000 0.86210  0.08630  0.02360  Biso   1.000  C
  H287     1.0000 0.85610  0.09540  0.03890  Biso   1.000  H
  C827     1.0000 0.88660  0.07260  0.02320  Biso   1.000  C
  H288     1.0000 0.89480  0.06880  0.03980  Biso   1.000  H
  C828     1.0000 0.69750  0.20400  0.97720  Biso   1.000  C
  F281     1.0000 0.64340  0.18260  0.97230  Biso   1.000  F
  F282     1.0000 0.61170  0.16330  0.93420  Biso   1.000  F
  F283     1.0000 0.66100  0.08410  0.93250  Biso   1.000  F
  F284     1.0000 0.69100  0.10400  0.97420  Biso   1.000  F
  F285     1.0000 0.72030  0.14280  0.95410  Biso   1.000  F
  F286     1.0000 0.77370  0.13100  0.95490  Biso   1.000  F
  F287     1.0000 0.69230  0.19150  0.95390  Biso   1.000  F
  F288     1.0000 0.24540  0.04530  0.70630  Biso   1.000  F
  O145     1.0000 0.07977  0.24813  0.47577  Biso   1.000  O
  O146     1.0000 0.05196  0.28889  0.44731  Biso   1.000  O
  O147     1.0000 0.97244  0.32325  0.52887  Biso   1.000  O
  O148     1.0000 0.57030  0.51980  0.54000  Biso   1.000  O
  C829     1.0000 0.13480  0.23400  0.52590  Biso   1.000  C
  H289     1.0000 0.12540  0.23440  0.54230  Biso   1.000  H
  C830     1.0000 0.16230  0.22930  0.52500  Biso   1.000  C
  H290     1.0000 0.17230  0.22780  0.54090  Biso   1.000  H
  C831     1.0000 0.26920  0.20480  0.52190  Biso   1.000  C
  C832     1.0000 0.95400  0.31310  0.54620  Biso   1.000  C
  C833     1.0000 0.94050  0.33460  0.56220  Biso   1.000  C
  C834     1.0000 0.92180  0.32765  0.58210  Biso   1.000  C
  H291     1.0000 0.91920  0.30960  0.58670  Biso   1.000  H
  C835     1.0000 0.90710  0.34770  0.59530  Biso   1.000  C
  H292     1.0000 0.89470  0.34310  0.60860  Biso   1.000  H
  C836     1.0000 0.91110  0.37480  0.58850  Biso   1.000  C
  C837     1.0000 0.92980  0.38174  0.56860  Biso   1.000  C
  H293     1.0000 0.93240  0.39980  0.56410  Biso   1.000  H
  C838     1.0000 0.94450  0.36160  0.55550  Biso   1.000  C
  H294     1.0000 0.95690  0.36630  0.54210  Biso   1.000  H
  C839     1.0000 0.89480  0.39570  0.60160  Biso   1.000  C
  C840     1.0000 0.88100  0.41240  0.61180  Biso   1.000  C
  C841     1.0000 0.86300  0.43340  0.62280  Biso   1.000  C
  C842     1.0000 0.86830  0.44320  0.64860  Biso   1.000  C
  C843     1.0000 0.85220  0.46360  0.65960  Biso   1.000  C
  C844     1.0000 0.83070  0.47405  0.64460  Biso   1.000  C
  C845     1.0000 0.82540  0.46420  0.61880  Biso   1.000  C
  C846     1.0000 0.84160  0.44390  0.60790  Biso   1.000  C
  C847     1.0000 0.76680  0.47870  0.64270  Biso   1.000  C
  C848     1.0000 0.74040  0.47870  0.63510  Biso   1.000  C
  C849     1.0000 0.63790  0.52360  0.58630  Biso   1.000  C
  H295     1.0000 0.64390  0.53890  0.59540  Biso   1.000  H
  C850     1.0000 0.61340  0.52320  0.57260  Biso   1.000  C
  H296     1.0000 0.60520  0.53980  0.56880  Biso   1.000  H
  C851     1.0000 0.80250  0.47720  0.70400  Biso   1.000  C
  F289     1.0000 0.85660  0.47230  0.68260  Biso   1.000  F
  F290     1.0000 0.88830  0.43420  0.66330  Biso   1.000  F
  F291     1.0000 0.83900  0.43250  0.58410  Biso   1.000  F
  F292     1.0000 0.80900  0.47420  0.60400  Biso   1.000  F
  F293     1.0000 0.77970  0.45410  0.64280  Biso   1.000  F
  F294     1.0000 0.72630  0.45490  0.63100  Biso   1.000  F
  F295     1.0000 0.80770  0.45390  0.69150  Biso   1.000  F
  F296     1.0000 0.25460  0.20630  0.54530  Biso   1.000  F
  O149     1.0000 0.92023  0.75187  0.47577  Biso   1.000  O
  O150     1.0000 0.94804  0.71111  0.44731  Biso   1.000  O
  O151     1.0000 0.02756  0.67675  0.52887  Biso   1.000  O
  O152     1.0000 0.42970  0.48020  0.54000  Biso   1.000  O
  C852     1.0000 0.86520  0.76600  0.52590  Biso   1.000  C
  H297     1.0000 0.87460  0.76560  0.54230  Biso   1.000  H
  C853     1.0000 0.83770  0.77070  0.52500  Biso   1.000  C
  H298     1.0000 0.82770  0.77220  0.54090  Biso   1.000  H
  C854     1.0000 0.73080  0.79520  0.52190  Biso   1.000  C
  C855     1.0000 0.04600  0.68690  0.54620  Biso   1.000  C
  C856     1.0000 0.05950  0.66540  0.56220  Biso   1.000  C
  C857     1.0000 0.07820  0.67235  0.58210  Biso   1.000  C
  H299     1.0000 0.08080  0.69040  0.58670  Biso   1.000  H
  C858     1.0000 0.09290  0.65230  0.59530  Biso   1.000  C
  H300     1.0000 0.10530  0.65690  0.60860  Biso   1.000  H
  C859     1.0000 0.08890  0.62520  0.58850  Biso   1.000  C
  C860     1.0000 0.07020  0.61826  0.56860  Biso   1.000  C
  H301     1.0000 0.06760  0.60020  0.56410  Biso   1.000  H
  C861     1.0000 0.05550  0.63840  0.55550  Biso   1.000  C
  H302     1.0000 0.04310  0.63370  0.54210  Biso   1.000  H
  C862     1.0000 0.10520  0.60430  0.60160  Biso   1.000  C
  C863     1.0000 0.11900  0.58760  0.61180  Biso   1.000  C
  C864     1.0000 0.13700  0.56660  0.62280  Biso   1.000  C
  C865     1.0000 0.13170  0.55680  0.64860  Biso   1.000  C
  C866     1.0000 0.14780  0.53640  0.65960  Biso   1.000  C
  C867     1.0000 0.16930  0.52595  0.64460  Biso   1.000  C
  C868     1.0000 0.17460  0.53580  0.61880  Biso   1.000  C
  C869     1.0000 0.15840  0.55610  0.60790  Biso   1.000  C
  C870     1.0000 0.23320  0.52130  0.64270  Biso   1.000  C
  C871     1.0000 0.25960  0.52130  0.63510  Biso   1.000  C
  C872     1.0000 0.36210  0.47640  0.58630  Biso   1.000  C
  H303     1.0000 0.35610  0.46110  0.59540  Biso   1.000  H
  C873     1.0000 0.38660  0.47680  0.57260  Biso   1.000  C
  H304     1.0000 0.39480  0.46020  0.56880  Biso   1.000  H
  C874     1.0000 0.19750  0.52280  0.70400  Biso   1.000  C
  F297     1.0000 0.14340  0.52770  0.68260  Biso   1.000  F
  F298     1.0000 0.11170  0.56580  0.66330  Biso   1.000  F
  F299     1.0000 0.16100  0.56750  0.58410  Biso   1.000  F
  F300     1.0000 0.19100  0.52580  0.60400  Biso   1.000  F
  F301     1.0000 0.22030  0.54590  0.64280  Biso   1.000  F
  F302     1.0000 0.27370  0.54510  0.63100  Biso   1.000  F
  F303     1.0000 0.19230  0.54610  0.69150  Biso   1.000  F
  F304     1.0000 0.74540  0.79370  0.54530  Biso   1.000  F
  O153     1.0000 0.07977  0.75187  0.52423  Biso   1.000  O
  O154     1.0000 0.05196  0.71111  0.55269  Biso   1.000  O
  O155     1.0000 0.97244  0.67675  0.47113  Biso   1.000  O
  O156     1.0000 0.57030  0.48020  0.46000  Biso   1.000  O
  C875     1.0000 0.13480  0.76600  0.47410  Biso   1.000  C
  H305     1.0000 0.12540  0.76560  0.45770  Biso   1.000  H
  C876     1.0000 0.16230  0.77070  0.47500  Biso   1.000  C
  H306     1.0000 0.17230  0.77220  0.45910  Biso   1.000  H
  C877     1.0000 0.26920  0.79520  0.47810  Biso   1.000  C
  C878     1.0000 0.95400  0.68690  0.45380  Biso   1.000  C
  C879     1.0000 0.94050  0.66540  0.43780  Biso   1.000  C
  C880     1.0000 0.92180  0.67235  0.41790  Biso   1.000  C
  H307     1.0000 0.91920  0.69040  0.41330  Biso   1.000  H
  C881     1.0000 0.90710  0.65230  0.40470  Biso   1.000  C
  H308     1.0000 0.89470  0.65690  0.39140  Biso   1.000  H
  C882     1.0000 0.91110  0.62520  0.41150  Biso   1.000  C
  C883     1.0000 0.92980  0.61826  0.43140  Biso   1.000  C
  H309     1.0000 0.93240  0.60020  0.43590  Biso   1.000  H
  C884     1.0000 0.94450  0.63840  0.44450  Biso   1.000  C
  H310     1.0000 0.95690  0.63370  0.45790  Biso   1.000  H
  C885     1.0000 0.89480  0.60430  0.39840  Biso   1.000  C
  C886     1.0000 0.88100  0.58760  0.38820  Biso   1.000  C
  C887     1.0000 0.86300  0.56660  0.37720  Biso   1.000  C
  C888     1.0000 0.86830  0.55680  0.35140  Biso   1.000  C
  C889     1.0000 0.85220  0.53640  0.34040  Biso   1.000  C
  C890     1.0000 0.83070  0.52595  0.35540  Biso   1.000  C
  C891     1.0000 0.82540  0.53580  0.38120  Biso   1.000  C
  C892     1.0000 0.84160  0.55610  0.39210  Biso   1.000  C
  C893     1.0000 0.76680  0.52130  0.35730  Biso   1.000  C
  C894     1.0000 0.74040  0.52130  0.36490  Biso   1.000  C
  C895     1.0000 0.63790  0.47640  0.41370  Biso   1.000  C
  H311     1.0000 0.64390  0.46110  0.40460  Biso   1.000  H
  C896     1.0000 0.61340  0.47680  0.42740  Biso   1.000  C
  H312     1.0000 0.60520  0.46020  0.43120  Biso   1.000  H
  C897     1.0000 0.80250  0.52280  0.29600  Biso   1.000  C
  F305     1.0000 0.85660  0.52770  0.31740  Biso   1.000  F
  F306     1.0000 0.88830  0.56580  0.33670  Biso   1.000  F
  F307     1.0000 0.83900  0.56750  0.41590  Biso   1.000  F
  F308     1.0000 0.80900  0.52580  0.39600  Biso   1.000  F
  F309     1.0000 0.77970  0.54590  0.35720  Biso   1.000  F
  F310     1.0000 0.72630  0.54510  0.36900  Biso   1.000  F
  F311     1.0000 0.80770  0.54610  0.30850  Biso   1.000  F
  F312     1.0000 0.25460  0.79370  0.45470  Biso   1.000  F
  O157     1.0000 0.92023  0.24813  0.52423  Biso   1.000  O
  O158     1.0000 0.94804  0.28889  0.55269  Biso   1.000  O
  O159     1.0000 0.02756  0.32325  0.47113  Biso   1.000  O
  O160     1.0000 0.42970  0.51980  0.46000  Biso   1.000  O
  C898     1.0000 0.86520  0.23400  0.47410  Biso   1.000  C
  H313     1.0000 0.87460  0.23440  0.45770  Biso   1.000  H
  C899     1.0000 0.83770  0.22930  0.47500  Biso   1.000  C
  H314     1.0000 0.82770  0.22780  0.45910  Biso   1.000  H
  C900     1.0000 0.73080  0.20480  0.47810  Biso   1.000  C
  C901     1.0000 0.04600  0.31310  0.45380  Biso   1.000  C
  C902     1.0000 0.05950  0.33460  0.43780  Biso   1.000  C
  C903     1.0000 0.07820  0.32765  0.41790  Biso   1.000  C
  H315     1.0000 0.08080  0.30960  0.41330  Biso   1.000  H
  C904     1.0000 0.09290  0.34770  0.40470  Biso   1.000  C
  H316     1.0000 0.10530  0.34310  0.39140  Biso   1.000  H
  C905     1.0000 0.08890  0.37480  0.41150  Biso   1.000  C
  C906     1.0000 0.07020  0.38174  0.43140  Biso   1.000  C
  H317     1.0000 0.06760  0.39980  0.43590  Biso   1.000  H
  C907     1.0000 0.05550  0.36160  0.44450  Biso   1.000  C
  H318     1.0000 0.04310  0.36630  0.45790  Biso   1.000  H
  C908     1.0000 0.10520  0.39570  0.39840  Biso   1.000  C
  C909     1.0000 0.11900  0.41240  0.38820  Biso   1.000  C
  C910     1.0000 0.13700  0.43340  0.37720  Biso   1.000  C
  C911     1.0000 0.13170  0.44320  0.35140  Biso   1.000  C
  C912     1.0000 0.14780  0.46360  0.34040  Biso   1.000  C
  C913     1.0000 0.16930  0.47405  0.35540  Biso   1.000  C
  C914     1.0000 0.17460  0.46420  0.38120  Biso   1.000  C
  C915     1.0000 0.15840  0.44390  0.39210  Biso   1.000  C
  C916     1.0000 0.23320  0.47870  0.35730  Biso   1.000  C
  C917     1.0000 0.25960  0.47870  0.36490  Biso   1.000  C
  C918     1.0000 0.36210  0.52360  0.41370  Biso   1.000  C
  H319     1.0000 0.35610  0.53890  0.40460  Biso   1.000  H
  C919     1.0000 0.38660  0.52320  0.42740  Biso   1.000  C
  H320     1.0000 0.39480  0.53980  0.43120  Biso   1.000  H
  C920     1.0000 0.19750  0.47720  0.29600  Biso   1.000  C
  F313     1.0000 0.14340  0.47230  0.31740  Biso   1.000  F
  F314     1.0000 0.11170  0.43420  0.33670  Biso   1.000  F
  F315     1.0000 0.16100  0.43250  0.41590  Biso   1.000  F
  F316     1.0000 0.19100  0.47420  0.39600  Biso   1.000  F
  F317     1.0000 0.22030  0.45410  0.35720  Biso   1.000  F
  F318     1.0000 0.27370  0.45490  0.36900  Biso   1.000  F
  F319     1.0000 0.19230  0.45390  0.30850  Biso   1.000  F
  F320     1.0000 0.74540  0.20630  0.45470  Biso   1.000  F
  O161     1.0000 0.24813  0.52423  0.92023  Biso   1.000  O
  O162     1.0000 0.28889  0.55269  0.94804  Biso   1.000  O
  O163     1.0000 0.32325  0.47113  0.02756  Biso   1.000  O
  O164     1.0000 0.51980  0.46000  0.42970  Biso   1.000  O
  C921     1.0000 0.23400  0.47410  0.86520  Biso   1.000  C
  H321     1.0000 0.23440  0.45770  0.87460  Biso   1.000  H
  C922     1.0000 0.22930  0.47500  0.83770  Biso   1.000  C
  H322     1.0000 0.22780  0.45910  0.82770  Biso   1.000  H
  C923     1.0000 0.20480  0.47810  0.73080  Biso   1.000  C
  C924     1.0000 0.31310  0.45380  0.04600  Biso   1.000  C
  C925     1.0000 0.33460  0.43780  0.05950  Biso   1.000  C
  C926     1.0000 0.32765  0.41790  0.07820  Biso   1.000  C
  H323     1.0000 0.30960  0.41330  0.08080  Biso   1.000  H
  C927     1.0000 0.34770  0.40470  0.09290  Biso   1.000  C
  H324     1.0000 0.34310  0.39140  0.10530  Biso   1.000  H
  C928     1.0000 0.37480  0.41150  0.08890  Biso   1.000  C
  C929     1.0000 0.38174  0.43140  0.07020  Biso   1.000  C
  H325     1.0000 0.39980  0.43590  0.06760  Biso   1.000  H
  C930     1.0000 0.36160  0.44450  0.05550  Biso   1.000  C
  H326     1.0000 0.36630  0.45790  0.04310  Biso   1.000  H
  C931     1.0000 0.39570  0.39840  0.10520  Biso   1.000  C
  C932     1.0000 0.41240  0.38820  0.11900  Biso   1.000  C
  C933     1.0000 0.43340  0.37720  0.13700  Biso   1.000  C
  C934     1.0000 0.44320  0.35140  0.13170  Biso   1.000  C
  C935     1.0000 0.46360  0.34040  0.14780  Biso   1.000  C
  C936     1.0000 0.47405  0.35540  0.16930  Biso   1.000  C
  C937     1.0000 0.46420  0.38120  0.17460  Biso   1.000  C
  C938     1.0000 0.44390  0.39210  0.15840  Biso   1.000  C
  C939     1.0000 0.47870  0.35730  0.23320  Biso   1.000  C
  C940     1.0000 0.47870  0.36490  0.25960  Biso   1.000  C
  C941     1.0000 0.52360  0.41370  0.36210  Biso   1.000  C
  H327     1.0000 0.53890  0.40460  0.35610  Biso   1.000  H
  C942     1.0000 0.52320  0.42740  0.38660  Biso   1.000  C
  H328     1.0000 0.53980  0.43120  0.39480  Biso   1.000  H
  C943     1.0000 0.47720  0.29600  0.19750  Biso   1.000  C
  F321     1.0000 0.47230  0.31740  0.14340  Biso   1.000  F
  F322     1.0000 0.43420  0.33670  0.11170  Biso   1.000  F
  F323     1.0000 0.43250  0.41590  0.16100  Biso   1.000  F
  F324     1.0000 0.47420  0.39600  0.19100  Biso   1.000  F
  F325     1.0000 0.45410  0.35720  0.22030  Biso   1.000  F
  F326     1.0000 0.45490  0.36900  0.27370  Biso   1.000  F
  F327     1.0000 0.45390  0.30850  0.19230  Biso   1.000  F
  F328     1.0000 0.20630  0.45470  0.74540  Biso   1.000  F
  O165     1.0000 0.75187  0.52423  0.07977  Biso   1.000  O
  O166     1.0000 0.71111  0.55269  0.05196  Biso   1.000  O
  O167     1.0000 0.67675  0.47113  0.97244  Biso   1.000  O
  O168     1.0000 0.48020  0.46000  0.57030  Biso   1.000  O
  C944     1.0000 0.76600  0.47410  0.13480  Biso   1.000  C
  H329     1.0000 0.76560  0.45770  0.12540  Biso   1.000  H
  C945     1.0000 0.77070  0.47500  0.16230  Biso   1.000  C
  H330     1.0000 0.77220  0.45910  0.17230  Biso   1.000  H
  C946     1.0000 0.79520  0.47810  0.26920  Biso   1.000  C
  C947     1.0000 0.68690  0.45380  0.95400  Biso   1.000  C
  C948     1.0000 0.66540  0.43780  0.94050  Biso   1.000  C
  C949     1.0000 0.67235  0.41790  0.92180  Biso   1.000  C
  H331     1.0000 0.69040  0.41330  0.91920  Biso   1.000  H
  C950     1.0000 0.65230  0.40470  0.90710  Biso   1.000  C
  H332     1.0000 0.65690  0.39140  0.89470  Biso   1.000  H
  C951     1.0000 0.62520  0.41150  0.91110  Biso   1.000  C
  C952     1.0000 0.61826  0.43140  0.92980  Biso   1.000  C
  H333     1.0000 0.60020  0.43590  0.93240  Biso   1.000  H
  C953     1.0000 0.63840  0.44450  0.94450  Biso   1.000  C
  H334     1.0000 0.63370  0.45790  0.95690  Biso   1.000  H
  C954     1.0000 0.60430  0.39840  0.89480  Biso   1.000  C
  C955     1.0000 0.58760  0.38820  0.88100  Biso   1.000  C
  C956     1.0000 0.56660  0.37720  0.86300  Biso   1.000  C
  C957     1.0000 0.55680  0.35140  0.86830  Biso   1.000  C
  C958     1.0000 0.53640  0.34040  0.85220  Biso   1.000  C
  C959     1.0000 0.52595  0.35540  0.83070  Biso   1.000  C
  C960     1.0000 0.53580  0.38120  0.82540  Biso   1.000  C
  C961     1.0000 0.55610  0.39210  0.84160  Biso   1.000  C
  C962     1.0000 0.52130  0.35730  0.76680  Biso   1.000  C
  C963     1.0000 0.52130  0.36490  0.74040  Biso   1.000  C
  C964     1.0000 0.47640  0.41370  0.63790  Biso   1.000  C
  H335     1.0000 0.46110  0.40460  0.64390  Biso   1.000  H
  C965     1.0000 0.47680  0.42740  0.61340  Biso   1.000  C
  H336     1.0000 0.46020  0.43120  0.60520  Biso   1.000  H
  C966     1.0000 0.52280  0.29600  0.80250  Biso   1.000  C
  F329     1.0000 0.52770  0.31740  0.85660  Biso   1.000  F
  F330     1.0000 0.56580  0.33670  0.88830  Biso   1.000  F
  F331     1.0000 0.56750  0.41590  0.83900  Biso   1.000  F
  F332     1.0000 0.52580  0.39600  0.80900  Biso   1.000  F
  F333     1.0000 0.54590  0.35720  0.77970  Biso   1.000  F
  F334     1.0000 0.54510  0.36900  0.72630  Biso   1.000  F
  F335     1.0000 0.54610  0.30850  0.80770  Biso   1.000  F
  F336     1.0000 0.79370  0.45470  0.25460  Biso   1.000  F
  O169     1.0000 0.75187  0.47577  0.92023  Biso   1.000  O
  O170     1.0000 0.71111  0.44731  0.94804  Biso   1.000  O
  O171     1.0000 0.67675  0.52887  0.02756  Biso   1.000  O
  O172     1.0000 0.48020  0.54000  0.42970  Biso   1.000  O
  C967     1.0000 0.76600  0.52590  0.86520  Biso   1.000  C
  H337     1.0000 0.76560  0.54230  0.87460  Biso   1.000  H
  C968     1.0000 0.77070  0.52500  0.83770  Biso   1.000  C
  H338     1.0000 0.77220  0.54090  0.82770  Biso   1.000  H
  C969     1.0000 0.79520  0.52190  0.73080  Biso   1.000  C
  C970     1.0000 0.68690  0.54620  0.04600  Biso   1.000  C
  C971     1.0000 0.66540  0.56220  0.05950  Biso   1.000  C
  C972     1.0000 0.67235  0.58210  0.07820  Biso   1.000  C
  H339     1.0000 0.69040  0.58670  0.08080  Biso   1.000  H
  C973     1.0000 0.65230  0.59530  0.09290  Biso   1.000  C
  H340     1.0000 0.65690  0.60860  0.10530  Biso   1.000  H
  C974     1.0000 0.62520  0.58850  0.08890  Biso   1.000  C
  C975     1.0000 0.61826  0.56860  0.07020  Biso   1.000  C
  H341     1.0000 0.60020  0.56410  0.06760  Biso   1.000  H
  C976     1.0000 0.63840  0.55550  0.05550  Biso   1.000  C
  H342     1.0000 0.63370  0.54210  0.04310  Biso   1.000  H
  C977     1.0000 0.60430  0.60160  0.10520  Biso   1.000  C
  C978     1.0000 0.58760  0.61180  0.11900  Biso   1.000  C
  C979     1.0000 0.56660  0.62280  0.13700  Biso   1.000  C
  C980     1.0000 0.55680  0.64860  0.13170  Biso   1.000  C
  C981     1.0000 0.53640  0.65960  0.14780  Biso   1.000  C
  C982     1.0000 0.52595  0.64460  0.16930  Biso   1.000  C
  C983     1.0000 0.53580  0.61880  0.17460  Biso   1.000  C
  C984     1.0000 0.55610  0.60790  0.15840  Biso   1.000  C
  C985     1.0000 0.52130  0.64270  0.23320  Biso   1.000  C
  C986     1.0000 0.52130  0.63510  0.25960  Biso   1.000  C
  C987     1.0000 0.47640  0.58630  0.36210  Biso   1.000  C
  H343     1.0000 0.46110  0.59540  0.35610  Biso   1.000  H
  C988     1.0000 0.47680  0.57260  0.38660  Biso   1.000  C
  H344     1.0000 0.46020  0.56880  0.39480  Biso   1.000  H
  C989     1.0000 0.52280  0.70400  0.19750  Biso   1.000  C
  F337     1.0000 0.52770  0.68260  0.14340  Biso   1.000  F
  F338     1.0000 0.56580  0.66330  0.11170  Biso   1.000  F
  F339     1.0000 0.56750  0.58410  0.16100  Biso   1.000  F
  F340     1.0000 0.52580  0.60400  0.19100  Biso   1.000  F
  F341     1.0000 0.54590  0.64280  0.22030  Biso   1.000  F
  F342     1.0000 0.54510  0.63100  0.27370  Biso   1.000  F
  F343     1.0000 0.54610  0.69150  0.19230  Biso   1.000  F
  F344     1.0000 0.79370  0.54530  0.74540  Biso   1.000  F
  O173     1.0000 0.24813  0.47577  0.07977  Biso   1.000  O
  O174     1.0000 0.28889  0.44731  0.05196  Biso   1.000  O
  O175     1.0000 0.32325  0.52887  0.97244  Biso   1.000  O
  O176     1.0000 0.51980  0.54000  0.57030  Biso   1.000  O
  C990     1.0000 0.23400  0.52590  0.13480  Biso   1.000  C
  H345     1.0000 0.23440  0.54230  0.12540  Biso   1.000  H
  C991     1.0000 0.22930  0.52500  0.16230  Biso   1.000  C
  H346     1.0000 0.22780  0.54090  0.17230  Biso   1.000  H
  C992     1.0000 0.20480  0.52190  0.26920  Biso   1.000  C
  C993     1.0000 0.31310  0.54620  0.95400  Biso   1.000  C
  C994     1.0000 0.33460  0.56220  0.94050  Biso   1.000  C
  C995     1.0000 0.32765  0.58210  0.92180  Biso   1.000  C
  H347     1.0000 0.30960  0.58670  0.91920  Biso   1.000  H
  C996     1.0000 0.34770  0.59530  0.90710  Biso   1.000  C
  H348     1.0000 0.34310  0.60860  0.89470  Biso   1.000  H
  C997     1.0000 0.37480  0.58850  0.91110  Biso   1.000  C
  C998     1.0000 0.38174  0.56860  0.92980  Biso   1.000  C
  H349     1.0000 0.39980  0.56410  0.93240  Biso   1.000  H
  C999     1.0000 0.36160  0.55550  0.94450  Biso   1.000  C
  H350     1.0000 0.36630  0.54210  0.95690  Biso   1.000  H
  C1000    1.0000 0.39570  0.60160  0.89480  Biso   1.000  C
  C1001    1.0000 0.41240  0.61180  0.88100  Biso   1.000  C
  C1002    1.0000 0.43340  0.62280  0.86300  Biso   1.000  C
  C1003    1.0000 0.44320  0.64860  0.86830  Biso   1.000  C
  C1004    1.0000 0.46360  0.65960  0.85220  Biso   1.000  C
  C1005    1.0000 0.47405  0.64460  0.83070  Biso   1.000  C
  C1006    1.0000 0.46420  0.61880  0.82540  Biso   1.000  C
  C1007    1.0000 0.44390  0.60790  0.84160  Biso   1.000  C
  C1008    1.0000 0.47870  0.64270  0.76680  Biso   1.000  C
  C1009    1.0000 0.47870  0.63510  0.74040  Biso   1.000  C
  C1010    1.0000 0.52360  0.58630  0.63790  Biso   1.000  C
  H351     1.0000 0.53890  0.59540  0.64390  Biso   1.000  H
  C1011    1.0000 0.52320  0.57260  0.61340  Biso   1.000  C
  H352     1.0000 0.53980  0.56880  0.60520  Biso   1.000  H
  C1012    1.0000 0.47720  0.70400  0.80250  Biso   1.000  C
  F345     1.0000 0.47230  0.68260  0.85660  Biso   1.000  F
  F346     1.0000 0.43420  0.66330  0.88830  Biso   1.000  F
  F347     1.0000 0.43250  0.58410  0.83900  Biso   1.000  F
  F348     1.0000 0.47420  0.60400  0.80900  Biso   1.000  F
  F349     1.0000 0.45410  0.64280  0.77970  Biso   1.000  F
  F350     1.0000 0.45490  0.63100  0.72630  Biso   1.000  F
  F351     1.0000 0.45390  0.69150  0.80770  Biso   1.000  F
  F352     1.0000 0.20630  0.54530  0.25460  Biso   1.000  F
  O177     1.0000 0.52423  0.07977  0.75187  Biso   1.000  O
  O178     1.0000 0.55269  0.05196  0.71111  Biso   1.000  O
  O179     1.0000 0.47113  0.97244  0.67675  Biso   1.000  O
  O180     1.0000 0.46000  0.57030  0.48020  Biso   1.000  O
  C1013    1.0000 0.47410  0.13480  0.76600  Biso   1.000  C
  H353     1.0000 0.45770  0.12540  0.76560  Biso   1.000  H
  C1014    1.0000 0.47500  0.16230  0.77070  Biso   1.000  C
  H354     1.0000 0.45910  0.17230  0.77220  Biso   1.000  H
  C1015    1.0000 0.47810  0.26920  0.79520  Biso   1.000  C
  C1016    1.0000 0.45380  0.95400  0.68690  Biso   1.000  C
  C1017    1.0000 0.43780  0.94050  0.66540  Biso   1.000  C
  C1018    1.0000 0.41790  0.92180  0.67235  Biso   1.000  C
  H355     1.0000 0.41330  0.91920  0.69040  Biso   1.000  H
  C1019    1.0000 0.40470  0.90710  0.65230  Biso   1.000  C
  H356     1.0000 0.39140  0.89470  0.65690  Biso   1.000  H
  C1020    1.0000 0.41150  0.91110  0.62520  Biso   1.000  C
  C1021    1.0000 0.43140  0.92980  0.61826  Biso   1.000  C
  H357     1.0000 0.43590  0.93240  0.60020  Biso   1.000  H
  C1022    1.0000 0.44450  0.94450  0.63840  Biso   1.000  C
  H358     1.0000 0.45790  0.95690  0.63370  Biso   1.000  H
  C1023    1.0000 0.39840  0.89480  0.60430  Biso   1.000  C
  C1024    1.0000 0.38820  0.88100  0.58760  Biso   1.000  C
  C1025    1.0000 0.37720  0.86300  0.56660  Biso   1.000  C
  C1026    1.0000 0.35140  0.86830  0.55680  Biso   1.000  C
  C1027    1.0000 0.34040  0.85220  0.53640  Biso   1.000  C
  C1028    1.0000 0.35540  0.83070  0.52595  Biso   1.000  C
  C1029    1.0000 0.38120  0.82540  0.53580  Biso   1.000  C
  C1030    1.0000 0.39210  0.84160  0.55610  Biso   1.000  C
  C1031    1.0000 0.35730  0.76680  0.52130  Biso   1.000  C
  C1032    1.0000 0.36490  0.74040  0.52130  Biso   1.000  C
  C1033    1.0000 0.41370  0.63790  0.47640  Biso   1.000  C
  H359     1.0000 0.40460  0.64390  0.46110  Biso   1.000  H
  C1034    1.0000 0.42740  0.61340  0.47680  Biso   1.000  C
  H360     1.0000 0.43120  0.60520  0.46020  Biso   1.000  H
  C1035    1.0000 0.29600  0.80250  0.52280  Biso   1.000  C
  F353     1.0000 0.31740  0.85660  0.52770  Biso   1.000  F
  F354     1.0000 0.33670  0.88830  0.56580  Biso   1.000  F
  F355     1.0000 0.41590  0.83900  0.56750  Biso   1.000  F
  F356     1.0000 0.39600  0.80900  0.52580  Biso   1.000  F
  F357     1.0000 0.35720  0.77970  0.54590  Biso   1.000  F
  F358     1.0000 0.36900  0.72630  0.54510  Biso   1.000  F
  F359     1.0000 0.30850  0.80770  0.54610  Biso   1.000  F
  F360     1.0000 0.45470  0.25460  0.79370  Biso   1.000  F
  O181     1.0000 0.52423  0.92023  0.24813  Biso   1.000  O
  O182     1.0000 0.55269  0.94804  0.28889  Biso   1.000  O
  O183     1.0000 0.47113  0.02756  0.32325  Biso   1.000  O
  O184     1.0000 0.46000  0.42970  0.51980  Biso   1.000  O
  C1036    1.0000 0.47410  0.86520  0.23400  Biso   1.000  C
  H361     1.0000 0.45770  0.87460  0.23440  Biso   1.000  H
  C1037    1.0000 0.47500  0.83770  0.22930  Biso   1.000  C
  H362     1.0000 0.45910  0.82770  0.22780  Biso   1.000  H
  C1038    1.0000 0.47810  0.73080  0.20480  Biso   1.000  C
  C1039    1.0000 0.45380  0.04600  0.31310  Biso   1.000  C
  C1040    1.0000 0.43780  0.05950  0.33460  Biso   1.000  C
  C1041    1.0000 0.41790  0.07820  0.32765  Biso   1.000  C
  H363     1.0000 0.41330  0.08080  0.30960  Biso   1.000  H
  C1042    1.0000 0.40470  0.09290  0.34770  Biso   1.000  C
  H364     1.0000 0.39140  0.10530  0.34310  Biso   1.000  H
  C1043    1.0000 0.41150  0.08890  0.37480  Biso   1.000  C
  C1044    1.0000 0.43140  0.07020  0.38174  Biso   1.000  C
  H365     1.0000 0.43590  0.06760  0.39980  Biso   1.000  H
  C1045    1.0000 0.44450  0.05550  0.36160  Biso   1.000  C
  H366     1.0000 0.45790  0.04310  0.36630  Biso   1.000  H
  C1046    1.0000 0.39840  0.10520  0.39570  Biso   1.000  C
  C1047    1.0000 0.38820  0.11900  0.41240  Biso   1.000  C
  C1048    1.0000 0.37720  0.13700  0.43340  Biso   1.000  C
  C1049    1.0000 0.35140  0.13170  0.44320  Biso   1.000  C
  C1050    1.0000 0.34040  0.14780  0.46360  Biso   1.000  C
  C1051    1.0000 0.35540  0.16930  0.47405  Biso   1.000  C
  C1052    1.0000 0.38120  0.17460  0.46420  Biso   1.000  C
  C1053    1.0000 0.39210  0.15840  0.44390  Biso   1.000  C
  C1054    1.0000 0.35730  0.23320  0.47870  Biso   1.000  C
  C1055    1.0000 0.36490  0.25960  0.47870  Biso   1.000  C
  C1056    1.0000 0.41370  0.36210  0.52360  Biso   1.000  C
  H367     1.0000 0.40460  0.35610  0.53890  Biso   1.000  H
  C1057    1.0000 0.42740  0.38660  0.52320  Biso   1.000  C
  H368     1.0000 0.43120  0.39480  0.53980  Biso   1.000  H
  C1058    1.0000 0.29600  0.19750  0.47720  Biso   1.000  C
  F361     1.0000 0.31740  0.14340  0.47230  Biso   1.000  F
  F362     1.0000 0.33670  0.11170  0.43420  Biso   1.000  F
  F363     1.0000 0.41590  0.16100  0.43250  Biso   1.000  F
  F364     1.0000 0.39600  0.19100  0.47420  Biso   1.000  F
  F365     1.0000 0.35720  0.22030  0.45410  Biso   1.000  F
  F366     1.0000 0.36900  0.27370  0.45490  Biso   1.000  F
  F367     1.0000 0.30850  0.19230  0.45390  Biso   1.000  F
  F368     1.0000 0.45470  0.74540  0.20630  Biso   1.000  F
  O185     1.0000 0.47577  0.07977  0.24813  Biso   1.000  O
  O186     1.0000 0.44731  0.05196  0.28889  Biso   1.000  O
  O187     1.0000 0.52887  0.97244  0.32325  Biso   1.000  O
  O188     1.0000 0.54000  0.57030  0.51980  Biso   1.000  O
  C1059    1.0000 0.52590  0.13480  0.23400  Biso   1.000  C
  H369     1.0000 0.54230  0.12540  0.23440  Biso   1.000  H
  C1060    1.0000 0.52500  0.16230  0.22930  Biso   1.000  C
  H370     1.0000 0.54090  0.17230  0.22780  Biso   1.000  H
  C1061    1.0000 0.52190  0.26920  0.20480  Biso   1.000  C
  C1062    1.0000 0.54620  0.95400  0.31310  Biso   1.000  C
  C1063    1.0000 0.56220  0.94050  0.33460  Biso   1.000  C
  C1064    1.0000 0.58210  0.92180  0.32765  Biso   1.000  C
  H371     1.0000 0.58670  0.91920  0.30960  Biso   1.000  H
  C1065    1.0000 0.59530  0.90710  0.34770  Biso   1.000  C
  H372     1.0000 0.60860  0.89470  0.34310  Biso   1.000  H
  C1066    1.0000 0.58850  0.91110  0.37480  Biso   1.000  C
  C1067    1.0000 0.56860  0.92980  0.38174  Biso   1.000  C
  H373     1.0000 0.56410  0.93240  0.39980  Biso   1.000  H
  C1068    1.0000 0.55550  0.94450  0.36160  Biso   1.000  C
  H374     1.0000 0.54210  0.95690  0.36630  Biso   1.000  H
  C1069    1.0000 0.60160  0.89480  0.39570  Biso   1.000  C
  C1070    1.0000 0.61180  0.88100  0.41240  Biso   1.000  C
  C1071    1.0000 0.62280  0.86300  0.43340  Biso   1.000  C
  C1072    1.0000 0.64860  0.86830  0.44320  Biso   1.000  C
  C1073    1.0000 0.65960  0.85220  0.46360  Biso   1.000  C
  C1074    1.0000 0.64460  0.83070  0.47405  Biso   1.000  C
  C1075    1.0000 0.61880  0.82540  0.46420  Biso   1.000  C
  C1076    1.0000 0.60790  0.84160  0.44390  Biso   1.000  C
  C1077    1.0000 0.64270  0.76680  0.47870  Biso   1.000  C
  C1078    1.0000 0.63510  0.74040  0.47870  Biso   1.000  C
  C1079    1.0000 0.58630  0.63790  0.52360  Biso   1.000  C
  H375     1.0000 0.59540  0.64390  0.53890  Biso   1.000  H
  C1080    1.0000 0.57260  0.61340  0.52320  Biso   1.000  C
  H376     1.0000 0.56880  0.60520  0.53980  Biso   1.000  H
  C1081    1.0000 0.70400  0.80250  0.47720  Biso   1.000  C
  F369     1.0000 0.68260  0.85660  0.47230  Biso   1.000  F
  F370     1.0000 0.66330  0.88830  0.43420  Biso   1.000  F
  F371     1.0000 0.58410  0.83900  0.43250  Biso   1.000  F
  F372     1.0000 0.60400  0.80900  0.47420  Biso   1.000  F
  F373     1.0000 0.64280  0.77970  0.45410  Biso   1.000  F
  F374     1.0000 0.63100  0.72630  0.45490  Biso   1.000  F
  F375     1.0000 0.69150  0.80770  0.45390  Biso   1.000  F
  F376     1.0000 0.54530  0.25460  0.20630  Biso   1.000  F
  O189     1.0000 0.47577  0.92023  0.75187  Biso   1.000  O
  O190     1.0000 0.44731  0.94804  0.71111  Biso   1.000  O
  O191     1.0000 0.52887  0.02756  0.67675  Biso   1.000  O
  O192     1.0000 0.54000  0.42970  0.48020  Biso   1.000  O
  C1082    1.0000 0.52590  0.86520  0.76600  Biso   1.000  C
  H377     1.0000 0.54230  0.87460  0.76560  Biso   1.000  H
  C1083    1.0000 0.52500  0.83770  0.77070  Biso   1.000  C
  H378     1.0000 0.54090  0.82770  0.77220  Biso   1.000  H
  C1084    1.0000 0.52190  0.73080  0.79520  Biso   1.000  C
  C1085    1.0000 0.54620  0.04600  0.68690  Biso   1.000  C
  C1086    1.0000 0.56220  0.05950  0.66540  Biso   1.000  C
  C1087    1.0000 0.58210  0.07820  0.67235  Biso   1.000  C
  H379     1.0000 0.58670  0.08080  0.69040  Biso   1.000  H
  C1088    1.0000 0.59530  0.09290  0.65230  Biso   1.000  C
  H380     1.0000 0.60860  0.10530  0.65690  Biso   1.000  H
  C1089    1.0000 0.58850  0.08890  0.62520  Biso   1.000  C
  C1090    1.0000 0.56860  0.07020  0.61826  Biso   1.000  C
  H381     1.0000 0.56410  0.06760  0.60020  Biso   1.000  H
  C1091    1.0000 0.55550  0.05550  0.63840  Biso   1.000  C
  H382     1.0000 0.54210  0.04310  0.63370  Biso   1.000  H
  C1092    1.0000 0.60160  0.10520  0.60430  Biso   1.000  C
  C1093    1.0000 0.61180  0.11900  0.58760  Biso   1.000  C
  C1094    1.0000 0.62280  0.13700  0.56660  Biso   1.000  C
  C1095    1.0000 0.64860  0.13170  0.55680  Biso   1.000  C
  C1096    1.0000 0.65960  0.14780  0.53640  Biso   1.000  C
  C1097    1.0000 0.64460  0.16930  0.52595  Biso   1.000  C
  C1098    1.0000 0.61880  0.17460  0.53580  Biso   1.000  C
  C1099    1.0000 0.60790  0.15840  0.55610  Biso   1.000  C
  C1100    1.0000 0.64270  0.23320  0.52130  Biso   1.000  C
  C1101    1.0000 0.63510  0.25960  0.52130  Biso   1.000  C
  C1102    1.0000 0.58630  0.36210  0.47640  Biso   1.000  C
  H383     1.0000 0.59540  0.35610  0.46110  Biso   1.000  H
  C1103    1.0000 0.57260  0.38660  0.47680  Biso   1.000  C
  H384     1.0000 0.56880  0.39480  0.46020  Biso   1.000  H
  C1104    1.0000 0.70400  0.19750  0.52280  Biso   1.000  C
  F377     1.0000 0.68260  0.14340  0.52770  Biso   1.000  F
  F378     1.0000 0.66330  0.11170  0.56580  Biso   1.000  F
  F379     1.0000 0.58410  0.16100  0.56750  Biso   1.000  F
  F380     1.0000 0.60400  0.19100  0.52580  Biso   1.000  F
  F381     1.0000 0.64280  0.22030  0.54590  Biso   1.000  F
  F382     1.0000 0.63100  0.27370  0.54510  Biso   1.000  F
  F383     1.0000 0.69150  0.19230  0.54610  Biso   1.000  F
  F384     1.0000 0.54530  0.74540  0.79370  Biso   1.000  F
  Zr1      1.0000 0.25000  0.46440  0.96440  Biso   1.000  Zr
  Zr2      1.0000 0.75000  0.53560  0.96440  Biso   1.000  Zr
  Zr3      1.0000 0.75000  0.46440  0.03560  Biso   1.000  Zr
  Zr4      1.0000 0.25000  0.53560  0.03560  Biso   1.000  Zr
  Zr5      1.0000 0.96440  0.25000  0.46440  Biso   1.000  Zr
  Zr6      1.0000 0.96440  0.75000  0.53560  Biso   1.000  Zr
  Zr7      1.0000 0.03560  0.75000  0.46440  Biso   1.000  Zr
  Zr8      1.0000 0.03560  0.25000  0.53560  Biso   1.000  Zr
  Zr9      1.0000 0.46440  0.96440  0.25000  Biso   1.000  Zr
  Zr10     1.0000 0.53560  0.96440  0.75000  Biso   1.000  Zr
  Zr11     1.0000 0.46440  0.03560  0.75000  Biso   1.000  Zr
  Zr12     1.0000 0.53560  0.03560  0.25000  Biso   1.000  Zr
  Zr13     1.0000 0.75000  0.53560  0.03560  Biso   1.000  Zr
  Zr14     1.0000 0.25000  0.46440  0.03560  Biso   1.000  Zr
  Zr15     1.0000 0.25000  0.53560  0.96440  Biso   1.000  Zr
  Zr16     1.0000 0.75000  0.46440  0.96440  Biso   1.000  Zr
  Zr17     1.0000 0.03560  0.75000  0.53560  Biso   1.000  Zr
  Zr18     1.0000 0.03560  0.25000  0.46440  Biso   1.000  Zr
  Zr19     1.0000 0.96440  0.25000  0.53560  Biso   1.000  Zr
  Zr20     1.0000 0.96440  0.75000  0.46440  Biso   1.000  Zr
  Zr21     1.0000 0.53560  0.03560  0.75000  Biso   1.000  Zr
  Zr22     1.0000 0.46440  0.03560  0.25000  Biso   1.000  Zr
  Zr23     1.0000 0.53560  0.96440  0.25000  Biso   1.000  Zr
  Zr24     1.0000 0.46440  0.96440  0.75000  Biso   1.000  Zr
  Zr25     1.0000 0.19962  0.50000  0.00000  Biso   1.000  Zr
  Zr26     1.0000 0.80038  0.50000  0.00000  Biso   1.000  Zr
  Zr27     1.0000 0.00000  0.19962  0.50000  Biso   1.000  Zr
  Zr28     1.0000 0.00000  0.80038  0.50000  Biso   1.000  Zr
  Zr29     1.0000 0.50000  0.00000  0.19962  Biso   1.000  Zr
  Zr30     1.0000 0.50000  0.00000  0.80038  Biso   1.000  Zr
  Zr31     1.0000 0.00000  0.69962  0.50000  Biso   1.000  Zr
  Zr32     1.0000 0.00000  0.30038  0.50000  Biso   1.000  Zr
  Zr33     1.0000 0.69962  0.50000  0.00000  Biso   1.000  Zr
  Zr34     1.0000 0.30038  0.50000  0.00000  Biso   1.000  Zr
  Zr35     1.0000 0.50000  0.00000  0.30038  Biso   1.000  Zr
  Zr36     1.0000 0.50000  0.00000  0.69962  Biso   1.000  Zr
  Zr37     1.0000 0.97299  0.97299  0.02701  Biso   1.000  Zr
  Zr38     1.0000 0.02701  0.02701  0.02701  Biso   1.000  Zr
  Zr39     1.0000 0.02701  0.97299  0.97299  Biso   1.000  Zr
  Zr40     1.0000 0.97299  0.02701  0.97299  Biso   1.000  Zr
  Zr41     1.0000 0.47299  0.47299  0.47299  Biso   1.000  Zr
  Zr42     1.0000 0.52701  0.52701  0.47299  Biso   1.000  Zr
  Zr43     1.0000 0.47299  0.52701  0.52701  Biso   1.000  Zr
  Zr44     1.0000 0.52701  0.47299  0.52701  Biso   1.000  Zr
  Zr45     1.0000 0.02701  0.02701  0.97299  Biso   1.000  Zr
  Zr46     1.0000 0.97299  0.97299  0.97299  Biso   1.000  Zr
  Zr47     1.0000 0.97299  0.02701  0.02701  Biso   1.000  Zr
  Zr48     1.0000 0.02701  0.97299  0.02701  Biso   1.000  Zr
  Zr49     1.0000 0.52701  0.52701  0.52701  Biso   1.000  Zr
  Zr50     1.0000 0.47299  0.47299  0.52701  Biso   1.000  Zr
  Zr51     1.0000 0.52701  0.47299  0.47299  Biso   1.000  Zr
  Zr52     1.0000 0.47299  0.52701  0.47299  Biso   1.000  Zr
  O193     1.0000 0.22216  0.46032  0.00000  Biso   1.000  O
  O194     1.0000 0.27268  0.46781  0.00000  Biso   1.000  O
  O195     1.0000 0.01780  0.95660  0.00000  Biso   1.000  O
  C1105    1.0000 0.25290  0.40930  0.00000  Biso   1.000  C
  C1106    1.0000 0.26170  0.37890  0.00000  Biso   1.000  C
  C1107    1.0000 0.27320  0.32490  0.00000  Biso   1.000  C
  C1108    1.0000 0.27830  0.29630  0.00000  Biso   1.000  C
  C1109    1.0000 0.28560  0.27320  0.00000  Biso   1.000  C
  C1110    1.0000 0.29370  0.24810  0.00000  Biso   1.000  C
  O196     1.0000 0.77784  0.53968  0.00000  Biso   1.000  O
  O197     1.0000 0.72732  0.53219  0.00000  Biso   1.000  O
  O198     1.0000 0.98220  0.04340  0.00000  Biso   1.000  O
  C1111    1.0000 0.74710  0.59070  0.00000  Biso   1.000  C
  C1112    1.0000 0.73830  0.62110  0.00000  Biso   1.000  C
  C1113    1.0000 0.72680  0.67510  0.00000  Biso   1.000  C
  C1114    1.0000 0.72170  0.70370  0.00000  Biso   1.000  C
  C1115    1.0000 0.71440  0.72680  0.00000  Biso   1.000  C
  C1116    1.0000 0.70630  0.75190  0.00000  Biso   1.000  C
  O199     1.0000 0.77784  0.46032  0.00000  Biso   1.000  O
  O200     1.0000 0.72732  0.46781  0.00000  Biso   1.000  O
  O201     1.0000 0.98220  0.95660  0.00000  Biso   1.000  O
  C1117    1.0000 0.74710  0.40930  0.00000  Biso   1.000  C
  C1118    1.0000 0.73830  0.37890  0.00000  Biso   1.000  C
  C1119    1.0000 0.72680  0.32490  0.00000  Biso   1.000  C
  C1120    1.0000 0.72170  0.29630  0.00000  Biso   1.000  C
  C1121    1.0000 0.71440  0.27320  0.00000  Biso   1.000  C
  C1122    1.0000 0.70630  0.24810  0.00000  Biso   1.000  C
  O202     1.0000 0.22216  0.53968  0.00000  Biso   1.000  O
  O203     1.0000 0.27268  0.53219  0.00000  Biso   1.000  O
  O204     1.0000 0.01780  0.04340  0.00000  Biso   1.000  O
  C1123    1.0000 0.25290  0.59070  0.00000  Biso   1.000  C
  C1124    1.0000 0.26170  0.62110  0.00000  Biso   1.000  C
  C1125    1.0000 0.27320  0.67510  0.00000  Biso   1.000  C
  C1126    1.0000 0.27830  0.70370  0.00000  Biso   1.000  C
  C1127    1.0000 0.28560  0.72680  0.00000  Biso   1.000  C
  C1128    1.0000 0.29370  0.75190  0.00000  Biso   1.000  C
  O205     1.0000 0.00000  0.22216  0.46032  Biso   1.000  O
  O206     1.0000 0.00000  0.27268  0.46781  Biso   1.000  O
  O207     1.0000 0.00000  0.01780  0.95660  Biso   1.000  O
  C1129    1.0000 0.00000  0.25290  0.40930  Biso   1.000  C
  C1130    1.0000 0.00000  0.26170  0.37890  Biso   1.000  C
  C1131    1.0000 0.00000  0.27320  0.32490  Biso   1.000  C
  C1132    1.0000 0.00000  0.27830  0.29630  Biso   1.000  C
  C1133    1.0000 0.00000  0.28560  0.27320  Biso   1.000  C
  C1134    1.0000 0.00000  0.29370  0.24810  Biso   1.000  C
  O208     1.0000 0.00000  0.77784  0.53968  Biso   1.000  O
  O209     1.0000 0.00000  0.72732  0.53219  Biso   1.000  O
  O210     1.0000 0.00000  0.98220  0.04340  Biso   1.000  O
  C1135    1.0000 0.00000  0.74710  0.59070  Biso   1.000  C
  C1136    1.0000 0.00000  0.73830  0.62110  Biso   1.000  C
  C1137    1.0000 0.00000  0.72680  0.67510  Biso   1.000  C
  C1138    1.0000 0.00000  0.72170  0.70370  Biso   1.000  C
  C1139    1.0000 0.00000  0.71440  0.72680  Biso   1.000  C
  C1140    1.0000 0.00000  0.70630  0.75190  Biso   1.000  C
  O211     1.0000 0.00000  0.77784  0.46032  Biso   1.000  O
  O212     1.0000 0.00000  0.72732  0.46781  Biso   1.000  O
  O213     1.0000 0.00000  0.98220  0.95660  Biso   1.000  O
  C1141    1.0000 0.00000  0.74710  0.40930  Biso   1.000  C
  C1142    1.0000 0.00000  0.73830  0.37890  Biso   1.000  C
  C1143    1.0000 0.00000  0.72680  0.32490  Biso   1.000  C
  C1144    1.0000 0.00000  0.72170  0.29630  Biso   1.000  C
  C1145    1.0000 0.00000  0.71440  0.27320  Biso   1.000  C
  C1146    1.0000 0.00000  0.70630  0.24810  Biso   1.000  C
  O214     1.0000 0.00000  0.22216  0.53968  Biso   1.000  O
  O215     1.0000 0.00000  0.27268  0.53219  Biso   1.000  O
  O216     1.0000 0.00000  0.01780  0.04340  Biso   1.000  O
  C1147    1.0000 0.00000  0.25290  0.59070  Biso   1.000  C
  C1148    1.0000 0.00000  0.26170  0.62110  Biso   1.000  C
  C1149    1.0000 0.00000  0.27320  0.67510  Biso   1.000  C
  C1150    1.0000 0.00000  0.27830  0.70370  Biso   1.000  C
  C1151    1.0000 0.00000  0.28560  0.72680  Biso   1.000  C
  C1152    1.0000 0.00000  0.29370  0.75190  Biso   1.000  C
  O217     1.0000 0.46032  0.00000  0.22216  Biso   1.000  O
  O218     1.0000 0.46781  0.00000  0.27268  Biso   1.000  O
  O219     1.0000 0.95660  0.00000  0.01780  Biso   1.000  O
  C1153    1.0000 0.40930  0.00000  0.25290  Biso   1.000  C
  C1154    1.0000 0.37890  0.00000  0.26170  Biso   1.000  C
  C1155    1.0000 0.32490  0.00000  0.27320  Biso   1.000  C
  C1156    1.0000 0.29630  0.00000  0.27830  Biso   1.000  C
  C1157    1.0000 0.27320  0.00000  0.28560  Biso   1.000  C
  C1158    1.0000 0.24810  0.00000  0.29370  Biso   1.000  C
  O220     1.0000 0.53968  0.00000  0.77784  Biso   1.000  O
  O221     1.0000 0.53219  0.00000  0.72732  Biso   1.000  O
  O222     1.0000 0.04340  0.00000  0.98220  Biso   1.000  O
  C1159    1.0000 0.59070  0.00000  0.74710  Biso   1.000  C
  C1160    1.0000 0.62110  0.00000  0.73830  Biso   1.000  C
  C1161    1.0000 0.67510  0.00000  0.72680  Biso   1.000  C
  C1162    1.0000 0.70370  0.00000  0.72170  Biso   1.000  C
  C1163    1.0000 0.72680  0.00000  0.71440  Biso   1.000  C
  C1164    1.0000 0.75190  0.00000  0.70630  Biso   1.000  C
  O223     1.0000 0.46032  0.00000  0.77784  Biso   1.000  O
  O224     1.0000 0.46781  0.00000  0.72732  Biso   1.000  O
  O225     1.0000 0.95660  0.00000  0.98220  Biso   1.000  O
  C1165    1.0000 0.40930  0.00000  0.74710  Biso   1.000  C
  C1166    1.0000 0.37890  0.00000  0.73830  Biso   1.000  C
  C1167    1.0000 0.32490  0.00000  0.72680  Biso   1.000  C
  C1168    1.0000 0.29630  0.00000  0.72170  Biso   1.000  C
  C1169    1.0000 0.27320  0.00000  0.71440  Biso   1.000  C
  C1170    1.0000 0.24810  0.00000  0.70630  Biso   1.000  C
  O226     1.0000 0.53968  0.00000  0.22216  Biso   1.000  O
  O227     1.0000 0.53219  0.00000  0.27268  Biso   1.000  O
  O228     1.0000 0.04340  0.00000  0.01780  Biso   1.000  O
  C1171    1.0000 0.59070  0.00000  0.25290  Biso   1.000  C
  C1172    1.0000 0.62110  0.00000  0.26170  Biso   1.000  C
  C1173    1.0000 0.67510  0.00000  0.27320  Biso   1.000  C
  C1174    1.0000 0.70370  0.00000  0.27830  Biso   1.000  C
  C1175    1.0000 0.72680  0.00000  0.28560  Biso   1.000  C
  C1176    1.0000 0.75190  0.00000  0.29370  Biso   1.000  C
  O229     1.0000 0.96032  0.72216  0.50000  Biso   1.000  O
  O230     1.0000 0.96781  0.77268  0.50000  Biso   1.000  O
  O231     1.0000 0.45660  0.51780  0.50000  Biso   1.000  O
  C1177    1.0000 0.90930  0.75290  0.50000  Biso   1.000  C
  C1178    1.0000 0.87890  0.76170  0.50000  Biso   1.000  C
  C1179    1.0000 0.82490  0.77320  0.50000  Biso   1.000  C
  C1180    1.0000 0.79630  0.77830  0.50000  Biso   1.000  C
  C1181    1.0000 0.77320  0.78560  0.50000  Biso   1.000  C
  C1182    1.0000 0.74810  0.79370  0.50000  Biso   1.000  C
  O232     1.0000 0.03968  0.27784  0.50000  Biso   1.000  O
  O233     1.0000 0.03219  0.22732  0.50000  Biso   1.000  O
  O234     1.0000 0.54340  0.48220  0.50000  Biso   1.000  O
  C1183    1.0000 0.09070  0.24710  0.50000  Biso   1.000  C
  C1184    1.0000 0.12110  0.23830  0.50000  Biso   1.000  C
  C1185    1.0000 0.17510  0.22680  0.50000  Biso   1.000  C
  C1186    1.0000 0.20370  0.22170  0.50000  Biso   1.000  C
  C1187    1.0000 0.22680  0.21440  0.50000  Biso   1.000  C
  C1188    1.0000 0.25190  0.20630  0.50000  Biso   1.000  C
  O235     1.0000 0.96032  0.27784  0.50000  Biso   1.000  O
  O236     1.0000 0.96781  0.22732  0.50000  Biso   1.000  O
  O237     1.0000 0.45660  0.48220  0.50000  Biso   1.000  O
  C1189    1.0000 0.90930  0.24710  0.50000  Biso   1.000  C
  C1190    1.0000 0.87890  0.23830  0.50000  Biso   1.000  C
  C1191    1.0000 0.82490  0.22680  0.50000  Biso   1.000  C
  C1192    1.0000 0.79630  0.22170  0.50000  Biso   1.000  C
  C1193    1.0000 0.77320  0.21440  0.50000  Biso   1.000  C
  C1194    1.0000 0.74810  0.20630  0.50000  Biso   1.000  C
  O238     1.0000 0.03968  0.72216  0.50000  Biso   1.000  O
  O239     1.0000 0.03219  0.77268  0.50000  Biso   1.000  O
  O240     1.0000 0.54340  0.51780  0.50000  Biso   1.000  O
  C1195    1.0000 0.09070  0.75290  0.50000  Biso   1.000  C
  C1196    1.0000 0.12110  0.76170  0.50000  Biso   1.000  C
  C1197    1.0000 0.17510  0.77320  0.50000  Biso   1.000  C
  C1198    1.0000 0.20370  0.77830  0.50000  Biso   1.000  C
  C1199    1.0000 0.22680  0.78560  0.50000  Biso   1.000  C
  C1200    1.0000 0.25190  0.79370  0.50000  Biso   1.000  C
  O241     1.0000 0.72216  0.50000  0.03968  Biso   1.000  O
  O242     1.0000 0.77268  0.50000  0.03219  Biso   1.000  O
  O243     1.0000 0.51780  0.50000  0.54340  Biso   1.000  O
  C1201    1.0000 0.75290  0.50000  0.09070  Biso   1.000  C
  C1202    1.0000 0.76170  0.50000  0.12110  Biso   1.000  C
  C1203    1.0000 0.77320  0.50000  0.17510  Biso   1.000  C
  C1204    1.0000 0.77830  0.50000  0.20370  Biso   1.000  C
  C1205    1.0000 0.78560  0.50000  0.22680  Biso   1.000  C
  C1206    1.0000 0.79370  0.50000  0.25190  Biso   1.000  C
  O244     1.0000 0.27784  0.50000  0.96032  Biso   1.000  O
  O245     1.0000 0.22732  0.50000  0.96781  Biso   1.000  O
  O246     1.0000 0.48220  0.50000  0.45660  Biso   1.000  O
  C1207    1.0000 0.24710  0.50000  0.90930  Biso   1.000  C
  C1208    1.0000 0.23830  0.50000  0.87890  Biso   1.000  C
  C1209    1.0000 0.22680  0.50000  0.82490  Biso   1.000  C
  C1210    1.0000 0.22170  0.50000  0.79630  Biso   1.000  C
  C1211    1.0000 0.21440  0.50000  0.77320  Biso   1.000  C
  C1212    1.0000 0.20630  0.50000  0.74810  Biso   1.000  C
  O247     1.0000 0.27784  0.50000  0.03968  Biso   1.000  O
  O248     1.0000 0.22732  0.50000  0.03219  Biso   1.000  O
  O249     1.0000 0.48220  0.50000  0.54340  Biso   1.000  O
  C1213    1.0000 0.24710  0.50000  0.09070  Biso   1.000  C
  C1214    1.0000 0.23830  0.50000  0.12110  Biso   1.000  C
  C1215    1.0000 0.22680  0.50000  0.17510  Biso   1.000  C
  C1216    1.0000 0.22170  0.50000  0.20370  Biso   1.000  C
  C1217    1.0000 0.21440  0.50000  0.22680  Biso   1.000  C
  C1218    1.0000 0.20630  0.50000  0.25190  Biso   1.000  C
  O250     1.0000 0.72216  0.50000  0.96032  Biso   1.000  O
  O251     1.0000 0.77268  0.50000  0.96781  Biso   1.000  O
  O252     1.0000 0.51780  0.50000  0.45660  Biso   1.000  O
  C1219    1.0000 0.75290  0.50000  0.90930  Biso   1.000  C
  C1220    1.0000 0.76170  0.50000  0.87890  Biso   1.000  C
  C1221    1.0000 0.77320  0.50000  0.82490  Biso   1.000  C
  C1222    1.0000 0.77830  0.50000  0.79630  Biso   1.000  C
  C1223    1.0000 0.78560  0.50000  0.77320  Biso   1.000  C
  C1224    1.0000 0.79370  0.50000  0.74810  Biso   1.000  C
  O253     1.0000 0.50000  0.96032  0.27784  Biso   1.000  O
  O254     1.0000 0.50000  0.96781  0.22732  Biso   1.000  O
  O255     1.0000 0.50000  0.45660  0.48220  Biso   1.000  O
  C1225    1.0000 0.50000  0.90930  0.24710  Biso   1.000  C
  C1226    1.0000 0.50000  0.87890  0.23830  Biso   1.000  C
  C1227    1.0000 0.50000  0.82490  0.22680  Biso   1.000  C
  C1228    1.0000 0.50000  0.79630  0.22170  Biso   1.000  C
  C1229    1.0000 0.50000  0.77320  0.21440  Biso   1.000  C
  C1230    1.0000 0.50000  0.74810  0.20630  Biso   1.000  C
  O256     1.0000 0.50000  0.03968  0.72216  Biso   1.000  O
  O257     1.0000 0.50000  0.03219  0.77268  Biso   1.000  O
  O258     1.0000 0.50000  0.54340  0.51780  Biso   1.000  O
  C1231    1.0000 0.50000  0.09070  0.75290  Biso   1.000  C
  C1232    1.0000 0.50000  0.12110  0.76170  Biso   1.000  C
  C1233    1.0000 0.50000  0.17510  0.77320  Biso   1.000  C
  C1234    1.0000 0.50000  0.20370  0.77830  Biso   1.000  C
  C1235    1.0000 0.50000  0.22680  0.78560  Biso   1.000  C
  C1236    1.0000 0.50000  0.25190  0.79370  Biso   1.000  C
  O259     1.0000 0.50000  0.96032  0.72216  Biso   1.000  O
  O260     1.0000 0.50000  0.96781  0.77268  Biso   1.000  O
  O261     1.0000 0.50000  0.45660  0.51780  Biso   1.000  O
  C1237    1.0000 0.50000  0.90930  0.75290  Biso   1.000  C
  C1238    1.0000 0.50000  0.87890  0.76170  Biso   1.000  C
  C1239    1.0000 0.50000  0.82490  0.77320  Biso   1.000  C
  C1240    1.0000 0.50000  0.79630  0.77830  Biso   1.000  C
  C1241    1.0000 0.50000  0.77320  0.78560  Biso   1.000  C
  C1242    1.0000 0.50000  0.74810  0.79370  Biso   1.000  C
  O262     1.0000 0.50000  0.03968  0.27784  Biso   1.000  O
  O263     1.0000 0.50000  0.03219  0.22732  Biso   1.000  O
  O264     1.0000 0.50000  0.54340  0.48220  Biso   1.000  O
  C1243    1.0000 0.50000  0.09070  0.24710  Biso   1.000  C
  C1244    1.0000 0.50000  0.12110  0.23830  Biso   1.000  C
  C1245    1.0000 0.50000  0.17510  0.22680  Biso   1.000  C
  C1246    1.0000 0.50000  0.20370  0.22170  Biso   1.000  C
  C1247    1.0000 0.50000  0.22680  0.21440  Biso   1.000  C
  C1248    1.0000 0.50000  0.25190  0.20630  Biso   1.000  C
  C1249    1.0000 0.00000  0.71620  0.14760  Biso   1.000  C
  C1250    1.0000 0.00000  0.77570  0.12910  Biso   1.000  C
  C1251    1.0000 0.00000  0.80190  0.11510  Biso   1.000  C
  C1252    1.0000 0.00000  0.82090  0.10000  Biso   1.000  C
  C1253    1.0000 0.00000  0.84710  0.08570  Biso   1.000  C
  C1254    1.0000 0.00000  0.89950  0.06430  Biso   1.000  C
  C1255    1.0000 0.00000  0.92740  0.05320  Biso   1.000  C
  C1256    1.0000 0.00000  0.69320  0.18860  Biso   1.000  C
  B1       1.0000 0.00000  0.68730  0.15570  Biso   1.000  B
  C1257    1.0000 0.00000  0.28380  0.14760  Biso   1.000  C
  C1258    1.0000 0.00000  0.22430  0.12910  Biso   1.000  C
  C1259    1.0000 0.00000  0.19810  0.11510  Biso   1.000  C
  C1260    1.0000 0.00000  0.17910  0.10000  Biso   1.000  C
  C1261    1.0000 0.00000  0.15290  0.08570  Biso   1.000  C
  C1262    1.0000 0.00000  0.10050  0.06430  Biso   1.000  C
  C1263    1.0000 0.00000  0.07260  0.05320  Biso   1.000  C
  C1264    1.0000 0.00000  0.30680  0.18860  Biso   1.000  C
  B2       1.0000 0.00000  0.31270  0.15570  Biso   1.000  B
  C1265    1.0000 0.00000  0.71620  0.85240  Biso   1.000  C
  C1266    1.0000 0.00000  0.77570  0.87090  Biso   1.000  C
  C1267    1.0000 0.00000  0.80190  0.88490  Biso   1.000  C
  C1268    1.0000 0.00000  0.82090  0.90000  Biso   1.000  C
  C1269    1.0000 0.00000  0.84710  0.91430  Biso   1.000  C
  C1270    1.0000 0.00000  0.89950  0.93570  Biso   1.000  C
  C1271    1.0000 0.00000  0.92740  0.94680  Biso   1.000  C
  C1272    1.0000 0.00000  0.69320  0.81140  Biso   1.000  C
  B3       1.0000 0.00000  0.68730  0.84430  Biso   1.000  B
  C1273    1.0000 0.00000  0.28380  0.85240  Biso   1.000  C
  C1274    1.0000 0.00000  0.22430  0.87090  Biso   1.000  C
  C1275    1.0000 0.00000  0.19810  0.88490  Biso   1.000  C
  C1276    1.0000 0.00000  0.17910  0.90000  Biso   1.000  C
  C1277    1.0000 0.00000  0.15290  0.91430  Biso   1.000  C
  C1278    1.0000 0.00000  0.10050  0.93570  Biso   1.000  C
  C1279    1.0000 0.00000  0.07260  0.94680  Biso   1.000  C
  C1280    1.0000 0.00000  0.30680  0.81140  Biso   1.000  C
  B4       1.0000 0.00000  0.31270  0.84430  Biso   1.000  B
  C1281    1.0000 0.14760  0.00000  0.71620  Biso   1.000  C
  C1282    1.0000 0.12910  0.00000  0.77570  Biso   1.000  C
  C1283    1.0000 0.11510  0.00000  0.80190  Biso   1.000  C
  C1284    1.0000 0.10000  0.00000  0.82090  Biso   1.000  C
  C1285    1.0000 0.08570  0.00000  0.84710  Biso   1.000  C
  C1286    1.0000 0.06430  0.00000  0.89950  Biso   1.000  C
  C1287    1.0000 0.05320  0.00000  0.92740  Biso   1.000  C
  C1288    1.0000 0.18860  0.00000  0.69320  Biso   1.000  C
  B5       1.0000 0.15570  0.00000  0.68730  Biso   1.000  B
  C1289    1.0000 0.14760  0.00000  0.28380  Biso   1.000  C
  C1290    1.0000 0.12910  0.00000  0.22430  Biso   1.000  C
  C1291    1.0000 0.11510  0.00000  0.19810  Biso   1.000  C
  C1292    1.0000 0.10000  0.00000  0.17910  Biso   1.000  C
  C1293    1.0000 0.08570  0.00000  0.15290  Biso   1.000  C
  C1294    1.0000 0.06430  0.00000  0.10050  Biso   1.000  C
  C1295    1.0000 0.05320  0.00000  0.07260  Biso   1.000  C
  C1296    1.0000 0.18860  0.00000  0.30680  Biso   1.000  C
  B6       1.0000 0.15570  0.00000  0.31270  Biso   1.000  B
  C1297    1.0000 0.85240  0.00000  0.71620  Biso   1.000  C
  C1298    1.0000 0.87090  0.00000  0.77570  Biso   1.000  C
  C1299    1.0000 0.88490  0.00000  0.80190  Biso   1.000  C
  C1300    1.0000 0.90000  0.00000  0.82090  Biso   1.000  C
  C1301    1.0000 0.91430  0.00000  0.84710  Biso   1.000  C
  C1302    1.0000 0.93570  0.00000  0.89950  Biso   1.000  C
  C1303    1.0000 0.94680  0.00000  0.92740  Biso   1.000  C
  C1304    1.0000 0.81140  0.00000  0.69320  Biso   1.000  C
  B7       1.0000 0.84430  0.00000  0.68730  Biso   1.000  B
  C1305    1.0000 0.85240  0.00000  0.28380  Biso   1.000  C
  C1306    1.0000 0.87090  0.00000  0.22430  Biso   1.000  C
  C1307    1.0000 0.88490  0.00000  0.19810  Biso   1.000  C
  C1308    1.0000 0.90000  0.00000  0.17910  Biso   1.000  C
  C1309    1.0000 0.91430  0.00000  0.15290  Biso   1.000  C
  C1310    1.0000 0.93570  0.00000  0.10050  Biso   1.000  C
  C1311    1.0000 0.94680  0.00000  0.07260  Biso   1.000  C
  C1312    1.0000 0.81140  0.00000  0.30680  Biso   1.000  C
  B8       1.0000 0.84430  0.00000  0.31270  Biso   1.000  B
  C1313    1.0000 0.71620  0.14760  0.00000  Biso   1.000  C
  C1314    1.0000 0.77570  0.12910  0.00000  Biso   1.000  C
  C1315    1.0000 0.80190  0.11510  0.00000  Biso   1.000  C
  C1316    1.0000 0.82090  0.10000  0.00000  Biso   1.000  C
  C1317    1.0000 0.84710  0.08570  0.00000  Biso   1.000  C
  C1318    1.0000 0.89950  0.06430  0.00000  Biso   1.000  C
  C1319    1.0000 0.92740  0.05320  0.00000  Biso   1.000  C
  C1320    1.0000 0.69320  0.18860  0.00000  Biso   1.000  C
  B9       1.0000 0.68730  0.15570  0.00000  Biso   1.000  B
  C1321    1.0000 0.28380  0.14760  0.00000  Biso   1.000  C
  C1322    1.0000 0.22430  0.12910  0.00000  Biso   1.000  C
  C1323    1.0000 0.19810  0.11510  0.00000  Biso   1.000  C
  C1324    1.0000 0.17910  0.10000  0.00000  Biso   1.000  C
  C1325    1.0000 0.15290  0.08570  0.00000  Biso   1.000  C
  C1326    1.0000 0.10050  0.06430  0.00000  Biso   1.000  C
  C1327    1.0000 0.07260  0.05320  0.00000  Biso   1.000  C
  C1328    1.0000 0.30680  0.18860  0.00000  Biso   1.000  C
  B10      1.0000 0.31270  0.15570  0.00000  Biso   1.000  B
  C1329    1.0000 0.71620  0.85240  0.00000  Biso   1.000  C
  C1330    1.0000 0.77570  0.87090  0.00000  Biso   1.000  C
  C1331    1.0000 0.80190  0.88490  0.00000  Biso   1.000  C
  C1332    1.0000 0.82090  0.90000  0.00000  Biso   1.000  C
  C1333    1.0000 0.84710  0.91430  0.00000  Biso   1.000  C
  C1334    1.0000 0.89950  0.93570  0.00000  Biso   1.000  C
  C1335    1.0000 0.92740  0.94680  0.00000  Biso   1.000  C
  C1336    1.0000 0.69320  0.81140  0.00000  Biso   1.000  C
  B11      1.0000 0.68730  0.84430  0.00000  Biso   1.000  B
  C1337    1.0000 0.28380  0.85240  0.00000  Biso   1.000  C
  C1338    1.0000 0.22430  0.87090  0.00000  Biso   1.000  C
  C1339    1.0000 0.19810  0.88490  0.00000  Biso   1.000  C
  C1340    1.0000 0.17910  0.90000  0.00000  Biso   1.000  C
  C1341    1.0000 0.15290  0.91430  0.00000  Biso   1.000  C
  C1342    1.0000 0.10050  0.93570  0.00000  Biso   1.000  C
  C1343    1.0000 0.07260  0.94680  0.00000  Biso   1.000  C
  C1344    1.0000 0.30680  0.81140  0.00000  Biso   1.000  C
  B12      1.0000 0.31270  0.84430  0.00000  Biso   1.000  B
  C1345    1.0000 0.21620  0.50000  0.35240  Biso   1.000  C
  C1346    1.0000 0.27570  0.50000  0.37090  Biso   1.000  C
  C1347    1.0000 0.30190  0.50000  0.38490  Biso   1.000  C
  C1348    1.0000 0.32090  0.50000  0.40000  Biso   1.000  C
  C1349    1.0000 0.34710  0.50000  0.41430  Biso   1.000  C
  C1350    1.0000 0.39950  0.50000  0.43570  Biso   1.000  C
  C1351    1.0000 0.42740  0.50000  0.44680  Biso   1.000  C
  C1352    1.0000 0.19320  0.50000  0.31140  Biso   1.000  C
  B13      1.0000 0.18730  0.50000  0.34430  Biso   1.000  B
  C1353    1.0000 0.78380  0.50000  0.35240  Biso   1.000  C
  C1354    1.0000 0.72430  0.50000  0.37090  Biso   1.000  C
  C1355    1.0000 0.69810  0.50000  0.38490  Biso   1.000  C
  C1356    1.0000 0.67910  0.50000  0.40000  Biso   1.000  C
  C1357    1.0000 0.65290  0.50000  0.41430  Biso   1.000  C
  C1358    1.0000 0.60050  0.50000  0.43570  Biso   1.000  C
  C1359    1.0000 0.57260  0.50000  0.44680  Biso   1.000  C
  C1360    1.0000 0.80680  0.50000  0.31140  Biso   1.000  C
  B14      1.0000 0.81270  0.50000  0.34430  Biso   1.000  B
  C1361    1.0000 0.21620  0.50000  0.64760  Biso   1.000  C
  C1362    1.0000 0.27570  0.50000  0.62910  Biso   1.000  C
  C1363    1.0000 0.30190  0.50000  0.61510  Biso   1.000  C
  C1364    1.0000 0.32090  0.50000  0.60000  Biso   1.000  C
  C1365    1.0000 0.34710  0.50000  0.58570  Biso   1.000  C
  C1366    1.0000 0.39950  0.50000  0.56430  Biso   1.000  C
  C1367    1.0000 0.42740  0.50000  0.55320  Biso   1.000  C
  C1368    1.0000 0.19320  0.50000  0.68860  Biso   1.000  C
  B15      1.0000 0.18730  0.50000  0.65570  Biso   1.000  B
  C1369    1.0000 0.78380  0.50000  0.64760  Biso   1.000  C
  C1370    1.0000 0.72430  0.50000  0.62910  Biso   1.000  C
  C1371    1.0000 0.69810  0.50000  0.61510  Biso   1.000  C
  C1372    1.0000 0.67910  0.50000  0.60000  Biso   1.000  C
  C1373    1.0000 0.65290  0.50000  0.58570  Biso   1.000  C
  C1374    1.0000 0.60050  0.50000  0.56430  Biso   1.000  C
  C1375    1.0000 0.57260  0.50000  0.55320  Biso   1.000  C
  C1376    1.0000 0.80680  0.50000  0.68860  Biso   1.000  C
  B16      1.0000 0.81270  0.50000  0.65570  Biso   1.000  B
  C1377    1.0000 0.50000  0.64760  0.78380  Biso   1.000  C
  C1378    1.0000 0.50000  0.62910  0.72430  Biso   1.000  C
  C1379    1.0000 0.50000  0.61510  0.69810  Biso   1.000  C
  C1380    1.0000 0.50000  0.60000  0.67910  Biso   1.000  C
  C1381    1.0000 0.50000  0.58570  0.65290  Biso   1.000  C
  C1382    1.0000 0.50000  0.56430  0.60050  Biso   1.000  C
  C1383    1.0000 0.50000  0.55320  0.57260  Biso   1.000  C
  C1384    1.0000 0.50000  0.68860  0.80680  Biso   1.000  C
  B17      1.0000 0.50000  0.65570  0.81270  Biso   1.000  B
  C1385    1.0000 0.50000  0.64760  0.21620  Biso   1.000  C
  C1386    1.0000 0.50000  0.62910  0.27570  Biso   1.000  C
  C1387    1.0000 0.50000  0.61510  0.30190  Biso   1.000  C
  C1388    1.0000 0.50000  0.60000  0.32090  Biso   1.000  C
  C1389    1.0000 0.50000  0.58570  0.34710  Biso   1.000  C
  C1390    1.0000 0.50000  0.56430  0.39950  Biso   1.000  C
  C1391    1.0000 0.50000  0.55320  0.42740  Biso   1.000  C
  C1392    1.0000 0.50000  0.68860  0.19320  Biso   1.000  C
  B18      1.0000 0.50000  0.65570  0.18730  Biso   1.000  B
  C1393    1.0000 0.50000  0.35240  0.78380  Biso   1.000  C
  C1394    1.0000 0.50000  0.37090  0.72430  Biso   1.000  C
  C1395    1.0000 0.50000  0.38490  0.69810  Biso   1.000  C
  C1396    1.0000 0.50000  0.40000  0.67910  Biso   1.000  C
  C1397    1.0000 0.50000  0.41430  0.65290  Biso   1.000  C
  C1398    1.0000 0.50000  0.43570  0.60050  Biso   1.000  C
  C1399    1.0000 0.50000  0.44680  0.57260  Biso   1.000  C
  C1400    1.0000 0.50000  0.31140  0.80680  Biso   1.000  C
  B19      1.0000 0.50000  0.34430  0.81270  Biso   1.000  B
  C1401    1.0000 0.50000  0.35240  0.21620  Biso   1.000  C
  C1402    1.0000 0.50000  0.37090  0.27570  Biso   1.000  C
  C1403    1.0000 0.50000  0.38490  0.30190  Biso   1.000  C
  C1404    1.0000 0.50000  0.40000  0.32090  Biso   1.000  C
  C1405    1.0000 0.50000  0.41430  0.34710  Biso   1.000  C
  C1406    1.0000 0.50000  0.43570  0.39950  Biso   1.000  C
  C1407    1.0000 0.50000  0.44680  0.42740  Biso   1.000  C
  C1408    1.0000 0.50000  0.31140  0.19320  Biso   1.000  C
  B20      1.0000 0.50000  0.34430  0.18730  Biso   1.000  B
  C1409    1.0000 0.64760  0.21620  0.50000  Biso   1.000  C
  C1410    1.0000 0.62910  0.27570  0.50000  Biso   1.000  C
  C1411    1.0000 0.61510  0.30190  0.50000  Biso   1.000  C
  C1412    1.0000 0.60000  0.32090  0.50000  Biso   1.000  C
  C1413    1.0000 0.58570  0.34710  0.50000  Biso   1.000  C
  C1414    1.0000 0.56430  0.39950  0.50000  Biso   1.000  C
  C1415    1.0000 0.55320  0.42740  0.50000  Biso   1.000  C
  C1416    1.0000 0.68860  0.19320  0.50000  Biso   1.000  C
  B21      1.0000 0.65570  0.18730  0.50000  Biso   1.000  B
  C1417    1.0000 0.64760  0.78380  0.50000  Biso   1.000  C
  C1418    1.0000 0.62910  0.72430  0.50000  Biso   1.000  C
  C1419    1.0000 0.61510  0.69810  0.50000  Biso   1.000  C
  C1420    1.0000 0.60000  0.67910  0.50000  Biso   1.000  C
  C1421    1.0000 0.58570  0.65290  0.50000  Biso   1.000  C
  C1422    1.0000 0.56430  0.60050  0.50000  Biso   1.000  C
  C1423    1.0000 0.55320  0.57260  0.50000  Biso   1.000  C
  C1424    1.0000 0.68860  0.80680  0.50000  Biso   1.000  C
  B22      1.0000 0.65570  0.81270  0.50000  Biso   1.000  B
  C1425    1.0000 0.35240  0.21620  0.50000  Biso   1.000  C
  C1426    1.0000 0.37090  0.27570  0.50000  Biso   1.000  C
  C1427    1.0000 0.38490  0.30190  0.50000  Biso   1.000  C
  C1428    1.0000 0.40000  0.32090  0.50000  Biso   1.000  C
  C1429    1.0000 0.41430  0.34710  0.50000  Biso   1.000  C
  C1430    1.0000 0.43570  0.39950  0.50000  Biso   1.000  C
  C1431    1.0000 0.44680  0.42740  0.50000  Biso   1.000  C
  C1432    1.0000 0.31140  0.19320  0.50000  Biso   1.000  C
  B23      1.0000 0.34430  0.18730  0.50000  Biso   1.000  B
  C1433    1.0000 0.35240  0.78380  0.50000  Biso   1.000  C
  C1434    1.0000 0.37090  0.72430  0.50000  Biso   1.000  C
  C1435    1.0000 0.38490  0.69810  0.50000  Biso   1.000  C
  C1436    1.0000 0.40000  0.67910  0.50000  Biso   1.000  C
  C1437    1.0000 0.41430  0.65290  0.50000  Biso   1.000  C
  C1438    1.0000 0.43570  0.60050  0.50000  Biso   1.000  C
  C1439    1.0000 0.44680  0.57260  0.50000  Biso   1.000  C
  C1440    1.0000 0.31140  0.80680  0.50000  Biso   1.000  C
  B24      1.0000 0.34430  0.81270  0.50000  Biso   1.000  B
