data_image0
_cell_length_a       36.4514
_cell_length_b       36.4514
_cell_length_c       36.4514
_cell_angle_alpha    90
_cell_angle_beta     90
_cell_angle_gamma    90

_symmetry_space_group_name_H-M    "P 1"
_symmetry_int_tables_number       1

loop_
  _symmetry_equiv_pos_as_xyz
  'x, y, z'

loop_
  _atom_site_label
  _atom_site_occupancy
  _atom_site_fract_x
  _atom_site_fract_y
  _atom_site_fract_z
  _atom_site_thermal_displace_type
  _atom_site_B_iso_or_equiv
  _atom_site_type_symbol
  O1       1.0000 0.79959  0.25634  0.39018  Biso   1.000  O
  O2       1.0000 0.78140  0.17500  0.41160  Biso   1.000  O
  O3       1.0000 0.79959  0.75634  0.89018  Biso   1.000  O
  O4       1.0000 0.78140  0.67500  0.91160  Biso   1.000  O
  O5       1.0000 0.29959  0.25634  0.89018  Biso   1.000  O
  O6       1.0000 0.28140  0.17500  0.91160  Biso   1.000  O
  O7       1.0000 0.29959  0.75634  0.39018  Biso   1.000  O
  O8       1.0000 0.28140  0.67500  0.41160  Biso   1.000  O
  O9       1.0000 0.95041  0.99366  0.89018  Biso   1.000  O
  O10      1.0000 0.96860  0.07500  0.91160  Biso   1.000  O
  O11      1.0000 0.95041  0.49366  0.39018  Biso   1.000  O
  O12      1.0000 0.96860  0.57500  0.41160  Biso   1.000  O
  O13      1.0000 0.45041  0.99366  0.39018  Biso   1.000  O
  O14      1.0000 0.46860  0.07500  0.41160  Biso   1.000  O
  O15      1.0000 0.45041  0.49366  0.89018  Biso   1.000  O
  O16      1.0000 0.46860  0.57500  0.91160  Biso   1.000  O
  O17      1.0000 0.45041  0.75634  0.35982  Biso   1.000  O
  O18      1.0000 0.46860  0.67500  0.33840  Biso   1.000  O
  O19      1.0000 0.45041  0.25634  0.85982  Biso   1.000  O
  O20      1.0000 0.46860  0.17500  0.83840  Biso   1.000  O
  O21      1.0000 0.95041  0.75634  0.85982  Biso   1.000  O
  O22      1.0000 0.96860  0.67500  0.83840  Biso   1.000  O
  O23      1.0000 0.95041  0.25634  0.35982  Biso   1.000  O
  O24      1.0000 0.96860  0.17500  0.33840  Biso   1.000  O
  O25      1.0000 0.29959  0.49366  0.85982  Biso   1.000  O
  O26      1.0000 0.28140  0.57500  0.83840  Biso   1.000  O
  O27      1.0000 0.29959  0.99366  0.35982  Biso   1.000  O
  O28      1.0000 0.28140  0.07500  0.33840  Biso   1.000  O
  O29      1.0000 0.79959  0.49366  0.35982  Biso   1.000  O
  O30      1.0000 0.78140  0.57500  0.33840  Biso   1.000  O
  O31      1.0000 0.79959  0.99366  0.85982  Biso   1.000  O
  O32      1.0000 0.78140  0.07500  0.83840  Biso   1.000  O
  O33      1.0000 0.39018  0.79959  0.25634  Biso   1.000  O
  O34      1.0000 0.41160  0.78140  0.17500  Biso   1.000  O
  O35      1.0000 0.39018  0.29959  0.75634  Biso   1.000  O
  O36      1.0000 0.41160  0.28140  0.67500  Biso   1.000  O
  O37      1.0000 0.89018  0.79959  0.75634  Biso   1.000  O
  O38      1.0000 0.91160  0.78140  0.67500  Biso   1.000  O
  O39      1.0000 0.89018  0.29959  0.25634  Biso   1.000  O
  O40      1.0000 0.91160  0.28140  0.17500  Biso   1.000  O
  O41      1.0000 0.89018  0.95041  0.99366  Biso   1.000  O
  O42      1.0000 0.91160  0.96860  0.07500  Biso   1.000  O
  O43      1.0000 0.89018  0.45041  0.49366  Biso   1.000  O
  O44      1.0000 0.91160  0.46860  0.57500  Biso   1.000  O
  O45      1.0000 0.39018  0.95041  0.49366  Biso   1.000  O
  O46      1.0000 0.41160  0.96860  0.57500  Biso   1.000  O
  O47      1.0000 0.39018  0.45041  0.99366  Biso   1.000  O
  O48      1.0000 0.41160  0.46860  0.07500  Biso   1.000  O
  O49      1.0000 0.35982  0.45041  0.75634  Biso   1.000  O
  O50      1.0000 0.33840  0.46860  0.67500  Biso   1.000  O
  O51      1.0000 0.35982  0.95041  0.25634  Biso   1.000  O
  O52      1.0000 0.33840  0.96860  0.17500  Biso   1.000  O
  O53      1.0000 0.85982  0.45041  0.25634  Biso   1.000  O
  O54      1.0000 0.83840  0.46860  0.17500  Biso   1.000  O
  O55      1.0000 0.85982  0.95041  0.75634  Biso   1.000  O
  O56      1.0000 0.83840  0.96860  0.67500  Biso   1.000  O
  O57      1.0000 0.85982  0.29959  0.49366  Biso   1.000  O
  O58      1.0000 0.83840  0.28140  0.57500  Biso   1.000  O
  O59      1.0000 0.85982  0.79959  0.99366  Biso   1.000  O
  O60      1.0000 0.83840  0.78140  0.07500  Biso   1.000  O
  O61      1.0000 0.35982  0.29959  0.99366  Biso   1.000  O
  O62      1.0000 0.33840  0.28140  0.07500  Biso   1.000  O
  O63      1.0000 0.35982  0.79959  0.49366  Biso   1.000  O
  O64      1.0000 0.33840  0.78140  0.57500  Biso   1.000  O
  O65      1.0000 0.25634  0.39018  0.79959  Biso   1.000  O
  O66      1.0000 0.17500  0.41160  0.78140  Biso   1.000  O
  O67      1.0000 0.25634  0.89018  0.29959  Biso   1.000  O
  O68      1.0000 0.17500  0.91160  0.28140  Biso   1.000  O
  O69      1.0000 0.75634  0.39018  0.29959  Biso   1.000  O
  O70      1.0000 0.67500  0.41160  0.28140  Biso   1.000  O
  O71      1.0000 0.75634  0.89018  0.79959  Biso   1.000  O
  O72      1.0000 0.67500  0.91160  0.78140  Biso   1.000  O
  O73      1.0000 0.99366  0.89018  0.95041  Biso   1.000  O
  O74      1.0000 0.07500  0.91160  0.96860  Biso   1.000  O
  O75      1.0000 0.99366  0.39018  0.45041  Biso   1.000  O
  O76      1.0000 0.07500  0.41160  0.46860  Biso   1.000  O
  O77      1.0000 0.49366  0.89018  0.45041  Biso   1.000  O
  O78      1.0000 0.57500  0.91160  0.46860  Biso   1.000  O
  O79      1.0000 0.49366  0.39018  0.95041  Biso   1.000  O
  O80      1.0000 0.57500  0.41160  0.96860  Biso   1.000  O
  O81      1.0000 0.75634  0.35982  0.45041  Biso   1.000  O
  O82      1.0000 0.67500  0.33840  0.46860  Biso   1.000  O
  O83      1.0000 0.75634  0.85982  0.95041  Biso   1.000  O
  O84      1.0000 0.67500  0.83840  0.96860  Biso   1.000  O
  O85      1.0000 0.25634  0.35982  0.95041  Biso   1.000  O
  O86      1.0000 0.17500  0.33840  0.96860  Biso   1.000  O
  O87      1.0000 0.25634  0.85982  0.45041  Biso   1.000  O
  O88      1.0000 0.17500  0.83840  0.46860  Biso   1.000  O
  O89      1.0000 0.49366  0.85982  0.29959  Biso   1.000  O
  O90      1.0000 0.57500  0.83840  0.28140  Biso   1.000  O
  O91      1.0000 0.49366  0.35982  0.79959  Biso   1.000  O
  O92      1.0000 0.57500  0.33840  0.78140  Biso   1.000  O
  O93      1.0000 0.99366  0.85982  0.79959  Biso   1.000  O
  O94      1.0000 0.07500  0.83840  0.78140  Biso   1.000  O
  O95      1.0000 0.99366  0.35982  0.29959  Biso   1.000  O
  O96      1.0000 0.07500  0.33840  0.28140  Biso   1.000  O
  O97      1.0000 0.00634  0.04959  0.10982  Biso   1.000  O
  O98      1.0000 0.92500  0.03140  0.08840  Biso   1.000  O
  O99      1.0000 0.00634  0.54959  0.60982  Biso   1.000  O
  O100     1.0000 0.92500  0.53140  0.58840  Biso   1.000  O
  O101     1.0000 0.50634  0.04959  0.60982  Biso   1.000  O
  O102     1.0000 0.42500  0.03140  0.58840  Biso   1.000  O
  O103     1.0000 0.50634  0.54959  0.10982  Biso   1.000  O
  O104     1.0000 0.42500  0.53140  0.08840  Biso   1.000  O
  O105     1.0000 0.74366  0.20041  0.60982  Biso   1.000  O
  O106     1.0000 0.82500  0.21860  0.58840  Biso   1.000  O
  O107     1.0000 0.74366  0.70041  0.10982  Biso   1.000  O
  O108     1.0000 0.82500  0.71860  0.08840  Biso   1.000  O
  O109     1.0000 0.24366  0.20041  0.10982  Biso   1.000  O
  O110     1.0000 0.32500  0.21860  0.08840  Biso   1.000  O
  O111     1.0000 0.24366  0.70041  0.60982  Biso   1.000  O
  O112     1.0000 0.32500  0.71860  0.58840  Biso   1.000  O
  O113     1.0000 0.50634  0.70041  0.14018  Biso   1.000  O
  O114     1.0000 0.42500  0.71860  0.16160  Biso   1.000  O
  O115     1.0000 0.50634  0.20041  0.64018  Biso   1.000  O
  O116     1.0000 0.42500  0.21860  0.66160  Biso   1.000  O
  O117     1.0000 0.00634  0.70041  0.64018  Biso   1.000  O
  O118     1.0000 0.92500  0.71860  0.66160  Biso   1.000  O
  O119     1.0000 0.00634  0.20041  0.14018  Biso   1.000  O
  O120     1.0000 0.92500  0.21860  0.16160  Biso   1.000  O
  O121     1.0000 0.24366  0.54959  0.64018  Biso   1.000  O
  O122     1.0000 0.32500  0.53140  0.66160  Biso   1.000  O
  O123     1.0000 0.24366  0.04959  0.14018  Biso   1.000  O
  O124     1.0000 0.32500  0.03140  0.16160  Biso   1.000  O
  O125     1.0000 0.74366  0.54959  0.14018  Biso   1.000  O
  O126     1.0000 0.82500  0.53140  0.16160  Biso   1.000  O
  O127     1.0000 0.74366  0.04959  0.64018  Biso   1.000  O
  O128     1.0000 0.82500  0.03140  0.66160  Biso   1.000  O
  O129     1.0000 0.54959  0.64018  0.24366  Biso   1.000  O
  O130     1.0000 0.53140  0.66160  0.32500  Biso   1.000  O
  O131     1.0000 0.54959  0.14018  0.74366  Biso   1.000  O
  O132     1.0000 0.53140  0.16160  0.82500  Biso   1.000  O
  O133     1.0000 0.04959  0.64018  0.74366  Biso   1.000  O
  O134     1.0000 0.03140  0.66160  0.82500  Biso   1.000  O
  O135     1.0000 0.04959  0.14018  0.24366  Biso   1.000  O
  O136     1.0000 0.03140  0.16160  0.32500  Biso   1.000  O
  O137     1.0000 0.70041  0.14018  0.50634  Biso   1.000  O
  O138     1.0000 0.71860  0.16160  0.42500  Biso   1.000  O
  O139     1.0000 0.70041  0.64018  0.00634  Biso   1.000  O
  O140     1.0000 0.71860  0.66160  0.92500  Biso   1.000  O
  O141     1.0000 0.20041  0.14018  0.00634  Biso   1.000  O
  O142     1.0000 0.21860  0.16160  0.92500  Biso   1.000  O
  O143     1.0000 0.20041  0.64018  0.50634  Biso   1.000  O
  O144     1.0000 0.21860  0.66160  0.42500  Biso   1.000  O
  O145     1.0000 0.20041  0.60982  0.74366  Biso   1.000  O
  O146     1.0000 0.21860  0.58840  0.82500  Biso   1.000  O
  O147     1.0000 0.20041  0.10982  0.24366  Biso   1.000  O
  O148     1.0000 0.21860  0.08840  0.32500  Biso   1.000  O
  O149     1.0000 0.70041  0.60982  0.24366  Biso   1.000  O
  O150     1.0000 0.71860  0.58840  0.32500  Biso   1.000  O
  O151     1.0000 0.70041  0.10982  0.74366  Biso   1.000  O
  O152     1.0000 0.71860  0.08840  0.82500  Biso   1.000  O
  O153     1.0000 0.04959  0.10982  0.00634  Biso   1.000  O
  O154     1.0000 0.03140  0.08840  0.92500  Biso   1.000  O
  O155     1.0000 0.04959  0.60982  0.50634  Biso   1.000  O
  O156     1.0000 0.03140  0.58840  0.42500  Biso   1.000  O
  O157     1.0000 0.54959  0.10982  0.50634  Biso   1.000  O
  O158     1.0000 0.53140  0.08840  0.42500  Biso   1.000  O
  O159     1.0000 0.54959  0.60982  0.00634  Biso   1.000  O
  O160     1.0000 0.53140  0.58840  0.92500  Biso   1.000  O
  O161     1.0000 0.14018  0.50634  0.70041  Biso   1.000  O
  O162     1.0000 0.16160  0.42500  0.71860  Biso   1.000  O
  O163     1.0000 0.14018  0.00634  0.20041  Biso   1.000  O
  O164     1.0000 0.16160  0.92500  0.21860  Biso   1.000  O
  O165     1.0000 0.64018  0.50634  0.20041  Biso   1.000  O
  O166     1.0000 0.66160  0.42500  0.21860  Biso   1.000  O
  O167     1.0000 0.64018  0.00634  0.70041  Biso   1.000  O
  O168     1.0000 0.66160  0.92500  0.71860  Biso   1.000  O
  O169     1.0000 0.64018  0.24366  0.54959  Biso   1.000  O
  O170     1.0000 0.66160  0.32500  0.53140  Biso   1.000  O
  O171     1.0000 0.64018  0.74366  0.04959  Biso   1.000  O
  O172     1.0000 0.66160  0.82500  0.03140  Biso   1.000  O
  O173     1.0000 0.14018  0.24366  0.04959  Biso   1.000  O
  O174     1.0000 0.16160  0.32500  0.03140  Biso   1.000  O
  O175     1.0000 0.14018  0.74366  0.54959  Biso   1.000  O
  O176     1.0000 0.16160  0.82500  0.53140  Biso   1.000  O
  O177     1.0000 0.10982  0.00634  0.04959  Biso   1.000  O
  O178     1.0000 0.08840  0.92500  0.03140  Biso   1.000  O
  O179     1.0000 0.10982  0.50634  0.54959  Biso   1.000  O
  O180     1.0000 0.08840  0.42500  0.53140  Biso   1.000  O
  O181     1.0000 0.60982  0.00634  0.54959  Biso   1.000  O
  O182     1.0000 0.58840  0.92500  0.53140  Biso   1.000  O
  O183     1.0000 0.60982  0.50634  0.04959  Biso   1.000  O
  O184     1.0000 0.58840  0.42500  0.03140  Biso   1.000  O
  O185     1.0000 0.60982  0.74366  0.20041  Biso   1.000  O
  O186     1.0000 0.58840  0.82500  0.21860  Biso   1.000  O
  O187     1.0000 0.60982  0.24366  0.70041  Biso   1.000  O
  O188     1.0000 0.58840  0.32500  0.71860  Biso   1.000  O
  O189     1.0000 0.10982  0.74366  0.70041  Biso   1.000  O
  O190     1.0000 0.08840  0.82500  0.71860  Biso   1.000  O
  O191     1.0000 0.10982  0.24366  0.20041  Biso   1.000  O
  O192     1.0000 0.08840  0.32500  0.21860  Biso   1.000  O
  O193     1.0000 0.20041  0.74366  0.60982  Biso   1.000  O
  O194     1.0000 0.21860  0.82500  0.58840  Biso   1.000  O
  O195     1.0000 0.20041  0.24366  0.10982  Biso   1.000  O
  O196     1.0000 0.21860  0.32500  0.08840  Biso   1.000  O
  O197     1.0000 0.70041  0.74366  0.10982  Biso   1.000  O
  O198     1.0000 0.71860  0.82500  0.08840  Biso   1.000  O
  O199     1.0000 0.70041  0.24366  0.60982  Biso   1.000  O
  O200     1.0000 0.71860  0.32500  0.58840  Biso   1.000  O
  O201     1.0000 0.04959  0.00634  0.10982  Biso   1.000  O
  O202     1.0000 0.03140  0.92500  0.08840  Biso   1.000  O
  O203     1.0000 0.04959  0.50634  0.60982  Biso   1.000  O
  O204     1.0000 0.03140  0.42500  0.58840  Biso   1.000  O
  O205     1.0000 0.54959  0.00634  0.60982  Biso   1.000  O
  O206     1.0000 0.53140  0.92500  0.58840  Biso   1.000  O
  O207     1.0000 0.54959  0.50634  0.10982  Biso   1.000  O
  O208     1.0000 0.53140  0.42500  0.08840  Biso   1.000  O
  O209     1.0000 0.54959  0.24366  0.64018  Biso   1.000  O
  O210     1.0000 0.53140  0.32500  0.66160  Biso   1.000  O
  O211     1.0000 0.54959  0.74366  0.14018  Biso   1.000  O
  O212     1.0000 0.53140  0.82500  0.16160  Biso   1.000  O
  O213     1.0000 0.04959  0.24366  0.14018  Biso   1.000  O
  O214     1.0000 0.03140  0.32500  0.16160  Biso   1.000  O
  O215     1.0000 0.04959  0.74366  0.64018  Biso   1.000  O
  O216     1.0000 0.03140  0.82500  0.66160  Biso   1.000  O
  O217     1.0000 0.70041  0.50634  0.14018  Biso   1.000  O
  O218     1.0000 0.71860  0.42500  0.16160  Biso   1.000  O
  O219     1.0000 0.70041  0.00634  0.64018  Biso   1.000  O
  O220     1.0000 0.71860  0.92500  0.66160  Biso   1.000  O
  O221     1.0000 0.20041  0.50634  0.64018  Biso   1.000  O
  O222     1.0000 0.21860  0.42500  0.66160  Biso   1.000  O
  O223     1.0000 0.20041  0.00634  0.14018  Biso   1.000  O
  O224     1.0000 0.21860  0.92500  0.16160  Biso   1.000  O
  O225     1.0000 0.60982  0.20041  0.74366  Biso   1.000  O
  O226     1.0000 0.58840  0.21860  0.82500  Biso   1.000  O
  O227     1.0000 0.60982  0.70041  0.24366  Biso   1.000  O
  O228     1.0000 0.58840  0.71860  0.32500  Biso   1.000  O
  O229     1.0000 0.10982  0.20041  0.24366  Biso   1.000  O
  O230     1.0000 0.08840  0.21860  0.32500  Biso   1.000  O
  O231     1.0000 0.10982  0.70041  0.74366  Biso   1.000  O
  O232     1.0000 0.08840  0.71860  0.82500  Biso   1.000  O
  O233     1.0000 0.10982  0.04959  0.00634  Biso   1.000  O
  O234     1.0000 0.08840  0.03140  0.92500  Biso   1.000  O
  O235     1.0000 0.10982  0.54959  0.50634  Biso   1.000  O
  O236     1.0000 0.08840  0.53140  0.42500  Biso   1.000  O
  O237     1.0000 0.60982  0.04959  0.50634  Biso   1.000  O
  O238     1.0000 0.58840  0.03140  0.42500  Biso   1.000  O
  O239     1.0000 0.60982  0.54959  0.00634  Biso   1.000  O
  O240     1.0000 0.58840  0.53140  0.92500  Biso   1.000  O
  O241     1.0000 0.64018  0.54959  0.24366  Biso   1.000  O
  O242     1.0000 0.66160  0.53140  0.32500  Biso   1.000  O
  O243     1.0000 0.64018  0.04959  0.74366  Biso   1.000  O
  O244     1.0000 0.66160  0.03140  0.82500  Biso   1.000  O
  O245     1.0000 0.14018  0.54959  0.74366  Biso   1.000  O
  O246     1.0000 0.16160  0.53140  0.82500  Biso   1.000  O
  O247     1.0000 0.14018  0.04959  0.24366  Biso   1.000  O
  O248     1.0000 0.16160  0.03140  0.32500  Biso   1.000  O
  O249     1.0000 0.14018  0.70041  0.50634  Biso   1.000  O
  O250     1.0000 0.16160  0.71860  0.42500  Biso   1.000  O
  O251     1.0000 0.14018  0.20041  0.00634  Biso   1.000  O
  O252     1.0000 0.16160  0.21860  0.92500  Biso   1.000  O
  O253     1.0000 0.64018  0.70041  0.00634  Biso   1.000  O
  O254     1.0000 0.66160  0.71860  0.92500  Biso   1.000  O
  O255     1.0000 0.64018  0.20041  0.50634  Biso   1.000  O
  O256     1.0000 0.66160  0.21860  0.42500  Biso   1.000  O
  O257     1.0000 0.74366  0.60982  0.20041  Biso   1.000  O
  O258     1.0000 0.82500  0.58840  0.21860  Biso   1.000  O
  O259     1.0000 0.74366  0.10982  0.70041  Biso   1.000  O
  O260     1.0000 0.82500  0.08840  0.71860  Biso   1.000  O
  O261     1.0000 0.24366  0.60982  0.70041  Biso   1.000  O
  O262     1.0000 0.32500  0.58840  0.71860  Biso   1.000  O
  O263     1.0000 0.24366  0.10982  0.20041  Biso   1.000  O
  O264     1.0000 0.32500  0.08840  0.21860  Biso   1.000  O
  O265     1.0000 0.00634  0.10982  0.04959  Biso   1.000  O
  O266     1.0000 0.92500  0.08840  0.03140  Biso   1.000  O
  O267     1.0000 0.00634  0.60982  0.54959  Biso   1.000  O
  O268     1.0000 0.92500  0.58840  0.53140  Biso   1.000  O
  O269     1.0000 0.50634  0.10982  0.54959  Biso   1.000  O
  O270     1.0000 0.42500  0.08840  0.53140  Biso   1.000  O
  O271     1.0000 0.50634  0.60982  0.04959  Biso   1.000  O
  O272     1.0000 0.42500  0.58840  0.03140  Biso   1.000  O
  O273     1.0000 0.24366  0.64018  0.54959  Biso   1.000  O
  O274     1.0000 0.32500  0.66160  0.53140  Biso   1.000  O
  O275     1.0000 0.24366  0.14018  0.04959  Biso   1.000  O
  O276     1.0000 0.32500  0.16160  0.03140  Biso   1.000  O
  O277     1.0000 0.74366  0.64018  0.04959  Biso   1.000  O
  O278     1.0000 0.82500  0.66160  0.03140  Biso   1.000  O
  O279     1.0000 0.74366  0.14018  0.54959  Biso   1.000  O
  O280     1.0000 0.82500  0.16160  0.53140  Biso   1.000  O
  O281     1.0000 0.50634  0.14018  0.70041  Biso   1.000  O
  O282     1.0000 0.42500  0.16160  0.71860  Biso   1.000  O
  O283     1.0000 0.50634  0.64018  0.20041  Biso   1.000  O
  O284     1.0000 0.42500  0.66160  0.21860  Biso   1.000  O
  O285     1.0000 0.00634  0.14018  0.20041  Biso   1.000  O
  O286     1.0000 0.92500  0.16160  0.21860  Biso   1.000  O
  O287     1.0000 0.00634  0.64018  0.70041  Biso   1.000  O
  O288     1.0000 0.92500  0.66160  0.71860  Biso   1.000  O
  O289     1.0000 0.99366  0.95041  0.89018  Biso   1.000  O
  O290     1.0000 0.07500  0.96860  0.91160  Biso   1.000  O
  O291     1.0000 0.99366  0.45041  0.39018  Biso   1.000  O
  O292     1.0000 0.07500  0.46860  0.41160  Biso   1.000  O
  O293     1.0000 0.49366  0.95041  0.39018  Biso   1.000  O
  O294     1.0000 0.57500  0.96860  0.41160  Biso   1.000  O
  O295     1.0000 0.49366  0.45041  0.89018  Biso   1.000  O
  O296     1.0000 0.57500  0.46860  0.91160  Biso   1.000  O
  O297     1.0000 0.25634  0.79959  0.39018  Biso   1.000  O
  O298     1.0000 0.17500  0.78140  0.41160  Biso   1.000  O
  O299     1.0000 0.25634  0.29959  0.89018  Biso   1.000  O
  O300     1.0000 0.17500  0.28140  0.91160  Biso   1.000  O
  O301     1.0000 0.75634  0.79959  0.89018  Biso   1.000  O
  O302     1.0000 0.67500  0.78140  0.91160  Biso   1.000  O
  O303     1.0000 0.75634  0.29959  0.39018  Biso   1.000  O
  O304     1.0000 0.67500  0.28140  0.41160  Biso   1.000  O
  O305     1.0000 0.49366  0.29959  0.85982  Biso   1.000  O
  O306     1.0000 0.57500  0.28140  0.83840  Biso   1.000  O
  O307     1.0000 0.49366  0.79959  0.35982  Biso   1.000  O
  O308     1.0000 0.57500  0.78140  0.33840  Biso   1.000  O
  O309     1.0000 0.99366  0.29959  0.35982  Biso   1.000  O
  O310     1.0000 0.07500  0.28140  0.33840  Biso   1.000  O
  O311     1.0000 0.99366  0.79959  0.85982  Biso   1.000  O
  O312     1.0000 0.07500  0.78140  0.83840  Biso   1.000  O
  O313     1.0000 0.75634  0.45041  0.35982  Biso   1.000  O
  O314     1.0000 0.67500  0.46860  0.33840  Biso   1.000  O
  O315     1.0000 0.75634  0.95041  0.85982  Biso   1.000  O
  O316     1.0000 0.67500  0.96860  0.83840  Biso   1.000  O
  O317     1.0000 0.25634  0.45041  0.85982  Biso   1.000  O
  O318     1.0000 0.17500  0.46860  0.83840  Biso   1.000  O
  O319     1.0000 0.25634  0.95041  0.35982  Biso   1.000  O
  O320     1.0000 0.17500  0.96860  0.33840  Biso   1.000  O
  O321     1.0000 0.45041  0.35982  0.75634  Biso   1.000  O
  O322     1.0000 0.46860  0.33840  0.67500  Biso   1.000  O
  O323     1.0000 0.45041  0.85982  0.25634  Biso   1.000  O
  O324     1.0000 0.46860  0.83840  0.17500  Biso   1.000  O
  O325     1.0000 0.95041  0.35982  0.25634  Biso   1.000  O
  O326     1.0000 0.96860  0.33840  0.17500  Biso   1.000  O
  O327     1.0000 0.95041  0.85982  0.75634  Biso   1.000  O
  O328     1.0000 0.96860  0.83840  0.67500  Biso   1.000  O
  O329     1.0000 0.29959  0.85982  0.49366  Biso   1.000  O
  O330     1.0000 0.28140  0.83840  0.57500  Biso   1.000  O
  O331     1.0000 0.29959  0.35982  0.99366  Biso   1.000  O
  O332     1.0000 0.28140  0.33840  0.07500  Biso   1.000  O
  O333     1.0000 0.79959  0.85982  0.99366  Biso   1.000  O
  O334     1.0000 0.78140  0.83840  0.07500  Biso   1.000  O
  O335     1.0000 0.79959  0.35982  0.49366  Biso   1.000  O
  O336     1.0000 0.78140  0.33840  0.57500  Biso   1.000  O
  O337     1.0000 0.79959  0.39018  0.25634  Biso   1.000  O
  O338     1.0000 0.78140  0.41160  0.17500  Biso   1.000  O
  O339     1.0000 0.79959  0.89018  0.75634  Biso   1.000  O
  O340     1.0000 0.78140  0.91160  0.67500  Biso   1.000  O
  O341     1.0000 0.29959  0.39018  0.75634  Biso   1.000  O
  O342     1.0000 0.28140  0.41160  0.67500  Biso   1.000  O
  O343     1.0000 0.29959  0.89018  0.25634  Biso   1.000  O
  O344     1.0000 0.28140  0.91160  0.17500  Biso   1.000  O
  O345     1.0000 0.95041  0.89018  0.99366  Biso   1.000  O
  O346     1.0000 0.96860  0.91160  0.07500  Biso   1.000  O
  O347     1.0000 0.95041  0.39018  0.49366  Biso   1.000  O
  O348     1.0000 0.96860  0.41160  0.57500  Biso   1.000  O
  O349     1.0000 0.45041  0.89018  0.49366  Biso   1.000  O
  O350     1.0000 0.46860  0.91160  0.57500  Biso   1.000  O
  O351     1.0000 0.45041  0.39018  0.99366  Biso   1.000  O
  O352     1.0000 0.46860  0.41160  0.07500  Biso   1.000  O
  O353     1.0000 0.85982  0.49366  0.29959  Biso   1.000  O
  O354     1.0000 0.83840  0.57500  0.28140  Biso   1.000  O
  O355     1.0000 0.85982  0.99366  0.79959  Biso   1.000  O
  O356     1.0000 0.83840  0.07500  0.78140  Biso   1.000  O
  O357     1.0000 0.35982  0.49366  0.79959  Biso   1.000  O
  O358     1.0000 0.33840  0.57500  0.78140  Biso   1.000  O
  O359     1.0000 0.35982  0.99366  0.29959  Biso   1.000  O
  O360     1.0000 0.33840  0.07500  0.28140  Biso   1.000  O
  O361     1.0000 0.35982  0.75634  0.45041  Biso   1.000  O
  O362     1.0000 0.33840  0.67500  0.46860  Biso   1.000  O
  O363     1.0000 0.35982  0.25634  0.95041  Biso   1.000  O
  O364     1.0000 0.33840  0.17500  0.96860  Biso   1.000  O
  O365     1.0000 0.85982  0.75634  0.95041  Biso   1.000  O
  O366     1.0000 0.83840  0.67500  0.96860  Biso   1.000  O
  O367     1.0000 0.85982  0.25634  0.45041  Biso   1.000  O
  O368     1.0000 0.83840  0.17500  0.46860  Biso   1.000  O
  O369     1.0000 0.89018  0.99366  0.95041  Biso   1.000  O
  O370     1.0000 0.91160  0.07500  0.96860  Biso   1.000  O
  O371     1.0000 0.89018  0.49366  0.45041  Biso   1.000  O
  O372     1.0000 0.91160  0.57500  0.46860  Biso   1.000  O
  O373     1.0000 0.39018  0.99366  0.45041  Biso   1.000  O
  O374     1.0000 0.41160  0.07500  0.46860  Biso   1.000  O
  O375     1.0000 0.39018  0.49366  0.95041  Biso   1.000  O
  O376     1.0000 0.41160  0.57500  0.96860  Biso   1.000  O
  O377     1.0000 0.39018  0.25634  0.79959  Biso   1.000  O
  O378     1.0000 0.41160  0.17500  0.78140  Biso   1.000  O
  O379     1.0000 0.39018  0.75634  0.29959  Biso   1.000  O
  O380     1.0000 0.41160  0.67500  0.28140  Biso   1.000  O
  O381     1.0000 0.89018  0.25634  0.29959  Biso   1.000  O
  O382     1.0000 0.91160  0.17500  0.28140  Biso   1.000  O
  O383     1.0000 0.89018  0.75634  0.79959  Biso   1.000  O
  O384     1.0000 0.91160  0.67500  0.78140  Biso   1.000  O
  Ce1      1.0000 0.79970  0.22670  0.45030  Biso   1.000  Ce
  O385     1.0000 0.76430  0.18090  0.48570  Biso   1.000  O
  Ce2      1.0000 0.79970  0.72670  0.95030  Biso   1.000  Ce
  O386     1.0000 0.76430  0.68090  0.98570  Biso   1.000  O
  Ce3      1.0000 0.95030  0.02330  0.95030  Biso   1.000  Ce
  O387     1.0000 0.98570  0.06910  0.98570  Biso   1.000  O
  Ce4      1.0000 0.95030  0.52330  0.45030  Biso   1.000  Ce
  O388     1.0000 0.98570  0.56910  0.48570  Biso   1.000  O
  Ce5      1.0000 0.45030  0.02330  0.45030  Biso   1.000  Ce
  O389     1.0000 0.48570  0.06910  0.48570  Biso   1.000  O
  Ce6      1.0000 0.45030  0.52330  0.95030  Biso   1.000  Ce
  O390     1.0000 0.48570  0.56910  0.98570  Biso   1.000  O
  Ce7      1.0000 0.45030  0.72670  0.29970  Biso   1.000  Ce
  O391     1.0000 0.48570  0.68090  0.26430  Biso   1.000  O
  Ce8      1.0000 0.95030  0.72670  0.79970  Biso   1.000  Ce
  O392     1.0000 0.98570  0.68090  0.76430  Biso   1.000  O
  Ce9      1.0000 0.29970  0.52330  0.79970  Biso   1.000  Ce
  O393     1.0000 0.26430  0.56910  0.76430  Biso   1.000  O
  Ce10     1.0000 0.29970  0.02330  0.29970  Biso   1.000  Ce
  O394     1.0000 0.26430  0.06910  0.26430  Biso   1.000  O
  Ce11     1.0000 0.45030  0.79970  0.22670  Biso   1.000  Ce
  O395     1.0000 0.48570  0.76430  0.18090  Biso   1.000  O
  Ce12     1.0000 0.95030  0.79970  0.72670  Biso   1.000  Ce
  O396     1.0000 0.98570  0.76430  0.68090  Biso   1.000  O
  Ce13     1.0000 0.95030  0.95030  0.02330  Biso   1.000  Ce
  O397     1.0000 0.98570  0.98570  0.06910  Biso   1.000  O
  Ce14     1.0000 0.95030  0.45030  0.52330  Biso   1.000  Ce
  O398     1.0000 0.98570  0.48570  0.56910  Biso   1.000  O
  Ce15     1.0000 0.45030  0.95030  0.52330  Biso   1.000  Ce
  O399     1.0000 0.48570  0.98570  0.56910  Biso   1.000  O
  Ce16     1.0000 0.45030  0.45030  0.02330  Biso   1.000  Ce
  O400     1.0000 0.48570  0.48570  0.06910  Biso   1.000  O
  Ce17     1.0000 0.29970  0.45030  0.72670  Biso   1.000  Ce
  O401     1.0000 0.26430  0.48570  0.68090  Biso   1.000  O
  Ce18     1.0000 0.29970  0.95030  0.22670  Biso   1.000  Ce
  O402     1.0000 0.26430  0.98570  0.18090  Biso   1.000  O
  Ce19     1.0000 0.79970  0.29970  0.52330  Biso   1.000  Ce
  O403     1.0000 0.76430  0.26430  0.56910  Biso   1.000  O
  Ce20     1.0000 0.79970  0.79970  0.02330  Biso   1.000  Ce
  O404     1.0000 0.76430  0.76430  0.06910  Biso   1.000  O
  Ce21     1.0000 0.22670  0.45030  0.79970  Biso   1.000  Ce
  O405     1.0000 0.18090  0.48570  0.76430  Biso   1.000  O
  Ce22     1.0000 0.22670  0.95030  0.29970  Biso   1.000  Ce
  O406     1.0000 0.18090  0.98570  0.26430  Biso   1.000  O
  Ce23     1.0000 0.02330  0.95030  0.95030  Biso   1.000  Ce
  O407     1.0000 0.06910  0.98570  0.98570  Biso   1.000  O
  Ce24     1.0000 0.02330  0.45030  0.45030  Biso   1.000  Ce
  O408     1.0000 0.06910  0.48570  0.48570  Biso   1.000  O
  Ce25     1.0000 0.52330  0.95030  0.45030  Biso   1.000  Ce
  O409     1.0000 0.56910  0.98570  0.48570  Biso   1.000  O
  Ce26     1.0000 0.52330  0.45030  0.95030  Biso   1.000  Ce
  O410     1.0000 0.56910  0.48570  0.98570  Biso   1.000  O
  Ce27     1.0000 0.72670  0.29970  0.45030  Biso   1.000  Ce
  O411     1.0000 0.68090  0.26430  0.48570  Biso   1.000  O
  Ce28     1.0000 0.72670  0.79970  0.95030  Biso   1.000  Ce
  O412     1.0000 0.68090  0.76430  0.98570  Biso   1.000  O
  Ce29     1.0000 0.52330  0.79970  0.29970  Biso   1.000  Ce
  O413     1.0000 0.56910  0.76430  0.26430  Biso   1.000  O
  Ce30     1.0000 0.02330  0.79970  0.79970  Biso   1.000  Ce
  O414     1.0000 0.06910  0.76430  0.76430  Biso   1.000  O
  Ce31     1.0000 0.97670  0.04970  0.04970  Biso   1.000  Ce
  O415     1.0000 0.93090  0.01430  0.01430  Biso   1.000  O
  Ce32     1.0000 0.97670  0.54970  0.54970  Biso   1.000  Ce
  O416     1.0000 0.93090  0.51430  0.51430  Biso   1.000  O
  Ce33     1.0000 0.47670  0.04970  0.54970  Biso   1.000  Ce
  O417     1.0000 0.43090  0.01430  0.51430  Biso   1.000  O
  Ce34     1.0000 0.47670  0.54970  0.04970  Biso   1.000  Ce
  O418     1.0000 0.43090  0.51430  0.01430  Biso   1.000  O
  Ce35     1.0000 0.77330  0.20030  0.54970  Biso   1.000  Ce
  O419     1.0000 0.81910  0.23570  0.51430  Biso   1.000  O
  Ce36     1.0000 0.77330  0.70030  0.04970  Biso   1.000  Ce
  O420     1.0000 0.81910  0.73570  0.01430  Biso   1.000  O
  Ce37     1.0000 0.47670  0.70030  0.20030  Biso   1.000  Ce
  O421     1.0000 0.43090  0.73570  0.23570  Biso   1.000  O
  Ce38     1.0000 0.97670  0.70030  0.70030  Biso   1.000  Ce
  O422     1.0000 0.93090  0.73570  0.73570  Biso   1.000  O
  Ce39     1.0000 0.27330  0.54970  0.70030  Biso   1.000  Ce
  O423     1.0000 0.31910  0.51430  0.73570  Biso   1.000  O
  Ce40     1.0000 0.27330  0.04970  0.20030  Biso   1.000  Ce
  O424     1.0000 0.31910  0.01430  0.23570  Biso   1.000  O
  Ce41     1.0000 0.54970  0.70030  0.27330  Biso   1.000  Ce
  O425     1.0000 0.51430  0.73570  0.31910  Biso   1.000  O
  Ce42     1.0000 0.04970  0.70030  0.77330  Biso   1.000  Ce
  O426     1.0000 0.01430  0.73570  0.81910  Biso   1.000  O
  Ce43     1.0000 0.70030  0.20030  0.47670  Biso   1.000  Ce
  O427     1.0000 0.73570  0.23570  0.43090  Biso   1.000  O
  Ce44     1.0000 0.70030  0.70030  0.97670  Biso   1.000  Ce
  O428     1.0000 0.73570  0.73570  0.93090  Biso   1.000  O
  Ce45     1.0000 0.20030  0.54970  0.77330  Biso   1.000  Ce
  O429     1.0000 0.23570  0.51430  0.81910  Biso   1.000  O
  Ce46     1.0000 0.20030  0.04970  0.27330  Biso   1.000  Ce
  O430     1.0000 0.23570  0.01430  0.31910  Biso   1.000  O
  Ce47     1.0000 0.04970  0.04970  0.97670  Biso   1.000  Ce
  O431     1.0000 0.01430  0.01430  0.93090  Biso   1.000  O
  Ce48     1.0000 0.04970  0.54970  0.47670  Biso   1.000  Ce
  O432     1.0000 0.01430  0.51430  0.43090  Biso   1.000  O
  Ce49     1.0000 0.54970  0.04970  0.47670  Biso   1.000  Ce
  O433     1.0000 0.51430  0.01430  0.43090  Biso   1.000  O
  Ce50     1.0000 0.54970  0.54970  0.97670  Biso   1.000  Ce
  O434     1.0000 0.51430  0.51430  0.93090  Biso   1.000  O
  Ce51     1.0000 0.20030  0.47670  0.70030  Biso   1.000  Ce
  O435     1.0000 0.23570  0.43090  0.73570  Biso   1.000  O
  Ce52     1.0000 0.20030  0.97670  0.20030  Biso   1.000  Ce
  O436     1.0000 0.23570  0.93090  0.23570  Biso   1.000  O
  Ce53     1.0000 0.70030  0.27330  0.54970  Biso   1.000  Ce
  O437     1.0000 0.73570  0.31910  0.51430  Biso   1.000  O
  Ce54     1.0000 0.70030  0.77330  0.04970  Biso   1.000  Ce
  O438     1.0000 0.73570  0.81910  0.01430  Biso   1.000  O
  Ce55     1.0000 0.04970  0.97670  0.04970  Biso   1.000  Ce
  O439     1.0000 0.01430  0.93090  0.01430  Biso   1.000  O
  Ce56     1.0000 0.04970  0.47670  0.54970  Biso   1.000  Ce
  O440     1.0000 0.01430  0.43090  0.51430  Biso   1.000  O
  Ce57     1.0000 0.54970  0.97670  0.54970  Biso   1.000  Ce
  O441     1.0000 0.51430  0.93090  0.51430  Biso   1.000  O
  Ce58     1.0000 0.54970  0.47670  0.04970  Biso   1.000  Ce
  O442     1.0000 0.51430  0.43090  0.01430  Biso   1.000  O
  Ce59     1.0000 0.54970  0.77330  0.20030  Biso   1.000  Ce
  O443     1.0000 0.51430  0.81910  0.23570  Biso   1.000  O
  Ce60     1.0000 0.04970  0.77330  0.70030  Biso   1.000  Ce
  O444     1.0000 0.01430  0.81910  0.73570  Biso   1.000  O
  Ce61     1.0000 0.20030  0.77330  0.54970  Biso   1.000  Ce
  O445     1.0000 0.23570  0.81910  0.51430  Biso   1.000  O
  Ce62     1.0000 0.20030  0.27330  0.04970  Biso   1.000  Ce
  O446     1.0000 0.23570  0.31910  0.01430  Biso   1.000  O
  Ce63     1.0000 0.54970  0.27330  0.70030  Biso   1.000  Ce
  O447     1.0000 0.51430  0.31910  0.73570  Biso   1.000  O
  Ce64     1.0000 0.04970  0.27330  0.20030  Biso   1.000  Ce
  O448     1.0000 0.01430  0.31910  0.23570  Biso   1.000  O
  Ce65     1.0000 0.70030  0.47670  0.20030  Biso   1.000  Ce
  O449     1.0000 0.73570  0.43090  0.23570  Biso   1.000  O
  Ce66     1.0000 0.70030  0.97670  0.70030  Biso   1.000  Ce
  O450     1.0000 0.73570  0.93090  0.73570  Biso   1.000  O
  Ce67     1.0000 0.54970  0.20030  0.77330  Biso   1.000  Ce
  O451     1.0000 0.51430  0.23570  0.81910  Biso   1.000  O
  Ce68     1.0000 0.04970  0.20030  0.27330  Biso   1.000  Ce
  O452     1.0000 0.01430  0.23570  0.31910  Biso   1.000  O
  Ce69     1.0000 0.70030  0.54970  0.27330  Biso   1.000  Ce
  O453     1.0000 0.73570  0.51430  0.31910  Biso   1.000  O
  Ce70     1.0000 0.70030  0.04970  0.77330  Biso   1.000  Ce
  O454     1.0000 0.73570  0.01430  0.81910  Biso   1.000  O
  Ce71     1.0000 0.20030  0.70030  0.47670  Biso   1.000  Ce
  O455     1.0000 0.23570  0.73570  0.43090  Biso   1.000  O
  Ce72     1.0000 0.20030  0.20030  0.97670  Biso   1.000  Ce
  O456     1.0000 0.23570  0.23570  0.93090  Biso   1.000  O
  Ce73     1.0000 0.77330  0.54970  0.20030  Biso   1.000  Ce
  O457     1.0000 0.81910  0.51430  0.23570  Biso   1.000  O
  Ce74     1.0000 0.77330  0.04970  0.70030  Biso   1.000  Ce
  O458     1.0000 0.81910  0.01430  0.73570  Biso   1.000  O
  Ce75     1.0000 0.27330  0.70030  0.54970  Biso   1.000  Ce
  O459     1.0000 0.31910  0.73570  0.51430  Biso   1.000  O
  Ce76     1.0000 0.27330  0.20030  0.04970  Biso   1.000  Ce
  O460     1.0000 0.31910  0.23570  0.01430  Biso   1.000  O
  Ce77     1.0000 0.47670  0.20030  0.70030  Biso   1.000  Ce
  O461     1.0000 0.43090  0.23570  0.73570  Biso   1.000  O
  Ce78     1.0000 0.97670  0.20030  0.20030  Biso   1.000  Ce
  O462     1.0000 0.93090  0.23570  0.23570  Biso   1.000  O
  Ce79     1.0000 0.22670  0.79970  0.45030  Biso   1.000  Ce
  O463     1.0000 0.18090  0.76430  0.48570  Biso   1.000  O
  Ce80     1.0000 0.22670  0.29970  0.95030  Biso   1.000  Ce
  O464     1.0000 0.18090  0.26430  0.98570  Biso   1.000  O
  Ce81     1.0000 0.52330  0.29970  0.79970  Biso   1.000  Ce
  O465     1.0000 0.56910  0.26430  0.76430  Biso   1.000  O
  Ce82     1.0000 0.02330  0.29970  0.29970  Biso   1.000  Ce
  O466     1.0000 0.06910  0.26430  0.26430  Biso   1.000  O
  Ce83     1.0000 0.72670  0.45030  0.29970  Biso   1.000  Ce
  O467     1.0000 0.68090  0.48570  0.26430  Biso   1.000  O
  Ce84     1.0000 0.72670  0.95030  0.79970  Biso   1.000  Ce
  O468     1.0000 0.68090  0.98570  0.76430  Biso   1.000  O
  Ce85     1.0000 0.45030  0.29970  0.72670  Biso   1.000  Ce
  O469     1.0000 0.48570  0.26430  0.68090  Biso   1.000  O
  Ce86     1.0000 0.95030  0.29970  0.22670  Biso   1.000  Ce
  O470     1.0000 0.98570  0.26430  0.18090  Biso   1.000  O
  Ce87     1.0000 0.29970  0.79970  0.52330  Biso   1.000  Ce
  O471     1.0000 0.26430  0.76430  0.56910  Biso   1.000  O
  Ce88     1.0000 0.29970  0.29970  0.02330  Biso   1.000  Ce
  O472     1.0000 0.26430  0.26430  0.06910  Biso   1.000  O
  Ce89     1.0000 0.79970  0.45030  0.22670  Biso   1.000  Ce
  O473     1.0000 0.76430  0.48570  0.18090  Biso   1.000  O
  Ce90     1.0000 0.79970  0.95030  0.72670  Biso   1.000  Ce
  O474     1.0000 0.76430  0.98570  0.68090  Biso   1.000  O
  Ce91     1.0000 0.79970  0.52330  0.29970  Biso   1.000  Ce
  O475     1.0000 0.76430  0.56910  0.26430  Biso   1.000  O
  Ce92     1.0000 0.79970  0.02330  0.79970  Biso   1.000  Ce
  O476     1.0000 0.76430  0.06910  0.76430  Biso   1.000  O
  Ce93     1.0000 0.29970  0.72670  0.45030  Biso   1.000  Ce
  O477     1.0000 0.26430  0.68090  0.48570  Biso   1.000  O
  Ce94     1.0000 0.29970  0.22670  0.95030  Biso   1.000  Ce
  O478     1.0000 0.26430  0.18090  0.98570  Biso   1.000  O
  Ce95     1.0000 0.45030  0.22670  0.79970  Biso   1.000  Ce
  O479     1.0000 0.48570  0.18090  0.76430  Biso   1.000  O
  Ce96     1.0000 0.95030  0.22670  0.29970  Biso   1.000  Ce
  O480     1.0000 0.98570  0.18090  0.26430  Biso   1.000  O
  O481     1.0000 0.78865  0.28865  0.46135  Biso   1.000  O
  O482     1.0000 0.78865  0.78865  0.96135  Biso   1.000  O
  O483     1.0000 0.96135  0.96135  0.96135  Biso   1.000  O
  O484     1.0000 0.96135  0.46135  0.46135  Biso   1.000  O
  O485     1.0000 0.46135  0.96135  0.46135  Biso   1.000  O
  O486     1.0000 0.46135  0.46135  0.96135  Biso   1.000  O
  O487     1.0000 0.46135  0.78865  0.28865  Biso   1.000  O
  O488     1.0000 0.96135  0.78865  0.78865  Biso   1.000  O
  O489     1.0000 0.28865  0.46135  0.78865  Biso   1.000  O
  O490     1.0000 0.28865  0.96135  0.28865  Biso   1.000  O
  O491     1.0000 0.96135  0.28865  0.28865  Biso   1.000  O
  O492     1.0000 0.78865  0.96135  0.78865  Biso   1.000  O
  O493     1.0000 0.28865  0.28865  0.96135  Biso   1.000  O
  O494     1.0000 0.03865  0.03865  0.03865  Biso   1.000  O
  O495     1.0000 0.03865  0.53865  0.53865  Biso   1.000  O
  O496     1.0000 0.53865  0.03865  0.53865  Biso   1.000  O
  O497     1.0000 0.53865  0.53865  0.03865  Biso   1.000  O
  O498     1.0000 0.71135  0.21135  0.53865  Biso   1.000  O
  O499     1.0000 0.71135  0.71135  0.03865  Biso   1.000  O
  O500     1.0000 0.53865  0.71135  0.21135  Biso   1.000  O
  O501     1.0000 0.03865  0.71135  0.71135  Biso   1.000  O
  O502     1.0000 0.21135  0.53865  0.71135  Biso   1.000  O
  O503     1.0000 0.21135  0.03865  0.21135  Biso   1.000  O
  O504     1.0000 0.21135  0.71135  0.53865  Biso   1.000  O
  O505     1.0000 0.21135  0.21135  0.03865  Biso   1.000  O
  O506     1.0000 0.53865  0.21135  0.71135  Biso   1.000  O
  O507     1.0000 0.03865  0.21135  0.21135  Biso   1.000  O
  O508     1.0000 0.71135  0.53865  0.21135  Biso   1.000  O
  O509     1.0000 0.71135  0.03865  0.71135  Biso   1.000  O
  O510     1.0000 0.28865  0.78865  0.46135  Biso   1.000  O
  O511     1.0000 0.46135  0.28865  0.78865  Biso   1.000  O
  O512     1.0000 0.78865  0.46135  0.28865  Biso   1.000  O
  C1       1.0000 0.78307  0.28307  0.37678  Biso   1.000  C
  C2       1.0000 0.80313  0.30313  0.34938  Biso   1.000  C
  C3       1.0000 0.78307  0.78307  0.87678  Biso   1.000  C
  C4       1.0000 0.80313  0.80313  0.84938  Biso   1.000  C
  C5       1.0000 0.96693  0.96693  0.87678  Biso   1.000  C
  C6       1.0000 0.94687  0.94687  0.84938  Biso   1.000  C
  C7       1.0000 0.96693  0.46693  0.37678  Biso   1.000  C
  C8       1.0000 0.94687  0.44687  0.34938  Biso   1.000  C
  C9       1.0000 0.46693  0.96693  0.37678  Biso   1.000  C
  C10      1.0000 0.44687  0.94687  0.34938  Biso   1.000  C
  C11      1.0000 0.46693  0.46693  0.87678  Biso   1.000  C
  C12      1.0000 0.44687  0.44687  0.84938  Biso   1.000  C
  C13      1.0000 0.46693  0.78307  0.37322  Biso   1.000  C
  C14      1.0000 0.44687  0.80313  0.40062  Biso   1.000  C
  C15      1.0000 0.96693  0.78307  0.87322  Biso   1.000  C
  C16      1.0000 0.94687  0.80313  0.90062  Biso   1.000  C
  C17      1.0000 0.28307  0.46693  0.87322  Biso   1.000  C
  C18      1.0000 0.30313  0.44687  0.90062  Biso   1.000  C
  C19      1.0000 0.28307  0.96693  0.37322  Biso   1.000  C
  C20      1.0000 0.30313  0.94687  0.40062  Biso   1.000  C
  C21      1.0000 0.37678  0.78307  0.28307  Biso   1.000  C
  C22      1.0000 0.34938  0.80313  0.30313  Biso   1.000  C
  C23      1.0000 0.87678  0.78307  0.78307  Biso   1.000  C
  C24      1.0000 0.84938  0.80313  0.80313  Biso   1.000  C
  C25      1.0000 0.87678  0.96693  0.96693  Biso   1.000  C
  C26      1.0000 0.84938  0.94687  0.94687  Biso   1.000  C
  C27      1.0000 0.87678  0.46693  0.46693  Biso   1.000  C
  C28      1.0000 0.84938  0.44687  0.44687  Biso   1.000  C
  C29      1.0000 0.37678  0.96693  0.46693  Biso   1.000  C
  C30      1.0000 0.34938  0.94687  0.44687  Biso   1.000  C
  C31      1.0000 0.37678  0.46693  0.96693  Biso   1.000  C
  C32      1.0000 0.34938  0.44687  0.94687  Biso   1.000  C
  C33      1.0000 0.37322  0.46693  0.78307  Biso   1.000  C
  C34      1.0000 0.40062  0.44687  0.80313  Biso   1.000  C
  C35      1.0000 0.37322  0.96693  0.28307  Biso   1.000  C
  C36      1.0000 0.40062  0.94687  0.30313  Biso   1.000  C
  C37      1.0000 0.87322  0.28307  0.46693  Biso   1.000  C
  C38      1.0000 0.90062  0.30313  0.44687  Biso   1.000  C
  C39      1.0000 0.87322  0.78307  0.96693  Biso   1.000  C
  C40      1.0000 0.90062  0.80313  0.94687  Biso   1.000  C
  C41      1.0000 0.28307  0.37678  0.78307  Biso   1.000  C
  C42      1.0000 0.30313  0.34938  0.80313  Biso   1.000  C
  C43      1.0000 0.28307  0.87678  0.28307  Biso   1.000  C
  C44      1.0000 0.30313  0.84938  0.30313  Biso   1.000  C
  C45      1.0000 0.78307  0.87678  0.78307  Biso   1.000  C
  C46      1.0000 0.80313  0.84938  0.80313  Biso   1.000  C
  C47      1.0000 0.96693  0.87678  0.96693  Biso   1.000  C
  C48      1.0000 0.94687  0.84938  0.94687  Biso   1.000  C
  C49      1.0000 0.96693  0.37678  0.46693  Biso   1.000  C
  C50      1.0000 0.94687  0.34938  0.44687  Biso   1.000  C
  C51      1.0000 0.46693  0.87678  0.46693  Biso   1.000  C
  C52      1.0000 0.44687  0.84938  0.44687  Biso   1.000  C
  C53      1.0000 0.46693  0.37678  0.96693  Biso   1.000  C
  C54      1.0000 0.44687  0.34938  0.94687  Biso   1.000  C
  C55      1.0000 0.78307  0.37322  0.46693  Biso   1.000  C
  C56      1.0000 0.80313  0.40062  0.44687  Biso   1.000  C
  C57      1.0000 0.78307  0.87322  0.96693  Biso   1.000  C
  C58      1.0000 0.80313  0.90062  0.94687  Biso   1.000  C
  C59      1.0000 0.46693  0.87322  0.28307  Biso   1.000  C
  C60      1.0000 0.44687  0.90062  0.30313  Biso   1.000  C
  C61      1.0000 0.96693  0.87322  0.78307  Biso   1.000  C
  C62      1.0000 0.94687  0.90062  0.80313  Biso   1.000  C
  C63      1.0000 0.03307  0.03307  0.12322  Biso   1.000  C
  C64      1.0000 0.05313  0.05313  0.15062  Biso   1.000  C
  C65      1.0000 0.03307  0.53307  0.62322  Biso   1.000  C
  C66      1.0000 0.05313  0.55313  0.65062  Biso   1.000  C
  C67      1.0000 0.53307  0.03307  0.62322  Biso   1.000  C
  C68      1.0000 0.55313  0.05313  0.65062  Biso   1.000  C
  C69      1.0000 0.53307  0.53307  0.12322  Biso   1.000  C
  C70      1.0000 0.55313  0.55313  0.15062  Biso   1.000  C
  C71      1.0000 0.71693  0.21693  0.62322  Biso   1.000  C
  C72      1.0000 0.69687  0.19687  0.65062  Biso   1.000  C
  C73      1.0000 0.71693  0.71693  0.12322  Biso   1.000  C
  C74      1.0000 0.69687  0.69687  0.15062  Biso   1.000  C
  C75      1.0000 0.53307  0.71693  0.12678  Biso   1.000  C
  C76      1.0000 0.55313  0.69687  0.09938  Biso   1.000  C
  C77      1.0000 0.03307  0.71693  0.62678  Biso   1.000  C
  C78      1.0000 0.05313  0.69687  0.59938  Biso   1.000  C
  C79      1.0000 0.21693  0.53307  0.62678  Biso   1.000  C
  C80      1.0000 0.19687  0.55313  0.59938  Biso   1.000  C
  C81      1.0000 0.21693  0.03307  0.12678  Biso   1.000  C
  C82      1.0000 0.19687  0.05313  0.09938  Biso   1.000  C
  C83      1.0000 0.53307  0.62678  0.21693  Biso   1.000  C
  C84      1.0000 0.55313  0.59938  0.19687  Biso   1.000  C
  C85      1.0000 0.03307  0.62678  0.71693  Biso   1.000  C
  C86      1.0000 0.05313  0.59938  0.69687  Biso   1.000  C
  C87      1.0000 0.71693  0.12678  0.53307  Biso   1.000  C
  C88      1.0000 0.69687  0.09938  0.55313  Biso   1.000  C
  C89      1.0000 0.71693  0.62678  0.03307  Biso   1.000  C
  C90      1.0000 0.69687  0.59938  0.05313  Biso   1.000  C
  C91      1.0000 0.21693  0.62322  0.71693  Biso   1.000  C
  C92      1.0000 0.19687  0.65062  0.69687  Biso   1.000  C
  C93      1.0000 0.21693  0.12322  0.21693  Biso   1.000  C
  C94      1.0000 0.19687  0.15062  0.19687  Biso   1.000  C
  C95      1.0000 0.71693  0.12322  0.71693  Biso   1.000  C
  C96      1.0000 0.69687  0.15062  0.69687  Biso   1.000  C
  C97      1.0000 0.03307  0.12322  0.03307  Biso   1.000  C
  C98      1.0000 0.05313  0.15062  0.05313  Biso   1.000  C
  C99      1.0000 0.03307  0.62322  0.53307  Biso   1.000  C
  C100     1.0000 0.05313  0.65062  0.55313  Biso   1.000  C
  C101     1.0000 0.53307  0.12322  0.53307  Biso   1.000  C
  C102     1.0000 0.55313  0.15062  0.55313  Biso   1.000  C
  C103     1.0000 0.53307  0.62322  0.03307  Biso   1.000  C
  C104     1.0000 0.55313  0.65062  0.05313  Biso   1.000  C
  C105     1.0000 0.12678  0.53307  0.71693  Biso   1.000  C
  C106     1.0000 0.09938  0.55313  0.69687  Biso   1.000  C
  C107     1.0000 0.12678  0.03307  0.21693  Biso   1.000  C
  C108     1.0000 0.09938  0.05313  0.19687  Biso   1.000  C
  C109     1.0000 0.62678  0.21693  0.53307  Biso   1.000  C
  C110     1.0000 0.59938  0.19687  0.55313  Biso   1.000  C
  C111     1.0000 0.62678  0.71693  0.03307  Biso   1.000  C
  C112     1.0000 0.59938  0.69687  0.05313  Biso   1.000  C
  C113     1.0000 0.12322  0.03307  0.03307  Biso   1.000  C
  C114     1.0000 0.15062  0.05313  0.05313  Biso   1.000  C
  C115     1.0000 0.12322  0.53307  0.53307  Biso   1.000  C
  C116     1.0000 0.15062  0.55313  0.55313  Biso   1.000  C
  C117     1.0000 0.62322  0.03307  0.53307  Biso   1.000  C
  C118     1.0000 0.65062  0.05313  0.55313  Biso   1.000  C
  C119     1.0000 0.62322  0.53307  0.03307  Biso   1.000  C
  C120     1.0000 0.65062  0.55313  0.05313  Biso   1.000  C
  C121     1.0000 0.62322  0.71693  0.21693  Biso   1.000  C
  C122     1.0000 0.65062  0.69687  0.19687  Biso   1.000  C
  C123     1.0000 0.12322  0.71693  0.71693  Biso   1.000  C
  C124     1.0000 0.15062  0.69687  0.69687  Biso   1.000  C
  C125     1.0000 0.21693  0.71693  0.62322  Biso   1.000  C
  C126     1.0000 0.19687  0.69687  0.65062  Biso   1.000  C
  C127     1.0000 0.21693  0.21693  0.12322  Biso   1.000  C
  C128     1.0000 0.19687  0.19687  0.15062  Biso   1.000  C
  C129     1.0000 0.53307  0.21693  0.62678  Biso   1.000  C
  C130     1.0000 0.55313  0.19687  0.59938  Biso   1.000  C
  C131     1.0000 0.03307  0.21693  0.12678  Biso   1.000  C
  C132     1.0000 0.05313  0.19687  0.09938  Biso   1.000  C
  C133     1.0000 0.71693  0.53307  0.12678  Biso   1.000  C
  C134     1.0000 0.69687  0.55313  0.09938  Biso   1.000  C
  C135     1.0000 0.71693  0.03307  0.62678  Biso   1.000  C
  C136     1.0000 0.69687  0.05313  0.59938  Biso   1.000  C
  C137     1.0000 0.62322  0.21693  0.71693  Biso   1.000  C
  C138     1.0000 0.65062  0.19687  0.69687  Biso   1.000  C
  C139     1.0000 0.12322  0.21693  0.21693  Biso   1.000  C
  C140     1.0000 0.15062  0.19687  0.19687  Biso   1.000  C
  C141     1.0000 0.62678  0.53307  0.21693  Biso   1.000  C
  C142     1.0000 0.59938  0.55313  0.19687  Biso   1.000  C
  C143     1.0000 0.62678  0.03307  0.71693  Biso   1.000  C
  C144     1.0000 0.59938  0.05313  0.69687  Biso   1.000  C
  C145     1.0000 0.12678  0.71693  0.53307  Biso   1.000  C
  C146     1.0000 0.09938  0.69687  0.55313  Biso   1.000  C
  C147     1.0000 0.12678  0.21693  0.03307  Biso   1.000  C
  C148     1.0000 0.09938  0.19687  0.05313  Biso   1.000  C
  C149     1.0000 0.71693  0.62322  0.21693  Biso   1.000  C
  C150     1.0000 0.69687  0.65062  0.19687  Biso   1.000  C
  C151     1.0000 0.21693  0.62678  0.53307  Biso   1.000  C
  C152     1.0000 0.19687  0.59938  0.55313  Biso   1.000  C
  C153     1.0000 0.21693  0.12678  0.03307  Biso   1.000  C
  C154     1.0000 0.19687  0.09938  0.05313  Biso   1.000  C
  C155     1.0000 0.53307  0.12678  0.71693  Biso   1.000  C
  C156     1.0000 0.55313  0.09938  0.69687  Biso   1.000  C
  C157     1.0000 0.03307  0.12678  0.21693  Biso   1.000  C
  C158     1.0000 0.05313  0.09938  0.19687  Biso   1.000  C
  C159     1.0000 0.28307  0.78307  0.37678  Biso   1.000  C
  C160     1.0000 0.30313  0.80313  0.34938  Biso   1.000  C
  C161     1.0000 0.28307  0.28307  0.87678  Biso   1.000  C
  C162     1.0000 0.30313  0.30313  0.84938  Biso   1.000  C
  C163     1.0000 0.46693  0.28307  0.87322  Biso   1.000  C
  C164     1.0000 0.44687  0.30313  0.90062  Biso   1.000  C
  C165     1.0000 0.96693  0.28307  0.37322  Biso   1.000  C
  C166     1.0000 0.94687  0.30313  0.40062  Biso   1.000  C
  C167     1.0000 0.78307  0.46693  0.37322  Biso   1.000  C
  C168     1.0000 0.80313  0.44687  0.40062  Biso   1.000  C
  C169     1.0000 0.78307  0.96693  0.87322  Biso   1.000  C
  C170     1.0000 0.80313  0.94687  0.90062  Biso   1.000  C
  C171     1.0000 0.46693  0.37322  0.78307  Biso   1.000  C
  C172     1.0000 0.44687  0.40062  0.80313  Biso   1.000  C
  C173     1.0000 0.96693  0.37322  0.28307  Biso   1.000  C
  C174     1.0000 0.94687  0.40062  0.30313  Biso   1.000  C
  C175     1.0000 0.28307  0.87322  0.46693  Biso   1.000  C
  C176     1.0000 0.30313  0.90062  0.44687  Biso   1.000  C
  C177     1.0000 0.28307  0.37322  0.96693  Biso   1.000  C
  C178     1.0000 0.30313  0.40062  0.94687  Biso   1.000  C
  C179     1.0000 0.78307  0.37678  0.28307  Biso   1.000  C
  C180     1.0000 0.80313  0.34938  0.30313  Biso   1.000  C
  C181     1.0000 0.87322  0.46693  0.28307  Biso   1.000  C
  C182     1.0000 0.90062  0.44687  0.30313  Biso   1.000  C
  C183     1.0000 0.87322  0.96693  0.78307  Biso   1.000  C
  C184     1.0000 0.90062  0.94687  0.80313  Biso   1.000  C
  C185     1.0000 0.37322  0.78307  0.46693  Biso   1.000  C
  C186     1.0000 0.40062  0.80313  0.44687  Biso   1.000  C
  C187     1.0000 0.37322  0.28307  0.96693  Biso   1.000  C
  C188     1.0000 0.40062  0.30313  0.94687  Biso   1.000  C
  C189     1.0000 0.37678  0.28307  0.78307  Biso   1.000  C
  C190     1.0000 0.34938  0.30313  0.80313  Biso   1.000  C
  C191     1.0000 0.87678  0.28307  0.28307  Biso   1.000  C
  C192     1.0000 0.84938  0.30313  0.30313  Biso   1.000  C
  C193     1.0000 0.78782  0.33345  0.33345  Biso   1.000  C
  C194     1.0000 0.78782  0.83345  0.83345  Biso   1.000  C
  C195     1.0000 0.28782  0.33345  0.83345  Biso   1.000  C
  C196     1.0000 0.28782  0.83345  0.33345  Biso   1.000  C
  C197     1.0000 0.96218  0.91655  0.83345  Biso   1.000  C
  C198     1.0000 0.96218  0.41655  0.33345  Biso   1.000  C
  C199     1.0000 0.46218  0.83345  0.41655  Biso   1.000  C
  C200     1.0000 0.46218  0.33345  0.91655  Biso   1.000  C
  C201     1.0000 0.96218  0.33345  0.41655  Biso   1.000  C
  C202     1.0000 0.28782  0.41655  0.91655  Biso   1.000  C
  C203     1.0000 0.78782  0.41655  0.41655  Biso   1.000  C
  C204     1.0000 0.33345  0.78782  0.33345  Biso   1.000  C
  C205     1.0000 0.33345  0.28782  0.83345  Biso   1.000  C
  C206     1.0000 0.83345  0.78782  0.83345  Biso   1.000  C
  C207     1.0000 0.83345  0.28782  0.33345  Biso   1.000  C
  C208     1.0000 0.83345  0.96218  0.91655  Biso   1.000  C
  C209     1.0000 0.33345  0.96218  0.41655  Biso   1.000  C
  C210     1.0000 0.41655  0.46218  0.83345  Biso   1.000  C
  C211     1.0000 0.41655  0.96218  0.33345  Biso   1.000  C
  C212     1.0000 0.91655  0.28782  0.41655  Biso   1.000  C
  C213     1.0000 0.91655  0.78782  0.91655  Biso   1.000  C
  C214     1.0000 0.41655  0.78782  0.41655  Biso   1.000  C
  C215     1.0000 0.33345  0.33345  0.78782  Biso   1.000  C
  C216     1.0000 0.33345  0.83345  0.28782  Biso   1.000  C
  C217     1.0000 0.83345  0.33345  0.28782  Biso   1.000  C
  C218     1.0000 0.83345  0.83345  0.78782  Biso   1.000  C
  C219     1.0000 0.91655  0.83345  0.96218  Biso   1.000  C
  C220     1.0000 0.91655  0.33345  0.46218  Biso   1.000  C
  C221     1.0000 0.41655  0.33345  0.96218  Biso   1.000  C
  C222     1.0000 0.83345  0.41655  0.46218  Biso   1.000  C
  C223     1.0000 0.33345  0.41655  0.96218  Biso   1.000  C
  C224     1.0000 0.41655  0.91655  0.28782  Biso   1.000  C
  C225     1.0000 0.41655  0.41655  0.78782  Biso   1.000  C
  C226     1.0000 0.08345  0.03782  0.16655  Biso   1.000  C
  C227     1.0000 0.08345  0.53782  0.66655  Biso   1.000  C
  C228     1.0000 0.66655  0.21218  0.66655  Biso   1.000  C
  C229     1.0000 0.66655  0.71218  0.16655  Biso   1.000  C
  C230     1.0000 0.16655  0.21218  0.16655  Biso   1.000  C
  C231     1.0000 0.16655  0.71218  0.66655  Biso   1.000  C
  C232     1.0000 0.58345  0.71218  0.08345  Biso   1.000  C
  C233     1.0000 0.58345  0.21218  0.58345  Biso   1.000  C
  C234     1.0000 0.08345  0.21218  0.08345  Biso   1.000  C
  C235     1.0000 0.16655  0.53782  0.58345  Biso   1.000  C
  C236     1.0000 0.66655  0.53782  0.08345  Biso   1.000  C
  C237     1.0000 0.53782  0.58345  0.16655  Biso   1.000  C
  C238     1.0000 0.53782  0.08345  0.66655  Biso   1.000  C
  C239     1.0000 0.71218  0.08345  0.58345  Biso   1.000  C
  C240     1.0000 0.21218  0.08345  0.08345  Biso   1.000  C
  C241     1.0000 0.21218  0.66655  0.66655  Biso   1.000  C
  C242     1.0000 0.21218  0.16655  0.16655  Biso   1.000  C
  C243     1.0000 0.71218  0.66655  0.16655  Biso   1.000  C
  C244     1.0000 0.71218  0.16655  0.66655  Biso   1.000  C
  C245     1.0000 0.03782  0.16655  0.08345  Biso   1.000  C
  C246     1.0000 0.03782  0.66655  0.58345  Biso   1.000  C
  C247     1.0000 0.53782  0.66655  0.08345  Biso   1.000  C
  C248     1.0000 0.08345  0.58345  0.71218  Biso   1.000  C
  C249     1.0000 0.08345  0.08345  0.21218  Biso   1.000  C
  C250     1.0000 0.58345  0.16655  0.53782  Biso   1.000  C
  C251     1.0000 0.58345  0.66655  0.03782  Biso   1.000  C
  C252     1.0000 0.08345  0.66655  0.53782  Biso   1.000  C
  C253     1.0000 0.16655  0.08345  0.03782  Biso   1.000  C
  C254     1.0000 0.66655  0.08345  0.53782  Biso   1.000  C
  C255     1.0000 0.66655  0.66655  0.21218  Biso   1.000  C
  C256     1.0000 0.66655  0.16655  0.71218  Biso   1.000  C
  C257     1.0000 0.16655  0.66655  0.71218  Biso   1.000  C
  C258     1.0000 0.16655  0.16655  0.21218  Biso   1.000  C
  C259     1.0000 0.03782  0.08345  0.16655  Biso   1.000  C
  C260     1.0000 0.03782  0.58345  0.66655  Biso   1.000  C
  C261     1.0000 0.53782  0.16655  0.58345  Biso   1.000  C
  C262     1.0000 0.71218  0.58345  0.08345  Biso   1.000  C
  C263     1.0000 0.21218  0.58345  0.58345  Biso   1.000  C
  C264     1.0000 0.16655  0.03782  0.08345  Biso   1.000  C
  C265     1.0000 0.66655  0.03782  0.58345  Biso   1.000  C
  C266     1.0000 0.58345  0.53782  0.16655  Biso   1.000  C
  C267     1.0000 0.58345  0.03782  0.66655  Biso   1.000  C
  C268     1.0000 0.08345  0.71218  0.58345  Biso   1.000  C
  C269     1.0000 0.08345  0.16655  0.03782  Biso   1.000  C
  C270     1.0000 0.16655  0.58345  0.53782  Biso   1.000  C
  C271     1.0000 0.66655  0.58345  0.03782  Biso   1.000  C
  C272     1.0000 0.58345  0.08345  0.71218  Biso   1.000  C
  C273     1.0000 0.58345  0.58345  0.21218  Biso   1.000  C
  C274     1.0000 0.91655  0.96218  0.83345  Biso   1.000  C
  C275     1.0000 0.91655  0.46218  0.33345  Biso   1.000  C
  C276     1.0000 0.41655  0.28782  0.91655  Biso   1.000  C
  C277     1.0000 0.83345  0.46218  0.41655  Biso   1.000  C
  C278     1.0000 0.33345  0.46218  0.91655  Biso   1.000  C
  C279     1.0000 0.46218  0.41655  0.83345  Biso   1.000  C
  C280     1.0000 0.46218  0.91655  0.33345  Biso   1.000  C
  C281     1.0000 0.28782  0.91655  0.41655  Biso   1.000  C
  C282     1.0000 0.78782  0.91655  0.91655  Biso   1.000  C
  C283     1.0000 0.96218  0.83345  0.91655  Biso   1.000  C
  C284     1.0000 0.91655  0.41655  0.28782  Biso   1.000  C
  C285     1.0000 0.91655  0.91655  0.78782  Biso   1.000  C
  C286     1.0000 0.41655  0.83345  0.46218  Biso   1.000  C
  C287     1.0000 0.83345  0.91655  0.96218  Biso   1.000  C
  C288     1.0000 0.33345  0.91655  0.46218  Biso   1.000  C
