data_JENKIX
_audit_creation_date              2015-05-19
_audit_creation_method            'Materials Studio'
_symmetry_space_group_name_H-M    'P1'
_symmetry_Int_Tables_number       1
_symmetry_cell_setting            triclinic
loop_
_symmetry_equiv_pos_as_xyz
  x,y,z
_cell_length_a                    45.9222
_cell_length_b                    15.0763
_cell_length_c                    34.6215
_cell_angle_alpha                 90.0000
_cell_angle_beta                  117.3100
_cell_angle_gamma                 90.0000
loop_
_atom_site_label
_atom_site_type_symbol
_atom_site_fract_x
_atom_site_fract_y
_atom_site_fract_z
_atom_site_U_iso_or_equiv
_atom_site_adp_type
_atom_site_occupancy
Zn1    Zn    0.20720   0.61749   0.00819   0.00000  Uiso   1.00
Zn2    Zn    0.72020   0.78598   0.35055   0.00000  Uiso   1.00
Zn3    Zn    0.28583   0.19708   0.39469   0.00000  Uiso   1.00
Zn4    Zn    0.26878   0.75012   0.05050   0.00000  Uiso   1.00
O5     O     0.21990   0.73367   0.99892   0.00000  Uiso   1.00
C6     C     0.38530   0.04010   0.25848   0.00000  Uiso   1.00
C7     C     0.36780   0.97440   0.26757   0.00000  Uiso   1.00
H8     H     0.34480   0.98020   0.25650   0.00000  Uiso   1.00
C9     C     0.38349   0.90120   0.29242   0.00000  Uiso   1.00
C10    C     0.41744   0.89380   0.30817   0.00000  Uiso   1.00
H11    H     0.42840   0.84310   0.32480   0.00000  Uiso   1.00
O12    O     0.68438   0.76485   0.39886   0.00000  Uiso   1.00
O13    O     0.67912   0.83985   0.34059   0.00000  Uiso   1.00
C14    C     0.36812   0.11610   0.23004   0.00000  Uiso   1.00
C15    C     0.38294   0.19940   0.23702   0.00000  Uiso   1.00
H16    H     0.40410   0.20800   0.26080   0.00000  Uiso   1.00
C17    C     0.36701   0.27030   0.20943   0.00000  Uiso   1.00
H18    H     0.37750   0.32640   0.21460   0.00000  Uiso   1.00
C19    C     0.33604   0.26000   0.17446   0.00000  Uiso   1.00
C20    C     0.32115   0.17630   0.16691   0.00000  Uiso   1.00
H21    H     0.30010   0.16770   0.14310   0.00000  Uiso   1.00
C22    C     0.33714   0.10610   0.19418   0.00000  Uiso   1.00
H23    H     0.32690   0.04960   0.18850   0.00000  Uiso   1.00
C24    C     0.31818   0.33740   0.14731   0.00000  Uiso   1.00
C25    C     0.33439   0.40480   0.13735   0.00000  Uiso   1.00
H26    H     0.35730   0.40050   0.14680   0.00000  Uiso   1.00
C27    C     0.31721   0.47830   0.11369   0.00000  Uiso   1.00
H28    H     0.32850   0.52450   0.10740   0.00000  Uiso   1.00
C29    C     0.28360   0.48490   0.09907   0.00000  Uiso   1.00
C30    C     0.26730   0.41790   0.10892   0.00000  Uiso   1.00
H31    H     0.24440   0.42230   0.09940   0.00000  Uiso   1.00
C32    C     0.28453   0.34460   0.13260   0.00000  Uiso   1.00
H33    H     0.27320   0.29870   0.13890   0.00000  Uiso   1.00
C34    C     0.26486   0.56330   0.07382   0.00000  Uiso   1.00
O35    O     0.27890   0.61585   0.05956   0.00000  Uiso   1.00
O36    O     0.23546   0.57245   0.06738   0.00000  Uiso   1.00
C37    C     0.36503   0.82870   0.30136   0.00000  Uiso   1.00
C38    C     0.33324   0.80650   0.27075   0.00000  Uiso   1.00
H39    H     0.32230   0.84140   0.24530   0.00000  Uiso   1.00
C40    C     0.31740   0.73280   0.27748   0.00000  Uiso   1.00
H41    H     0.29580   0.71840   0.25620   0.00000  Uiso   1.00
C42    C     0.33248   0.68100   0.31418   0.00000  Uiso   1.00
C43    C     0.36395   0.70610   0.34563   0.00000  Uiso   1.00
H44    H     0.37460   0.67280   0.37180   0.00000  Uiso   1.00
C45    C     0.37970   0.77880   0.33899   0.00000  Uiso   1.00
H46    H     0.40100   0.79460   0.36080   0.00000  Uiso   1.00
C47    C     0.31684   0.59980   0.32109   0.00000  Uiso   1.00
C48    C     0.28302   0.59070   0.30179   0.00000  Uiso   1.00
H49    H     0.26950   0.63680   0.28380   0.00000  Uiso   1.00
C50    C     0.26866   0.51480   0.30851   0.00000  Uiso   1.00
H51    H     0.24550   0.50990   0.29560   0.00000  Uiso   1.00
C52    C     0.28838   0.44590   0.33433   0.00000  Uiso   1.00
C53    C     0.32199   0.45460   0.35275   0.00000  Uiso   1.00
H54    H     0.33560   0.40770   0.37000   0.00000  Uiso   1.00
C55    C     0.33613   0.53000   0.34651   0.00000  Uiso   1.00
H56    H     0.35930   0.53480   0.35960   0.00000  Uiso   1.00
C57    C     0.27362   0.36380   0.34260   0.00000  Uiso   1.00
O58    O     0.24272   0.36281   0.32727   0.00000  Uiso   1.00
O59    O     0.29320   0.30471   0.36543   0.00000  Uiso   1.00
C60    C     0.47161   0.94540   0.31516   0.00000  Uiso   1.00
C61    C     0.48936   0.88280   0.34427   0.00000  Uiso   1.00
H62    H     0.47930   0.84950   0.35820   0.00000  Uiso   1.00
C63    C     0.52173   0.86540   0.35463   0.00000  Uiso   1.00
H64    H     0.53310   0.82000   0.37500   0.00000  Uiso   1.00
C65    C     0.53779   0.91230   0.33610   0.00000  Uiso   1.00
C66    C     0.52150   0.98140   0.31177   0.00000  Uiso   1.00
H67    H     0.53250   0.02040   0.30130   0.00000  Uiso   1.00
C68    C     0.48875   0.99840   0.30105   0.00000  Uiso   1.00
H69    H     0.47820   0.04830   0.28350   0.00000  Uiso   1.00
C70    C     0.57213   0.88970   0.34491   0.00000  Uiso   1.00
C71    C     0.59394   0.85060   0.38316   0.00000  Uiso   1.00
H72    H     0.58730   0.83900   0.40490   0.00000  Uiso   1.00
C73    C     0.62508   0.82800   0.39080   0.00000  Uiso   1.00
H74    H     0.63960   0.80100   0.41760   0.00000  Uiso   1.00
C75    C     0.63555   0.84430   0.35962   0.00000  Uiso   1.00
C76    C     0.61427   0.88650   0.32171   0.00000  Uiso   1.00
H77    H     0.62130   0.90070   0.30060   0.00000  Uiso   1.00
C78    C     0.58279   0.90830   0.31414   0.00000  Uiso   1.00
H79    H     0.56830   0.93640   0.28760   0.00000  Uiso   1.00
C80    C     0.66898   0.81510   0.36750   0.00000  Uiso   1.00
C81    C     0.43553   0.95840   0.30014   0.00000  Uiso   1.00
C82    C     0.41923   0.03150   0.27583   0.00000  Uiso   1.00
H83    H     0.43140   0.07690   0.27080   0.00000  Uiso   1.00
O84    O     0.75515   0.76289   0.40990   0.00000  Uiso   1.00
C85    C     0.36407   0.93140   0.86010   0.00000  Uiso   1.00
C86    C     0.34406   0.98400   0.87095   0.00000  Uiso   1.00
H87    H     0.32120   0.97220   0.85810   0.00000  Uiso   1.00
C88    C     0.35686   0.05340   0.90015   0.00000  Uiso   1.00
C89    C     0.39044   0.06890   0.91977   0.00000  Uiso   1.00
H90    H     0.39950   0.11410   0.94110   0.00000  Uiso   1.00
C91    C     0.41109   0.01880   0.90857   0.00000  Uiso   1.00
C92    C     0.39722   0.95060   0.87846   0.00000  Uiso   1.00
H93    H     0.41090   0.91640   0.87030   0.00000  Uiso   1.00
C94    C     0.35003   0.85420   0.83018   0.00000  Uiso   1.00
C95    C     0.36772   0.77540   0.83800   0.00000  Uiso   1.00
H96    H     0.38910   0.77170   0.86190   0.00000  Uiso   1.00
C97    C     0.35462   0.70290   0.81155   0.00000  Uiso   1.00
H98    H     0.36710   0.64980   0.81740   0.00000  Uiso   1.00
C99    C     0.32327   0.70570   0.77619   0.00000  Uiso   1.00
C100   C     0.30629   0.78550   0.76804   0.00000  Uiso   1.00
H101   H     0.28530   0.79000   0.74370   0.00000  Uiso   1.00
C102   C     0.31931   0.85790   0.79459   0.00000  Uiso   1.00
H103   H     0.30700   0.91140   0.78840   0.00000  Uiso   1.00
C104   C     0.30872   0.62590   0.74904   0.00000  Uiso   1.00
C105   C     0.32845   0.56160   0.74371   0.00000  Uiso   1.00
H106   H     0.35150   0.57000   0.75700   0.00000  Uiso   1.00
C107   C     0.31528   0.48670   0.71969   0.00000  Uiso   1.00
H108   H     0.32920   0.44360   0.71670   0.00000  Uiso   1.00
C109   C     0.28150   0.47320   0.69949   0.00000  Uiso   1.00
C110   C     0.26160   0.53630   0.70431   0.00000  Uiso   1.00
H111   H     0.23850   0.52770   0.69070   0.00000  Uiso   1.00
C112   C     0.27490   0.61190   0.72878   0.00000  Uiso   1.00
H113   H     0.26090   0.65470   0.73180   0.00000  Uiso   1.00
C114   C     0.26741   0.39220   0.67265   0.00000  Uiso   1.00
O115   O     0.28752   0.33450   0.67289   0.00000  Uiso   1.00
O116   O     0.23690   0.38601   0.65294   0.00000  Uiso   1.00
C117   C     0.33484   0.11420   0.90868   0.00000  Uiso   1.00
C118   C     0.31204   0.16340   0.87383   0.00000  Uiso   1.00
H119   H     0.30940   0.15330   0.84530   0.00000  Uiso   1.00
C120   C     0.29340   0.22670   0.88093   0.00000  Uiso   1.00
H121   H     0.27820   0.26060   0.85710   0.00000  Uiso   1.00
C122   C     0.29629   0.24210   0.92217   0.00000  Uiso   1.00
C123   C     0.31805   0.18920   0.95616   0.00000  Uiso   1.00
H124   H     0.31970   0.19600   0.98440   0.00000  Uiso   1.00
C125   C     0.33724   0.12710   0.94935   0.00000  Uiso   1.00
H126   H     0.35230   0.09280   0.97310   0.00000  Uiso   1.00
C127   C     0.27737   0.31470   0.92929   0.00000  Uiso   1.00
C128   C     0.26470   0.30670   0.95900   0.00000  Uiso   1.00
H129   H     0.26700   0.25230   0.97400   0.00000  Uiso   1.00
C130   C     0.24877   0.37750   0.96657   0.00000  Uiso   1.00
H131   H     0.24010   0.37130   0.98660   0.00000  Uiso   1.00
C132   C     0.24545   0.45700   0.94524   0.00000  Uiso   1.00
C133   C     0.25729   0.46460   0.91509   0.00000  Uiso   1.00
H134   H     0.25460   0.51860   0.89970   0.00000  Uiso   1.00
C135   C     0.27293   0.39380   0.90731   0.00000  Uiso   1.00
H136   H     0.28080   0.39980   0.88640   0.00000  Uiso   1.00
C137   C     0.23099   0.53560   0.95619   0.00000  Uiso   1.00
O138   O     0.21380   0.52156   0.97551   0.00000  Uiso   1.00
O139   O     0.23744   0.60997   0.94663   0.00000  Uiso   1.00
C140   C     0.44662   0.03940   0.92746   0.00000  Uiso   1.00
C141   C     0.45901   0.12290   0.94184   0.00000  Uiso   1.00
H142   H     0.44440   0.16960   0.93970   0.00000  Uiso   1.00
C143   C     0.49228   0.14040   0.95930   0.00000  Uiso   1.00
H144   H     0.50010   0.19860   0.96930   0.00000  Uiso   1.00
C145   C     0.51431   0.07520   0.96257   0.00000  Uiso   1.00
C146   C     0.50207   0.99030   0.94884   0.00000  Uiso   1.00
H147   H     0.51680   0.94390   0.95120   0.00000  Uiso   1.00
C148   C     0.46901   0.97200   0.93179   0.00000  Uiso   1.00
H149   H     0.46140   0.91330   0.92300   0.00000  Uiso   1.00
C150   C     0.55005   0.09300   0.98058   0.00000  Uiso   1.00
C151   C     0.56650   0.15090   0.01446   0.00000  Uiso   1.00
H152   H     0.55460   0.18280   0.02630   0.00000  Uiso   1.00
C153   C     0.60020   0.16390   0.03171   0.00000  Uiso   1.00
H154   H     0.61120   0.20270   0.05570   0.00000  Uiso   1.00
C155   C     0.61748   0.11990   0.01373   0.00000  Uiso   1.00
C156   C     0.60134   0.06100   0.97981   0.00000  Uiso   1.00
H157   H     0.61320   0.03060   0.96750   0.00000  Uiso   1.00
C158   C     0.56799   0.04600   0.96356   0.00000  Uiso   1.00
H159   H     0.55730   0.00390   0.94100   0.00000  Uiso   1.00
C160   C     0.65317   0.13450   0.02963   0.00000  Uiso   1.00
O161   O     0.66934   0.16852   0.06643   0.00000  Uiso   1.00
O162   O     0.66411   0.10976   0.00390   0.00000  Uiso   1.00
H163   H     0.25515   0.67078   0.90990   0.00000  Uiso   1.00
H164   H     0.21990   0.20000   0.49892   0.00000  Uiso   1.00
Zn165  Zn    0.70720   0.11749   0.00819   0.00000  Uiso   1.00
Zn166  Zn    0.22020   0.28598   0.35055   0.00000  Uiso   1.00
Zn167  Zn    0.78583   0.69708   0.39469   0.00000  Uiso   1.00
Zn168  Zn    0.76878   0.25012   0.05050   0.00000  Uiso   1.00
O169   O     0.71990   0.23367   0.99892   0.00000  Uiso   1.00
C170   C     0.88530   0.54010   0.25848   0.00000  Uiso   1.00
C171   C     0.86780   0.47440   0.26757   0.00000  Uiso   1.00
H172   H     0.84480   0.48020   0.25650   0.00000  Uiso   1.00
C173   C     0.88349   0.40120   0.29242   0.00000  Uiso   1.00
C174   C     0.91744   0.39380   0.30817   0.00000  Uiso   1.00
H175   H     0.92840   0.34310   0.32480   0.00000  Uiso   1.00
O176   O     0.18438   0.26485   0.39886   0.00000  Uiso   1.00
O177   O     0.17912   0.33985   0.34059   0.00000  Uiso   1.00
C178   C     0.86812   0.61610   0.23004   0.00000  Uiso   1.00
C179   C     0.88294   0.69940   0.23702   0.00000  Uiso   1.00
H180   H     0.90410   0.70800   0.26080   0.00000  Uiso   1.00
C181   C     0.86701   0.77030   0.20943   0.00000  Uiso   1.00
H182   H     0.87750   0.82640   0.21460   0.00000  Uiso   1.00
C183   C     0.83604   0.76000   0.17446   0.00000  Uiso   1.00
C184   C     0.82115   0.67630   0.16691   0.00000  Uiso   1.00
H185   H     0.80010   0.66770   0.14310   0.00000  Uiso   1.00
C186   C     0.83714   0.60610   0.19418   0.00000  Uiso   1.00
H187   H     0.82690   0.54960   0.18850   0.00000  Uiso   1.00
C188   C     0.81818   0.83740   0.14731   0.00000  Uiso   1.00
C189   C     0.83439   0.90480   0.13735   0.00000  Uiso   1.00
H190   H     0.85730   0.90050   0.14680   0.00000  Uiso   1.00
C191   C     0.81721   0.97830   0.11369   0.00000  Uiso   1.00
H192   H     0.82850   0.02450   0.10740   0.00000  Uiso   1.00
C193   C     0.78360   0.98490   0.09907   0.00000  Uiso   1.00
C194   C     0.76730   0.91790   0.10892   0.00000  Uiso   1.00
H195   H     0.74440   0.92230   0.09940   0.00000  Uiso   1.00
C196   C     0.78453   0.84460   0.13260   0.00000  Uiso   1.00
H197   H     0.77320   0.79870   0.13890   0.00000  Uiso   1.00
C198   C     0.76486   0.06330   0.07382   0.00000  Uiso   1.00
O199   O     0.77890   0.11585   0.05956   0.00000  Uiso   1.00
O200   O     0.73546   0.07245   0.06738   0.00000  Uiso   1.00
C201   C     0.86503   0.32870   0.30136   0.00000  Uiso   1.00
C202   C     0.83324   0.30650   0.27075   0.00000  Uiso   1.00
H203   H     0.82230   0.34140   0.24530   0.00000  Uiso   1.00
C204   C     0.81740   0.23280   0.27748   0.00000  Uiso   1.00
H205   H     0.79580   0.21840   0.25620   0.00000  Uiso   1.00
C206   C     0.83248   0.18100   0.31418   0.00000  Uiso   1.00
C207   C     0.86395   0.20610   0.34563   0.00000  Uiso   1.00
H208   H     0.87460   0.17280   0.37180   0.00000  Uiso   1.00
C209   C     0.87970   0.27880   0.33899   0.00000  Uiso   1.00
H210   H     0.90100   0.29460   0.36080   0.00000  Uiso   1.00
C211   C     0.81684   0.09980   0.32109   0.00000  Uiso   1.00
C212   C     0.78302   0.09070   0.30179   0.00000  Uiso   1.00
H213   H     0.76950   0.13680   0.28380   0.00000  Uiso   1.00
C214   C     0.76866   0.01480   0.30851   0.00000  Uiso   1.00
H215   H     0.74550   0.00990   0.29560   0.00000  Uiso   1.00
C216   C     0.78838   0.94590   0.33433   0.00000  Uiso   1.00
C217   C     0.82199   0.95460   0.35275   0.00000  Uiso   1.00
H218   H     0.83560   0.90770   0.37000   0.00000  Uiso   1.00
C219   C     0.83613   0.03000   0.34651   0.00000  Uiso   1.00
H220   H     0.85930   0.03480   0.35960   0.00000  Uiso   1.00
C221   C     0.77362   0.86380   0.34260   0.00000  Uiso   1.00
O222   O     0.74272   0.86281   0.32727   0.00000  Uiso   1.00
O223   O     0.79320   0.80471   0.36543   0.00000  Uiso   1.00
C224   C     0.97161   0.44540   0.31516   0.00000  Uiso   1.00
C225   C     0.98936   0.38280   0.34427   0.00000  Uiso   1.00
H226   H     0.97930   0.34950   0.35820   0.00000  Uiso   1.00
C227   C     0.02173   0.36540   0.35463   0.00000  Uiso   1.00
H228   H     0.03310   0.32000   0.37500   0.00000  Uiso   1.00
C229   C     0.03779   0.41230   0.33610   0.00000  Uiso   1.00
C230   C     0.02150   0.48140   0.31177   0.00000  Uiso   1.00
H231   H     0.03250   0.52040   0.30130   0.00000  Uiso   1.00
C232   C     0.98875   0.49840   0.30105   0.00000  Uiso   1.00
H233   H     0.97820   0.54830   0.28350   0.00000  Uiso   1.00
C234   C     0.07213   0.38970   0.34491   0.00000  Uiso   1.00
C235   C     0.09394   0.35060   0.38316   0.00000  Uiso   1.00
H236   H     0.08730   0.33900   0.40490   0.00000  Uiso   1.00
C237   C     0.12508   0.32800   0.39080   0.00000  Uiso   1.00
H238   H     0.13960   0.30100   0.41760   0.00000  Uiso   1.00
C239   C     0.13555   0.34430   0.35962   0.00000  Uiso   1.00
C240   C     0.11427   0.38650   0.32171   0.00000  Uiso   1.00
H241   H     0.12130   0.40070   0.30060   0.00000  Uiso   1.00
C242   C     0.08279   0.40830   0.31414   0.00000  Uiso   1.00
H243   H     0.06830   0.43640   0.28760   0.00000  Uiso   1.00
C244   C     0.16898   0.31510   0.36750   0.00000  Uiso   1.00
C245   C     0.93553   0.45840   0.30014   0.00000  Uiso   1.00
C246   C     0.91923   0.53150   0.27583   0.00000  Uiso   1.00
H247   H     0.93140   0.57690   0.27080   0.00000  Uiso   1.00
O248   O     0.25515   0.26289   0.40990   0.00000  Uiso   1.00
C249   C     0.86407   0.43140   0.86010   0.00000  Uiso   1.00
C250   C     0.84406   0.48400   0.87095   0.00000  Uiso   1.00
H251   H     0.82120   0.47220   0.85810   0.00000  Uiso   1.00
C252   C     0.85686   0.55340   0.90015   0.00000  Uiso   1.00
C253   C     0.89044   0.56890   0.91977   0.00000  Uiso   1.00
H254   H     0.89950   0.61410   0.94110   0.00000  Uiso   1.00
C255   C     0.91109   0.51880   0.90857   0.00000  Uiso   1.00
C256   C     0.89722   0.45060   0.87846   0.00000  Uiso   1.00
H257   H     0.91090   0.41640   0.87030   0.00000  Uiso   1.00
C258   C     0.85003   0.35420   0.83018   0.00000  Uiso   1.00
C259   C     0.86772   0.27540   0.83800   0.00000  Uiso   1.00
H260   H     0.88910   0.27170   0.86190   0.00000  Uiso   1.00
C261   C     0.85462   0.20290   0.81155   0.00000  Uiso   1.00
H262   H     0.86710   0.14980   0.81740   0.00000  Uiso   1.00
C263   C     0.82327   0.20570   0.77619   0.00000  Uiso   1.00
C264   C     0.80629   0.28550   0.76804   0.00000  Uiso   1.00
H265   H     0.78530   0.29000   0.74370   0.00000  Uiso   1.00
C266   C     0.81931   0.35790   0.79459   0.00000  Uiso   1.00
H267   H     0.80700   0.41140   0.78840   0.00000  Uiso   1.00
C268   C     0.80872   0.12590   0.74904   0.00000  Uiso   1.00
C269   C     0.82845   0.06160   0.74371   0.00000  Uiso   1.00
H270   H     0.85150   0.07000   0.75700   0.00000  Uiso   1.00
C271   C     0.81528   0.98670   0.71969   0.00000  Uiso   1.00
H272   H     0.82920   0.94360   0.71670   0.00000  Uiso   1.00
C273   C     0.78150   0.97320   0.69949   0.00000  Uiso   1.00
C274   C     0.76160   0.03630   0.70431   0.00000  Uiso   1.00
H275   H     0.73850   0.02770   0.69070   0.00000  Uiso   1.00
C276   C     0.77490   0.11190   0.72878   0.00000  Uiso   1.00
H277   H     0.76090   0.15470   0.73180   0.00000  Uiso   1.00
C278   C     0.76741   0.89220   0.67265   0.00000  Uiso   1.00
O279   O     0.78752   0.83450   0.67289   0.00000  Uiso   1.00
O280   O     0.73690   0.88601   0.65294   0.00000  Uiso   1.00
C281   C     0.83484   0.61420   0.90868   0.00000  Uiso   1.00
C282   C     0.81204   0.66340   0.87383   0.00000  Uiso   1.00
H283   H     0.80940   0.65330   0.84530   0.00000  Uiso   1.00
C284   C     0.79340   0.72670   0.88093   0.00000  Uiso   1.00
H285   H     0.77820   0.76060   0.85710   0.00000  Uiso   1.00
C286   C     0.79629   0.74210   0.92217   0.00000  Uiso   1.00
C287   C     0.81805   0.68920   0.95616   0.00000  Uiso   1.00
H288   H     0.81970   0.69600   0.98440   0.00000  Uiso   1.00
C289   C     0.83724   0.62710   0.94935   0.00000  Uiso   1.00
H290   H     0.85230   0.59280   0.97310   0.00000  Uiso   1.00
C291   C     0.77737   0.81470   0.92929   0.00000  Uiso   1.00
C292   C     0.76470   0.80670   0.95900   0.00000  Uiso   1.00
H293   H     0.76700   0.75230   0.97400   0.00000  Uiso   1.00
C294   C     0.74877   0.87750   0.96657   0.00000  Uiso   1.00
H295   H     0.74010   0.87130   0.98660   0.00000  Uiso   1.00
C296   C     0.74545   0.95700   0.94524   0.00000  Uiso   1.00
C297   C     0.75729   0.96460   0.91509   0.00000  Uiso   1.00
H298   H     0.75460   0.01860   0.89970   0.00000  Uiso   1.00
C299   C     0.77293   0.89380   0.90731   0.00000  Uiso   1.00
H300   H     0.78080   0.89980   0.88640   0.00000  Uiso   1.00
C301   C     0.73099   0.03560   0.95619   0.00000  Uiso   1.00
O302   O     0.71380   0.02156   0.97551   0.00000  Uiso   1.00
O303   O     0.73744   0.10997   0.94663   0.00000  Uiso   1.00
C304   C     0.94662   0.53940   0.92746   0.00000  Uiso   1.00
C305   C     0.95901   0.62290   0.94184   0.00000  Uiso   1.00
H306   H     0.94440   0.66960   0.93970   0.00000  Uiso   1.00
C307   C     0.99228   0.64040   0.95930   0.00000  Uiso   1.00
H308   H     0.00010   0.69860   0.96930   0.00000  Uiso   1.00
C309   C     0.01431   0.57520   0.96257   0.00000  Uiso   1.00
C310   C     0.00207   0.49030   0.94884   0.00000  Uiso   1.00
H311   H     0.01680   0.44390   0.95120   0.00000  Uiso   1.00
C312   C     0.96901   0.47200   0.93179   0.00000  Uiso   1.00
H313   H     0.96140   0.41330   0.92300   0.00000  Uiso   1.00
C314   C     0.05005   0.59300   0.98058   0.00000  Uiso   1.00
C315   C     0.06650   0.65090   0.01446   0.00000  Uiso   1.00
H316   H     0.05460   0.68280   0.02630   0.00000  Uiso   1.00
C317   C     0.10020   0.66390   0.03171   0.00000  Uiso   1.00
H318   H     0.11120   0.70270   0.05570   0.00000  Uiso   1.00
C319   C     0.11748   0.61990   0.01373   0.00000  Uiso   1.00
C320   C     0.10134   0.56100   0.97981   0.00000  Uiso   1.00
H321   H     0.11320   0.53060   0.96750   0.00000  Uiso   1.00
C322   C     0.06799   0.54600   0.96356   0.00000  Uiso   1.00
H323   H     0.05730   0.50390   0.94100   0.00000  Uiso   1.00
C324   C     0.15317   0.63450   0.02963   0.00000  Uiso   1.00
O325   O     0.16934   0.66852   0.06643   0.00000  Uiso   1.00
O326   O     0.16411   0.60976   0.00390   0.00000  Uiso   1.00
H327   H     0.75515   0.17078   0.90990   0.00000  Uiso   1.00
H328   H     0.71990   0.70000   0.49892   0.00000  Uiso   1.00
Zn329  Zn    0.79280   0.61749   0.49181   0.00000  Uiso   1.00
Zn330  Zn    0.27980   0.78598   0.14945   0.00000  Uiso   1.00
Zn331  Zn    0.71417   0.19708   0.10531   0.00000  Uiso   1.00
Zn332  Zn    0.73122   0.75012   0.44950   0.00000  Uiso   1.00
O333   O     0.78010   0.73367   0.50108   0.00000  Uiso   1.00
C334   C     0.61470   0.04010   0.24152   0.00000  Uiso   1.00
C335   C     0.63220   0.97440   0.23243   0.00000  Uiso   1.00
H336   H     0.65520   0.98020   0.24350   0.00000  Uiso   1.00
C337   C     0.61651   0.90120   0.20758   0.00000  Uiso   1.00
C338   C     0.58256   0.89380   0.19183   0.00000  Uiso   1.00
H339   H     0.57160   0.84310   0.17520   0.00000  Uiso   1.00
O340   O     0.31562   0.76485   0.10114   0.00000  Uiso   1.00
O341   O     0.32088   0.83985   0.15941   0.00000  Uiso   1.00
C342   C     0.63188   0.11610   0.26996   0.00000  Uiso   1.00
C343   C     0.61706   0.19940   0.26298   0.00000  Uiso   1.00
H344   H     0.59590   0.20800   0.23920   0.00000  Uiso   1.00
C345   C     0.63299   0.27030   0.29057   0.00000  Uiso   1.00
H346   H     0.62250   0.32640   0.28540   0.00000  Uiso   1.00
C347   C     0.66396   0.26000   0.32554   0.00000  Uiso   1.00
C348   C     0.67885   0.17630   0.33309   0.00000  Uiso   1.00
H349   H     0.69990   0.16770   0.35690   0.00000  Uiso   1.00
C350   C     0.66286   0.10610   0.30582   0.00000  Uiso   1.00
H351   H     0.67310   0.04960   0.31150   0.00000  Uiso   1.00
C352   C     0.68182   0.33740   0.35269   0.00000  Uiso   1.00
C353   C     0.66561   0.40480   0.36265   0.00000  Uiso   1.00
H354   H     0.64270   0.40050   0.35320   0.00000  Uiso   1.00
C355   C     0.68279   0.47830   0.38631   0.00000  Uiso   1.00
H356   H     0.67150   0.52450   0.39260   0.00000  Uiso   1.00
C357   C     0.71640   0.48490   0.40093   0.00000  Uiso   1.00
C358   C     0.73270   0.41790   0.39108   0.00000  Uiso   1.00
H359   H     0.75560   0.42230   0.40060   0.00000  Uiso   1.00
C360   C     0.71547   0.34460   0.36740   0.00000  Uiso   1.00
H361   H     0.72680   0.29870   0.36110   0.00000  Uiso   1.00
C362   C     0.73514   0.56330   0.42618   0.00000  Uiso   1.00
O363   O     0.72110   0.61585   0.44044   0.00000  Uiso   1.00
O364   O     0.76454   0.57245   0.43262   0.00000  Uiso   1.00
C365   C     0.63497   0.82870   0.19864   0.00000  Uiso   1.00
C366   C     0.66676   0.80650   0.22925   0.00000  Uiso   1.00
H367   H     0.67770   0.84140   0.25470   0.00000  Uiso   1.00
C368   C     0.68260   0.73280   0.22252   0.00000  Uiso   1.00
H369   H     0.70420   0.71840   0.24380   0.00000  Uiso   1.00
C370   C     0.66752   0.68100   0.18582   0.00000  Uiso   1.00
C371   C     0.63605   0.70610   0.15437   0.00000  Uiso   1.00
H372   H     0.62540   0.67280   0.12820   0.00000  Uiso   1.00
C373   C     0.62030   0.77880   0.16101   0.00000  Uiso   1.00
H374   H     0.59900   0.79460   0.13920   0.00000  Uiso   1.00
C375   C     0.68316   0.59980   0.17891   0.00000  Uiso   1.00
C376   C     0.71698   0.59070   0.19821   0.00000  Uiso   1.00
H377   H     0.73050   0.63680   0.21620   0.00000  Uiso   1.00
C378   C     0.73134   0.51480   0.19149   0.00000  Uiso   1.00
H379   H     0.75450   0.50990   0.20440   0.00000  Uiso   1.00
C380   C     0.71162   0.44590   0.16567   0.00000  Uiso   1.00
C381   C     0.67801   0.45460   0.14725   0.00000  Uiso   1.00
H382   H     0.66440   0.40770   0.13000   0.00000  Uiso   1.00
C383   C     0.66387   0.53000   0.15349   0.00000  Uiso   1.00
H384   H     0.64070   0.53480   0.14040   0.00000  Uiso   1.00
C385   C     0.72638   0.36380   0.15740   0.00000  Uiso   1.00
O386   O     0.75728   0.36281   0.17273   0.00000  Uiso   1.00
O387   O     0.70680   0.30471   0.13457   0.00000  Uiso   1.00
C388   C     0.52839   0.94540   0.18484   0.00000  Uiso   1.00
C389   C     0.51064   0.88280   0.15573   0.00000  Uiso   1.00
H390   H     0.52070   0.84950   0.14180   0.00000  Uiso   1.00
C391   C     0.47827   0.86540   0.14537   0.00000  Uiso   1.00
H392   H     0.46690   0.82000   0.12500   0.00000  Uiso   1.00
C393   C     0.46221   0.91230   0.16390   0.00000  Uiso   1.00
C394   C     0.47850   0.98140   0.18823   0.00000  Uiso   1.00
H395   H     0.46750   0.02040   0.19870   0.00000  Uiso   1.00
C396   C     0.51125   0.99840   0.19895   0.00000  Uiso   1.00
H397   H     0.52180   0.04830   0.21650   0.00000  Uiso   1.00
C398   C     0.42787   0.88970   0.15509   0.00000  Uiso   1.00
C399   C     0.40606   0.85060   0.11684   0.00000  Uiso   1.00
H400   H     0.41270   0.83900   0.09510   0.00000  Uiso   1.00
C401   C     0.37492   0.82800   0.10920   0.00000  Uiso   1.00
H402   H     0.36040   0.80100   0.08240   0.00000  Uiso   1.00
C403   C     0.36445   0.84430   0.14038   0.00000  Uiso   1.00
C404   C     0.38573   0.88650   0.17829   0.00000  Uiso   1.00
H405   H     0.37870   0.90070   0.19940   0.00000  Uiso   1.00
C406   C     0.41721   0.90830   0.18586   0.00000  Uiso   1.00
H407   H     0.43170   0.93640   0.21240   0.00000  Uiso   1.00
C408   C     0.33102   0.81510   0.13250   0.00000  Uiso   1.00
C409   C     0.56447   0.95840   0.19986   0.00000  Uiso   1.00
C410   C     0.58077   0.03150   0.22417   0.00000  Uiso   1.00
H411   H     0.56860   0.07690   0.22920   0.00000  Uiso   1.00
O412   O     0.24485   0.76289   0.09010   0.00000  Uiso   1.00
C413   C     0.63593   0.93140   0.63990   0.00000  Uiso   1.00
C414   C     0.65594   0.98400   0.62905   0.00000  Uiso   1.00
H415   H     0.67880   0.97220   0.64190   0.00000  Uiso   1.00
C416   C     0.64314   0.05340   0.59985   0.00000  Uiso   1.00
C417   C     0.60956   0.06890   0.58023   0.00000  Uiso   1.00
H418   H     0.60050   0.11410   0.55890   0.00000  Uiso   1.00
C419   C     0.58891   0.01880   0.59143   0.00000  Uiso   1.00
C420   C     0.60278   0.95060   0.62154   0.00000  Uiso   1.00
H421   H     0.58910   0.91640   0.62970   0.00000  Uiso   1.00
C422   C     0.64997   0.85420   0.66982   0.00000  Uiso   1.00
C423   C     0.63228   0.77540   0.66200   0.00000  Uiso   1.00
H424   H     0.61090   0.77170   0.63810   0.00000  Uiso   1.00
C425   C     0.64538   0.70290   0.68845   0.00000  Uiso   1.00
H426   H     0.63290   0.64980   0.68260   0.00000  Uiso   1.00
C427   C     0.67673   0.70570   0.72381   0.00000  Uiso   1.00
C428   C     0.69371   0.78550   0.73196   0.00000  Uiso   1.00
H429   H     0.71470   0.79000   0.75630   0.00000  Uiso   1.00
C430   C     0.68069   0.85790   0.70541   0.00000  Uiso   1.00
H431   H     0.69300   0.91140   0.71160   0.00000  Uiso   1.00
C432   C     0.69128   0.62590   0.75096   0.00000  Uiso   1.00
C433   C     0.67155   0.56160   0.75629   0.00000  Uiso   1.00
H434   H     0.64850   0.57000   0.74300   0.00000  Uiso   1.00
C435   C     0.68472   0.48670   0.78031   0.00000  Uiso   1.00
H436   H     0.67080   0.44360   0.78330   0.00000  Uiso   1.00
C437   C     0.71850   0.47320   0.80051   0.00000  Uiso   1.00
C438   C     0.73840   0.53630   0.79569   0.00000  Uiso   1.00
H439   H     0.76150   0.52770   0.80930   0.00000  Uiso   1.00
C440   C     0.72510   0.61190   0.77122   0.00000  Uiso   1.00
H441   H     0.73910   0.65470   0.76820   0.00000  Uiso   1.00
C442   C     0.73259   0.39220   0.82735   0.00000  Uiso   1.00
O443   O     0.71248   0.33450   0.82711   0.00000  Uiso   1.00
O444   O     0.76310   0.38601   0.84706   0.00000  Uiso   1.00
C445   C     0.66516   0.11420   0.59132   0.00000  Uiso   1.00
C446   C     0.68796   0.16340   0.62617   0.00000  Uiso   1.00
H447   H     0.69060   0.15330   0.65470   0.00000  Uiso   1.00
C448   C     0.70660   0.22670   0.61907   0.00000  Uiso   1.00
H449   H     0.72180   0.26060   0.64290   0.00000  Uiso   1.00
C450   C     0.70371   0.24210   0.57783   0.00000  Uiso   1.00
C451   C     0.68195   0.18920   0.54384   0.00000  Uiso   1.00
H452   H     0.68030   0.19600   0.51560   0.00000  Uiso   1.00
C453   C     0.66276   0.12710   0.55065   0.00000  Uiso   1.00
H454   H     0.64770   0.09280   0.52690   0.00000  Uiso   1.00
C455   C     0.72263   0.31470   0.57071   0.00000  Uiso   1.00
C456   C     0.73530   0.30670   0.54100   0.00000  Uiso   1.00
H457   H     0.73300   0.25230   0.52600   0.00000  Uiso   1.00
C458   C     0.75123   0.37750   0.53343   0.00000  Uiso   1.00
H459   H     0.75990   0.37130   0.51340   0.00000  Uiso   1.00
C460   C     0.75455   0.45700   0.55476   0.00000  Uiso   1.00
C461   C     0.74271   0.46460   0.58491   0.00000  Uiso   1.00
H462   H     0.74540   0.51860   0.60030   0.00000  Uiso   1.00
C463   C     0.72707   0.39380   0.59269   0.00000  Uiso   1.00
H464   H     0.71920   0.39980   0.61360   0.00000  Uiso   1.00
C465   C     0.76901   0.53560   0.54381   0.00000  Uiso   1.00
O466   O     0.78620   0.52156   0.52449   0.00000  Uiso   1.00
O467   O     0.76256   0.60997   0.55337   0.00000  Uiso   1.00
C468   C     0.55338   0.03940   0.57254   0.00000  Uiso   1.00
C469   C     0.54099   0.12290   0.55816   0.00000  Uiso   1.00
H470   H     0.55560   0.16960   0.56030   0.00000  Uiso   1.00
C471   C     0.50772   0.14040   0.54070   0.00000  Uiso   1.00
H472   H     0.49990   0.19860   0.53070   0.00000  Uiso   1.00
C473   C     0.48569   0.07520   0.53743   0.00000  Uiso   1.00
C474   C     0.49793   0.99030   0.55116   0.00000  Uiso   1.00
H475   H     0.48320   0.94390   0.54880   0.00000  Uiso   1.00
C476   C     0.53099   0.97200   0.56821   0.00000  Uiso   1.00
H477   H     0.53860   0.91330   0.57700   0.00000  Uiso   1.00
C478   C     0.44995   0.09300   0.51942   0.00000  Uiso   1.00
C479   C     0.43350   0.15090   0.48554   0.00000  Uiso   1.00
H480   H     0.44540   0.18280   0.47370   0.00000  Uiso   1.00
C481   C     0.39980   0.16390   0.46829   0.00000  Uiso   1.00
H482   H     0.38880   0.20270   0.44430   0.00000  Uiso   1.00
C483   C     0.38252   0.11990   0.48627   0.00000  Uiso   1.00
C484   C     0.39866   0.06100   0.52019   0.00000  Uiso   1.00
H485   H     0.38680   0.03060   0.53250   0.00000  Uiso   1.00
C486   C     0.43201   0.04600   0.53644   0.00000  Uiso   1.00
H487   H     0.44270   0.00390   0.55900   0.00000  Uiso   1.00
C488   C     0.34683   0.13450   0.47037   0.00000  Uiso   1.00
O489   O     0.33066   0.16852   0.43357   0.00000  Uiso   1.00
O490   O     0.33589   0.10976   0.49610   0.00000  Uiso   1.00
H491   H     0.74485   0.67078   0.59010   0.00000  Uiso   1.00
H492   H     0.78010   0.20000   0.00108   0.00000  Uiso   1.00
Zn493  Zn    0.29280   0.11749   0.49181   0.00000  Uiso   1.00
Zn494  Zn    0.77980   0.28598   0.14945   0.00000  Uiso   1.00
Zn495  Zn    0.21417   0.69708   0.10531   0.00000  Uiso   1.00
Zn496  Zn    0.23122   0.25012   0.44950   0.00000  Uiso   1.00
O497   O     0.28010   0.23367   0.50108   0.00000  Uiso   1.00
C498   C     0.11470   0.54010   0.24152   0.00000  Uiso   1.00
C499   C     0.13220   0.47440   0.23243   0.00000  Uiso   1.00
H500   H     0.15520   0.48020   0.24350   0.00000  Uiso   1.00
C501   C     0.11651   0.40120   0.20758   0.00000  Uiso   1.00
C502   C     0.08256   0.39380   0.19183   0.00000  Uiso   1.00
H503   H     0.07160   0.34310   0.17520   0.00000  Uiso   1.00
O504   O     0.81562   0.26485   0.10114   0.00000  Uiso   1.00
O505   O     0.82088   0.33985   0.15941   0.00000  Uiso   1.00
C506   C     0.13188   0.61610   0.26996   0.00000  Uiso   1.00
C507   C     0.11706   0.69940   0.26298   0.00000  Uiso   1.00
H508   H     0.09590   0.70800   0.23920   0.00000  Uiso   1.00
C509   C     0.13299   0.77030   0.29057   0.00000  Uiso   1.00
H510   H     0.12250   0.82640   0.28540   0.00000  Uiso   1.00
C511   C     0.16396   0.76000   0.32554   0.00000  Uiso   1.00
C512   C     0.17885   0.67630   0.33309   0.00000  Uiso   1.00
H513   H     0.19990   0.66770   0.35690   0.00000  Uiso   1.00
C514   C     0.16286   0.60610   0.30582   0.00000  Uiso   1.00
H515   H     0.17310   0.54960   0.31150   0.00000  Uiso   1.00
C516   C     0.18182   0.83740   0.35269   0.00000  Uiso   1.00
C517   C     0.16561   0.90480   0.36265   0.00000  Uiso   1.00
H518   H     0.14270   0.90050   0.35320   0.00000  Uiso   1.00
C519   C     0.18279   0.97830   0.38631   0.00000  Uiso   1.00
H520   H     0.17150   0.02450   0.39260   0.00000  Uiso   1.00
C521   C     0.21640   0.98490   0.40093   0.00000  Uiso   1.00
C522   C     0.23270   0.91790   0.39108   0.00000  Uiso   1.00
H523   H     0.25560   0.92230   0.40060   0.00000  Uiso   1.00
C524   C     0.21547   0.84460   0.36740   0.00000  Uiso   1.00
H525   H     0.22680   0.79870   0.36110   0.00000  Uiso   1.00
C526   C     0.23514   0.06330   0.42618   0.00000  Uiso   1.00
O527   O     0.22110   0.11585   0.44044   0.00000  Uiso   1.00
O528   O     0.26454   0.07245   0.43262   0.00000  Uiso   1.00
C529   C     0.13497   0.32870   0.19864   0.00000  Uiso   1.00
C530   C     0.16676   0.30650   0.22925   0.00000  Uiso   1.00
H531   H     0.17770   0.34140   0.25470   0.00000  Uiso   1.00
C532   C     0.18260   0.23280   0.22252   0.00000  Uiso   1.00
H533   H     0.20420   0.21840   0.24380   0.00000  Uiso   1.00
C534   C     0.16752   0.18100   0.18582   0.00000  Uiso   1.00
C535   C     0.13605   0.20610   0.15437   0.00000  Uiso   1.00
H536   H     0.12540   0.17280   0.12820   0.00000  Uiso   1.00
C537   C     0.12030   0.27880   0.16101   0.00000  Uiso   1.00
H538   H     0.09900   0.29460   0.13920   0.00000  Uiso   1.00
C539   C     0.18316   0.09980   0.17891   0.00000  Uiso   1.00
C540   C     0.21698   0.09070   0.19821   0.00000  Uiso   1.00
H541   H     0.23050   0.13680   0.21620   0.00000  Uiso   1.00
C542   C     0.23134   0.01480   0.19149   0.00000  Uiso   1.00
H543   H     0.25450   0.00990   0.20440   0.00000  Uiso   1.00
C544   C     0.21162   0.94590   0.16567   0.00000  Uiso   1.00
C545   C     0.17801   0.95460   0.14725   0.00000  Uiso   1.00
H546   H     0.16440   0.90770   0.13000   0.00000  Uiso   1.00
C547   C     0.16387   0.03000   0.15349   0.00000  Uiso   1.00
H548   H     0.14070   0.03480   0.14040   0.00000  Uiso   1.00
C549   C     0.22638   0.86380   0.15740   0.00000  Uiso   1.00
O550   O     0.25728   0.86281   0.17273   0.00000  Uiso   1.00
O551   O     0.20680   0.80471   0.13457   0.00000  Uiso   1.00
C552   C     0.02839   0.44540   0.18484   0.00000  Uiso   1.00
C553   C     0.01064   0.38280   0.15573   0.00000  Uiso   1.00
H554   H     0.02070   0.34950   0.14180   0.00000  Uiso   1.00
C555   C     0.97827   0.36540   0.14537   0.00000  Uiso   1.00
H556   H     0.96690   0.32000   0.12500   0.00000  Uiso   1.00
C557   C     0.96221   0.41230   0.16390   0.00000  Uiso   1.00
C558   C     0.97850   0.48140   0.18823   0.00000  Uiso   1.00
H559   H     0.96750   0.52040   0.19870   0.00000  Uiso   1.00
C560   C     0.01125   0.49840   0.19895   0.00000  Uiso   1.00
H561   H     0.02180   0.54830   0.21650   0.00000  Uiso   1.00
C562   C     0.92787   0.38970   0.15509   0.00000  Uiso   1.00
C563   C     0.90606   0.35060   0.11684   0.00000  Uiso   1.00
H564   H     0.91270   0.33900   0.09510   0.00000  Uiso   1.00
C565   C     0.87492   0.32800   0.10920   0.00000  Uiso   1.00
H566   H     0.86040   0.30100   0.08240   0.00000  Uiso   1.00
C567   C     0.86445   0.34430   0.14038   0.00000  Uiso   1.00
C568   C     0.88573   0.38650   0.17829   0.00000  Uiso   1.00
H569   H     0.87870   0.40070   0.19940   0.00000  Uiso   1.00
C570   C     0.91721   0.40830   0.18586   0.00000  Uiso   1.00
H571   H     0.93170   0.43640   0.21240   0.00000  Uiso   1.00
C572   C     0.83102   0.31510   0.13250   0.00000  Uiso   1.00
C573   C     0.06447   0.45840   0.19986   0.00000  Uiso   1.00
C574   C     0.08077   0.53150   0.22417   0.00000  Uiso   1.00
H575   H     0.06860   0.57690   0.22920   0.00000  Uiso   1.00
O576   O     0.74485   0.26289   0.09010   0.00000  Uiso   1.00
C577   C     0.13593   0.43140   0.63990   0.00000  Uiso   1.00
C578   C     0.15594   0.48400   0.62905   0.00000  Uiso   1.00
H579   H     0.17880   0.47220   0.64190   0.00000  Uiso   1.00
C580   C     0.14314   0.55340   0.59985   0.00000  Uiso   1.00
C581   C     0.10956   0.56890   0.58023   0.00000  Uiso   1.00
H582   H     0.10050   0.61410   0.55890   0.00000  Uiso   1.00
C583   C     0.08891   0.51880   0.59143   0.00000  Uiso   1.00
C584   C     0.10278   0.45060   0.62154   0.00000  Uiso   1.00
H585   H     0.08910   0.41640   0.62970   0.00000  Uiso   1.00
C586   C     0.14997   0.35420   0.66982   0.00000  Uiso   1.00
C587   C     0.13228   0.27540   0.66200   0.00000  Uiso   1.00
H588   H     0.11090   0.27170   0.63810   0.00000  Uiso   1.00
C589   C     0.14538   0.20290   0.68845   0.00000  Uiso   1.00
H590   H     0.13290   0.14980   0.68260   0.00000  Uiso   1.00
C591   C     0.17673   0.20570   0.72381   0.00000  Uiso   1.00
C592   C     0.19371   0.28550   0.73196   0.00000  Uiso   1.00
H593   H     0.21470   0.29000   0.75630   0.00000  Uiso   1.00
C594   C     0.18069   0.35790   0.70541   0.00000  Uiso   1.00
H595   H     0.19300   0.41140   0.71160   0.00000  Uiso   1.00
C596   C     0.19128   0.12590   0.75096   0.00000  Uiso   1.00
C597   C     0.17155   0.06160   0.75629   0.00000  Uiso   1.00
H598   H     0.14850   0.07000   0.74300   0.00000  Uiso   1.00
C599   C     0.18472   0.98670   0.78031   0.00000  Uiso   1.00
H600   H     0.17080   0.94360   0.78330   0.00000  Uiso   1.00
C601   C     0.21850   0.97320   0.80051   0.00000  Uiso   1.00
C602   C     0.23840   0.03630   0.79569   0.00000  Uiso   1.00
H603   H     0.26150   0.02770   0.80930   0.00000  Uiso   1.00
C604   C     0.22510   0.11190   0.77122   0.00000  Uiso   1.00
H605   H     0.23910   0.15470   0.76820   0.00000  Uiso   1.00
C606   C     0.23259   0.89220   0.82735   0.00000  Uiso   1.00
O607   O     0.21248   0.83450   0.82711   0.00000  Uiso   1.00
O608   O     0.26310   0.88601   0.84706   0.00000  Uiso   1.00
C609   C     0.16516   0.61420   0.59132   0.00000  Uiso   1.00
C610   C     0.18796   0.66340   0.62617   0.00000  Uiso   1.00
H611   H     0.19060   0.65330   0.65470   0.00000  Uiso   1.00
C612   C     0.20660   0.72670   0.61907   0.00000  Uiso   1.00
H613   H     0.22180   0.76060   0.64290   0.00000  Uiso   1.00
C614   C     0.20371   0.74210   0.57783   0.00000  Uiso   1.00
C615   C     0.18195   0.68920   0.54384   0.00000  Uiso   1.00
H616   H     0.18030   0.69600   0.51560   0.00000  Uiso   1.00
C617   C     0.16276   0.62710   0.55065   0.00000  Uiso   1.00
H618   H     0.14770   0.59280   0.52690   0.00000  Uiso   1.00
C619   C     0.22263   0.81470   0.57071   0.00000  Uiso   1.00
C620   C     0.23530   0.80670   0.54100   0.00000  Uiso   1.00
H621   H     0.23300   0.75230   0.52600   0.00000  Uiso   1.00
C622   C     0.25123   0.87750   0.53343   0.00000  Uiso   1.00
H623   H     0.25990   0.87130   0.51340   0.00000  Uiso   1.00
C624   C     0.25455   0.95700   0.55476   0.00000  Uiso   1.00
C625   C     0.24271   0.96460   0.58491   0.00000  Uiso   1.00
H626   H     0.24540   0.01860   0.60030   0.00000  Uiso   1.00
C627   C     0.22707   0.89380   0.59269   0.00000  Uiso   1.00
H628   H     0.21920   0.89980   0.61360   0.00000  Uiso   1.00
C629   C     0.26901   0.03560   0.54381   0.00000  Uiso   1.00
O630   O     0.28620   0.02156   0.52449   0.00000  Uiso   1.00
O631   O     0.26256   0.10997   0.55337   0.00000  Uiso   1.00
C632   C     0.05338   0.53940   0.57254   0.00000  Uiso   1.00
C633   C     0.04099   0.62290   0.55816   0.00000  Uiso   1.00
H634   H     0.05560   0.66960   0.56030   0.00000  Uiso   1.00
C635   C     0.00772   0.64040   0.54070   0.00000  Uiso   1.00
H636   H     0.99990   0.69860   0.53070   0.00000  Uiso   1.00
C637   C     0.98569   0.57520   0.53743   0.00000  Uiso   1.00
C638   C     0.99793   0.49030   0.55116   0.00000  Uiso   1.00
H639   H     0.98320   0.44390   0.54880   0.00000  Uiso   1.00
C640   C     0.03099   0.47200   0.56821   0.00000  Uiso   1.00
H641   H     0.03860   0.41330   0.57700   0.00000  Uiso   1.00
C642   C     0.94995   0.59300   0.51942   0.00000  Uiso   1.00
C643   C     0.93350   0.65090   0.48554   0.00000  Uiso   1.00
H644   H     0.94540   0.68280   0.47370   0.00000  Uiso   1.00
C645   C     0.89980   0.66390   0.46829   0.00000  Uiso   1.00
H646   H     0.88880   0.70270   0.44430   0.00000  Uiso   1.00
C647   C     0.88252   0.61990   0.48627   0.00000  Uiso   1.00
C648   C     0.89866   0.56100   0.52019   0.00000  Uiso   1.00
H649   H     0.88680   0.53060   0.53250   0.00000  Uiso   1.00
C650   C     0.93201   0.54600   0.53644   0.00000  Uiso   1.00
H651   H     0.94270   0.50390   0.55900   0.00000  Uiso   1.00
C652   C     0.84683   0.63450   0.47037   0.00000  Uiso   1.00
O653   O     0.83066   0.66852   0.43357   0.00000  Uiso   1.00
O654   O     0.83589   0.60976   0.49610   0.00000  Uiso   1.00
H655   H     0.24485   0.17078   0.59010   0.00000  Uiso   1.00
H656   H     0.28010   0.70000   0.00108   0.00000  Uiso   1.00
Zn657  Zn    0.79280   0.38251   0.99181   0.00000  Uiso   1.00
Zn658  Zn    0.27980   0.21402   0.64945   0.00000  Uiso   1.00
Zn659  Zn    0.71417   0.80292   0.60531   0.00000  Uiso   1.00
Zn660  Zn    0.73122   0.24988   0.94950   0.00000  Uiso   1.00
O661   O     0.78010   0.26633   0.00108   0.00000  Uiso   1.00
C662   C     0.61470   0.95990   0.74152   0.00000  Uiso   1.00
C663   C     0.63220   0.02560   0.73243   0.00000  Uiso   1.00
H664   H     0.65520   0.01980   0.74350   0.00000  Uiso   1.00
C665   C     0.61651   0.09880   0.70758   0.00000  Uiso   1.00
C666   C     0.58256   0.10620   0.69183   0.00000  Uiso   1.00
H667   H     0.57160   0.15690   0.67520   0.00000  Uiso   1.00
O668   O     0.31562   0.23515   0.60114   0.00000  Uiso   1.00
O669   O     0.32088   0.16015   0.65941   0.00000  Uiso   1.00
C670   C     0.63188   0.88390   0.76996   0.00000  Uiso   1.00
C671   C     0.61706   0.80060   0.76298   0.00000  Uiso   1.00
H672   H     0.59590   0.79200   0.73920   0.00000  Uiso   1.00
C673   C     0.63299   0.72970   0.79057   0.00000  Uiso   1.00
H674   H     0.62250   0.67360   0.78540   0.00000  Uiso   1.00
C675   C     0.66396   0.74000   0.82554   0.00000  Uiso   1.00
C676   C     0.67885   0.82370   0.83309   0.00000  Uiso   1.00
H677   H     0.69990   0.83230   0.85690   0.00000  Uiso   1.00
C678   C     0.66286   0.89390   0.80582   0.00000  Uiso   1.00
H679   H     0.67310   0.95040   0.81150   0.00000  Uiso   1.00
C680   C     0.68182   0.66260   0.85269   0.00000  Uiso   1.00
C681   C     0.66561   0.59520   0.86265   0.00000  Uiso   1.00
H682   H     0.64270   0.59950   0.85320   0.00000  Uiso   1.00
C683   C     0.68279   0.52170   0.88631   0.00000  Uiso   1.00
H684   H     0.67150   0.47550   0.89260   0.00000  Uiso   1.00
C685   C     0.71640   0.51510   0.90093   0.00000  Uiso   1.00
C686   C     0.73270   0.58210   0.89108   0.00000  Uiso   1.00
H687   H     0.75560   0.57770   0.90060   0.00000  Uiso   1.00
C688   C     0.71547   0.65540   0.86740   0.00000  Uiso   1.00
H689   H     0.72680   0.70130   0.86110   0.00000  Uiso   1.00
C690   C     0.73514   0.43670   0.92618   0.00000  Uiso   1.00
O691   O     0.72110   0.38415   0.94044   0.00000  Uiso   1.00
O692   O     0.76454   0.42755   0.93262   0.00000  Uiso   1.00
C693   C     0.63497   0.17130   0.69864   0.00000  Uiso   1.00
C694   C     0.66676   0.19350   0.72925   0.00000  Uiso   1.00
H695   H     0.67770   0.15860   0.75470   0.00000  Uiso   1.00
C696   C     0.68260   0.26720   0.72252   0.00000  Uiso   1.00
H697   H     0.70420   0.28160   0.74380   0.00000  Uiso   1.00
C698   C     0.66752   0.31900   0.68582   0.00000  Uiso   1.00
C699   C     0.63605   0.29390   0.65437   0.00000  Uiso   1.00
H700   H     0.62540   0.32720   0.62820   0.00000  Uiso   1.00
C701   C     0.62030   0.22120   0.66101   0.00000  Uiso   1.00
H702   H     0.59900   0.20540   0.63920   0.00000  Uiso   1.00
C703   C     0.68316   0.40020   0.67891   0.00000  Uiso   1.00
C704   C     0.71698   0.40930   0.69821   0.00000  Uiso   1.00
H705   H     0.73050   0.36320   0.71620   0.00000  Uiso   1.00
C706   C     0.73134   0.48520   0.69149   0.00000  Uiso   1.00
H707   H     0.75450   0.49010   0.70440   0.00000  Uiso   1.00
C708   C     0.71162   0.55410   0.66567   0.00000  Uiso   1.00
C709   C     0.67801   0.54540   0.64725   0.00000  Uiso   1.00
H710   H     0.66440   0.59230   0.63000   0.00000  Uiso   1.00
C711   C     0.66387   0.47000   0.65349   0.00000  Uiso   1.00
H712   H     0.64070   0.46520   0.64040   0.00000  Uiso   1.00
C713   C     0.72638   0.63620   0.65740   0.00000  Uiso   1.00
O714   O     0.75728   0.63719   0.67273   0.00000  Uiso   1.00
O715   O     0.70680   0.69529   0.63457   0.00000  Uiso   1.00
C716   C     0.52839   0.05460   0.68484   0.00000  Uiso   1.00
C717   C     0.51064   0.11720   0.65573   0.00000  Uiso   1.00
H718   H     0.52070   0.15050   0.64180   0.00000  Uiso   1.00
C719   C     0.47827   0.13460   0.64537   0.00000  Uiso   1.00
H720   H     0.46690   0.18000   0.62500   0.00000  Uiso   1.00
C721   C     0.46221   0.08770   0.66390   0.00000  Uiso   1.00
C722   C     0.47850   0.01860   0.68823   0.00000  Uiso   1.00
H723   H     0.46750   0.97960   0.69870   0.00000  Uiso   1.00
C724   C     0.51125   0.00160   0.69895   0.00000  Uiso   1.00
H725   H     0.52180   0.95170   0.71650   0.00000  Uiso   1.00
C726   C     0.42787   0.11030   0.65509   0.00000  Uiso   1.00
C727   C     0.40606   0.14940   0.61684   0.00000  Uiso   1.00
H728   H     0.41270   0.16100   0.59510   0.00000  Uiso   1.00
C729   C     0.37492   0.17200   0.60920   0.00000  Uiso   1.00
H730   H     0.36040   0.19900   0.58240   0.00000  Uiso   1.00
C731   C     0.36445   0.15570   0.64038   0.00000  Uiso   1.00
C732   C     0.38573   0.11350   0.67829   0.00000  Uiso   1.00
H733   H     0.37870   0.09930   0.69940   0.00000  Uiso   1.00
C734   C     0.41721   0.09170   0.68586   0.00000  Uiso   1.00
H735   H     0.43170   0.06360   0.71240   0.00000  Uiso   1.00
C736   C     0.33102   0.18490   0.63250   0.00000  Uiso   1.00
C737   C     0.56447   0.04160   0.69986   0.00000  Uiso   1.00
C738   C     0.58077   0.96850   0.72417   0.00000  Uiso   1.00
H739   H     0.56860   0.92310   0.72920   0.00000  Uiso   1.00
O740   O     0.24485   0.23711   0.59010   0.00000  Uiso   1.00
C741   C     0.63593   0.06860   0.13990   0.00000  Uiso   1.00
C742   C     0.65594   0.01600   0.12905   0.00000  Uiso   1.00
H743   H     0.67880   0.02780   0.14190   0.00000  Uiso   1.00
C744   C     0.64314   0.94660   0.09985   0.00000  Uiso   1.00
C745   C     0.60956   0.93110   0.08023   0.00000  Uiso   1.00
H746   H     0.60050   0.88590   0.05890   0.00000  Uiso   1.00
C747   C     0.58891   0.98120   0.09143   0.00000  Uiso   1.00
C748   C     0.60278   0.04940   0.12154   0.00000  Uiso   1.00
H749   H     0.58910   0.08360   0.12970   0.00000  Uiso   1.00
C750   C     0.64997   0.14580   0.16982   0.00000  Uiso   1.00
C751   C     0.63228   0.22460   0.16200   0.00000  Uiso   1.00
H752   H     0.61090   0.22830   0.13810   0.00000  Uiso   1.00
C753   C     0.64538   0.29710   0.18845   0.00000  Uiso   1.00
H754   H     0.63290   0.35020   0.18260   0.00000  Uiso   1.00
C755   C     0.67673   0.29430   0.22381   0.00000  Uiso   1.00
C756   C     0.69371   0.21450   0.23196   0.00000  Uiso   1.00
H757   H     0.71470   0.21000   0.25630   0.00000  Uiso   1.00
C758   C     0.68069   0.14210   0.20541   0.00000  Uiso   1.00
H759   H     0.69300   0.08860   0.21160   0.00000  Uiso   1.00
C760   C     0.69128   0.37410   0.25096   0.00000  Uiso   1.00
C761   C     0.67155   0.43840   0.25629   0.00000  Uiso   1.00
H762   H     0.64850   0.43000   0.24300   0.00000  Uiso   1.00
C763   C     0.68472   0.51330   0.28031   0.00000  Uiso   1.00
H764   H     0.67080   0.55640   0.28330   0.00000  Uiso   1.00
C765   C     0.71850   0.52680   0.30051   0.00000  Uiso   1.00
C766   C     0.73840   0.46370   0.29569   0.00000  Uiso   1.00
H767   H     0.76150   0.47230   0.30930   0.00000  Uiso   1.00
C768   C     0.72510   0.38810   0.27122   0.00000  Uiso   1.00
H769   H     0.73910   0.34530   0.26820   0.00000  Uiso   1.00
C770   C     0.73259   0.60780   0.32735   0.00000  Uiso   1.00
O771   O     0.71248   0.66550   0.32711   0.00000  Uiso   1.00
O772   O     0.76310   0.61399   0.34706   0.00000  Uiso   1.00
C773   C     0.66516   0.88580   0.09132   0.00000  Uiso   1.00
C774   C     0.68796   0.83660   0.12617   0.00000  Uiso   1.00
H775   H     0.69060   0.84670   0.15470   0.00000  Uiso   1.00
C776   C     0.70660   0.77330   0.11907   0.00000  Uiso   1.00
H777   H     0.72180   0.73940   0.14290   0.00000  Uiso   1.00
C778   C     0.70371   0.75790   0.07783   0.00000  Uiso   1.00
C779   C     0.68195   0.81080   0.04384   0.00000  Uiso   1.00
H780   H     0.68030   0.80400   0.01560   0.00000  Uiso   1.00
C781   C     0.66276   0.87290   0.05065   0.00000  Uiso   1.00
H782   H     0.64770   0.90720   0.02690   0.00000  Uiso   1.00
C783   C     0.72263   0.68530   0.07071   0.00000  Uiso   1.00
C784   C     0.73530   0.69330   0.04100   0.00000  Uiso   1.00
H785   H     0.73300   0.74770   0.02600   0.00000  Uiso   1.00
C786   C     0.75123   0.62250   0.03343   0.00000  Uiso   1.00
H787   H     0.75990   0.62870   0.01340   0.00000  Uiso   1.00
C788   C     0.75455   0.54300   0.05476   0.00000  Uiso   1.00
C789   C     0.74271   0.53540   0.08491   0.00000  Uiso   1.00
H790   H     0.74540   0.48140   0.10030   0.00000  Uiso   1.00
C791   C     0.72707   0.60620   0.09269   0.00000  Uiso   1.00
H792   H     0.71920   0.60020   0.11360   0.00000  Uiso   1.00
C793   C     0.76901   0.46440   0.04381   0.00000  Uiso   1.00
O794   O     0.78620   0.47844   0.02449   0.00000  Uiso   1.00
O795   O     0.76256   0.39003   0.05337   0.00000  Uiso   1.00
C796   C     0.55338   0.96060   0.07254   0.00000  Uiso   1.00
C797   C     0.54099   0.87710   0.05816   0.00000  Uiso   1.00
H798   H     0.55560   0.83040   0.06030   0.00000  Uiso   1.00
C799   C     0.50772   0.85960   0.04070   0.00000  Uiso   1.00
H800   H     0.49990   0.80140   0.03070   0.00000  Uiso   1.00
C801   C     0.48569   0.92480   0.03743   0.00000  Uiso   1.00
C802   C     0.49793   0.00970   0.05116   0.00000  Uiso   1.00
H803   H     0.48320   0.05610   0.04880   0.00000  Uiso   1.00
C804   C     0.53099   0.02800   0.06821   0.00000  Uiso   1.00
H805   H     0.53860   0.08670   0.07700   0.00000  Uiso   1.00
C806   C     0.44995   0.90700   0.01942   0.00000  Uiso   1.00
C807   C     0.43350   0.84910   0.98554   0.00000  Uiso   1.00
H808   H     0.44540   0.81720   0.97370   0.00000  Uiso   1.00
C809   C     0.39980   0.83610   0.96829   0.00000  Uiso   1.00
H810   H     0.38880   0.79730   0.94430   0.00000  Uiso   1.00
C811   C     0.38252   0.88010   0.98627   0.00000  Uiso   1.00
C812   C     0.39866   0.93900   0.02019   0.00000  Uiso   1.00
H813   H     0.38680   0.96940   0.03250   0.00000  Uiso   1.00
C814   C     0.43201   0.95400   0.03644   0.00000  Uiso   1.00
H815   H     0.44270   0.99610   0.05900   0.00000  Uiso   1.00
C816   C     0.34683   0.86550   0.97037   0.00000  Uiso   1.00
O817   O     0.33066   0.83148   0.93357   0.00000  Uiso   1.00
O818   O     0.33589   0.89024   0.99610   0.00000  Uiso   1.00
H819   H     0.74485   0.32922   0.09010   0.00000  Uiso   1.00
H820   H     0.78010   0.80000   0.50108   0.00000  Uiso   1.00
Zn821  Zn    0.29280   0.88251   0.99181   0.00000  Uiso   1.00
Zn822  Zn    0.77980   0.71402   0.64945   0.00000  Uiso   1.00
Zn823  Zn    0.21417   0.30292   0.60531   0.00000  Uiso   1.00
Zn824  Zn    0.23122   0.74988   0.94950   0.00000  Uiso   1.00
O825   O     0.28010   0.76633   0.00108   0.00000  Uiso   1.00
C826   C     0.11470   0.45990   0.74152   0.00000  Uiso   1.00
C827   C     0.13220   0.52560   0.73243   0.00000  Uiso   1.00
H828   H     0.15520   0.51980   0.74350   0.00000  Uiso   1.00
C829   C     0.11651   0.59880   0.70758   0.00000  Uiso   1.00
C830   C     0.08256   0.60620   0.69183   0.00000  Uiso   1.00
H831   H     0.07160   0.65690   0.67520   0.00000  Uiso   1.00
O832   O     0.81562   0.73515   0.60114   0.00000  Uiso   1.00
O833   O     0.82088   0.66015   0.65941   0.00000  Uiso   1.00
C834   C     0.13188   0.38390   0.76996   0.00000  Uiso   1.00
C835   C     0.11706   0.30060   0.76298   0.00000  Uiso   1.00
H836   H     0.09590   0.29200   0.73920   0.00000  Uiso   1.00
C837   C     0.13299   0.22970   0.79057   0.00000  Uiso   1.00
H838   H     0.12250   0.17360   0.78540   0.00000  Uiso   1.00
C839   C     0.16396   0.24000   0.82554   0.00000  Uiso   1.00
C840   C     0.17885   0.32370   0.83309   0.00000  Uiso   1.00
H841   H     0.19990   0.33230   0.85690   0.00000  Uiso   1.00
C842   C     0.16286   0.39390   0.80582   0.00000  Uiso   1.00
H843   H     0.17310   0.45040   0.81150   0.00000  Uiso   1.00
C844   C     0.18182   0.16260   0.85269   0.00000  Uiso   1.00
C845   C     0.16561   0.09520   0.86265   0.00000  Uiso   1.00
H846   H     0.14270   0.09950   0.85320   0.00000  Uiso   1.00
C847   C     0.18279   0.02170   0.88631   0.00000  Uiso   1.00
H848   H     0.17150   0.97550   0.89260   0.00000  Uiso   1.00
C849   C     0.21640   0.01510   0.90093   0.00000  Uiso   1.00
C850   C     0.23270   0.08210   0.89108   0.00000  Uiso   1.00
H851   H     0.25560   0.07770   0.90060   0.00000  Uiso   1.00
C852   C     0.21547   0.15540   0.86740   0.00000  Uiso   1.00
H853   H     0.22680   0.20130   0.86110   0.00000  Uiso   1.00
C854   C     0.23514   0.93670   0.92618   0.00000  Uiso   1.00
O855   O     0.22110   0.88415   0.94044   0.00000  Uiso   1.00
O856   O     0.26454   0.92755   0.93262   0.00000  Uiso   1.00
C857   C     0.13497   0.67130   0.69864   0.00000  Uiso   1.00
C858   C     0.16676   0.69350   0.72925   0.00000  Uiso   1.00
H859   H     0.17770   0.65860   0.75470   0.00000  Uiso   1.00
C860   C     0.18260   0.76720   0.72252   0.00000  Uiso   1.00
H861   H     0.20420   0.78160   0.74380   0.00000  Uiso   1.00
C862   C     0.16752   0.81900   0.68582   0.00000  Uiso   1.00
C863   C     0.13605   0.79390   0.65437   0.00000  Uiso   1.00
H864   H     0.12540   0.82720   0.62820   0.00000  Uiso   1.00
C865   C     0.12030   0.72120   0.66101   0.00000  Uiso   1.00
H866   H     0.09900   0.70540   0.63920   0.00000  Uiso   1.00
C867   C     0.18316   0.90020   0.67891   0.00000  Uiso   1.00
C868   C     0.21698   0.90930   0.69821   0.00000  Uiso   1.00
H869   H     0.23050   0.86320   0.71620   0.00000  Uiso   1.00
C870   C     0.23134   0.98520   0.69149   0.00000  Uiso   1.00
H871   H     0.25450   0.99010   0.70440   0.00000  Uiso   1.00
C872   C     0.21162   0.05410   0.66567   0.00000  Uiso   1.00
C873   C     0.17801   0.04540   0.64725   0.00000  Uiso   1.00
H874   H     0.16440   0.09230   0.63000   0.00000  Uiso   1.00
C875   C     0.16387   0.97000   0.65349   0.00000  Uiso   1.00
H876   H     0.14070   0.96520   0.64040   0.00000  Uiso   1.00
C877   C     0.22638   0.13620   0.65740   0.00000  Uiso   1.00
O878   O     0.25728   0.13719   0.67273   0.00000  Uiso   1.00
O879   O     0.20680   0.19529   0.63457   0.00000  Uiso   1.00
C880   C     0.02839   0.55460   0.68484   0.00000  Uiso   1.00
C881   C     0.01064   0.61720   0.65573   0.00000  Uiso   1.00
H882   H     0.02070   0.65050   0.64180   0.00000  Uiso   1.00
C883   C     0.97827   0.63460   0.64537   0.00000  Uiso   1.00
H884   H     0.96690   0.68000   0.62500   0.00000  Uiso   1.00
C885   C     0.96221   0.58770   0.66390   0.00000  Uiso   1.00
C886   C     0.97850   0.51860   0.68823   0.00000  Uiso   1.00
H887   H     0.96750   0.47960   0.69870   0.00000  Uiso   1.00
C888   C     0.01125   0.50160   0.69895   0.00000  Uiso   1.00
H889   H     0.02180   0.45170   0.71650   0.00000  Uiso   1.00
C890   C     0.92787   0.61030   0.65509   0.00000  Uiso   1.00
C891   C     0.90606   0.64940   0.61684   0.00000  Uiso   1.00
H892   H     0.91270   0.66100   0.59510   0.00000  Uiso   1.00
C893   C     0.87492   0.67200   0.60920   0.00000  Uiso   1.00
H894   H     0.86040   0.69900   0.58240   0.00000  Uiso   1.00
C895   C     0.86445   0.65570   0.64038   0.00000  Uiso   1.00
C896   C     0.88573   0.61350   0.67829   0.00000  Uiso   1.00
H897   H     0.87870   0.59930   0.69940   0.00000  Uiso   1.00
C898   C     0.91721   0.59170   0.68586   0.00000  Uiso   1.00
H899   H     0.93170   0.56360   0.71240   0.00000  Uiso   1.00
C900   C     0.83102   0.68490   0.63250   0.00000  Uiso   1.00
C901   C     0.06447   0.54160   0.69986   0.00000  Uiso   1.00
C902   C     0.08077   0.46850   0.72417   0.00000  Uiso   1.00
H903   H     0.06860   0.42310   0.72920   0.00000  Uiso   1.00
O904   O     0.74485   0.73711   0.59010   0.00000  Uiso   1.00
C905   C     0.13593   0.56860   0.13990   0.00000  Uiso   1.00
C906   C     0.15594   0.51600   0.12905   0.00000  Uiso   1.00
H907   H     0.17880   0.52780   0.14190   0.00000  Uiso   1.00
C908   C     0.14314   0.44660   0.09985   0.00000  Uiso   1.00
C909   C     0.10956   0.43110   0.08023   0.00000  Uiso   1.00
H910   H     0.10050   0.38590   0.05890   0.00000  Uiso   1.00
C911   C     0.08891   0.48120   0.09143   0.00000  Uiso   1.00
C912   C     0.10278   0.54940   0.12154   0.00000  Uiso   1.00
H913   H     0.08910   0.58360   0.12970   0.00000  Uiso   1.00
C914   C     0.14997   0.64580   0.16982   0.00000  Uiso   1.00
C915   C     0.13228   0.72460   0.16200   0.00000  Uiso   1.00
H916   H     0.11090   0.72830   0.13810   0.00000  Uiso   1.00
C917   C     0.14538   0.79710   0.18845   0.00000  Uiso   1.00
H918   H     0.13290   0.85020   0.18260   0.00000  Uiso   1.00
C919   C     0.17673   0.79430   0.22381   0.00000  Uiso   1.00
C920   C     0.19371   0.71450   0.23196   0.00000  Uiso   1.00
H921   H     0.21470   0.71000   0.25630   0.00000  Uiso   1.00
C922   C     0.18069   0.64210   0.20541   0.00000  Uiso   1.00
H923   H     0.19300   0.58860   0.21160   0.00000  Uiso   1.00
C924   C     0.19128   0.87410   0.25096   0.00000  Uiso   1.00
C925   C     0.17155   0.93840   0.25629   0.00000  Uiso   1.00
H926   H     0.14850   0.93000   0.24300   0.00000  Uiso   1.00
C927   C     0.18472   0.01330   0.28031   0.00000  Uiso   1.00
H928   H     0.17080   0.05640   0.28330   0.00000  Uiso   1.00
C929   C     0.21850   0.02680   0.30051   0.00000  Uiso   1.00
C930   C     0.23840   0.96370   0.29569   0.00000  Uiso   1.00
H931   H     0.26150   0.97230   0.30930   0.00000  Uiso   1.00
C932   C     0.22510   0.88810   0.27122   0.00000  Uiso   1.00
H933   H     0.23910   0.84530   0.26820   0.00000  Uiso   1.00
C934   C     0.23259   0.10780   0.32735   0.00000  Uiso   1.00
O935   O     0.21248   0.16550   0.32711   0.00000  Uiso   1.00
O936   O     0.26310   0.11399   0.34706   0.00000  Uiso   1.00
C937   C     0.16516   0.38580   0.09132   0.00000  Uiso   1.00
C938   C     0.18796   0.33660   0.12617   0.00000  Uiso   1.00
H939   H     0.19060   0.34670   0.15470   0.00000  Uiso   1.00
C940   C     0.20660   0.27330   0.11907   0.00000  Uiso   1.00
H941   H     0.22180   0.23940   0.14290   0.00000  Uiso   1.00
C942   C     0.20371   0.25790   0.07783   0.00000  Uiso   1.00
C943   C     0.18195   0.31080   0.04384   0.00000  Uiso   1.00
H944   H     0.18030   0.30400   0.01560   0.00000  Uiso   1.00
C945   C     0.16276   0.37290   0.05065   0.00000  Uiso   1.00
H946   H     0.14770   0.40720   0.02690   0.00000  Uiso   1.00
C947   C     0.22263   0.18530   0.07071   0.00000  Uiso   1.00
C948   C     0.23530   0.19330   0.04100   0.00000  Uiso   1.00
H949   H     0.23300   0.24770   0.02600   0.00000  Uiso   1.00
C950   C     0.25123   0.12250   0.03343   0.00000  Uiso   1.00
H951   H     0.25990   0.12870   0.01340   0.00000  Uiso   1.00
C952   C     0.25455   0.04300   0.05476   0.00000  Uiso   1.00
C953   C     0.24271   0.03540   0.08491   0.00000  Uiso   1.00
H954   H     0.24540   0.98140   0.10030   0.00000  Uiso   1.00
C955   C     0.22707   0.10620   0.09269   0.00000  Uiso   1.00
H956   H     0.21920   0.10020   0.11360   0.00000  Uiso   1.00
C957   C     0.26901   0.96440   0.04381   0.00000  Uiso   1.00
O958   O     0.28620   0.97844   0.02449   0.00000  Uiso   1.00
O959   O     0.26256   0.89003   0.05337   0.00000  Uiso   1.00
C960   C     0.05338   0.46060   0.07254   0.00000  Uiso   1.00
C961   C     0.04099   0.37710   0.05816   0.00000  Uiso   1.00
H962   H     0.05560   0.33040   0.06030   0.00000  Uiso   1.00
C963   C     0.00772   0.35960   0.04070   0.00000  Uiso   1.00
H964   H     0.99990   0.30140   0.03070   0.00000  Uiso   1.00
C965   C     0.98569   0.42480   0.03743   0.00000  Uiso   1.00
C966   C     0.99793   0.50970   0.05116   0.00000  Uiso   1.00
H967   H     0.98320   0.55610   0.04880   0.00000  Uiso   1.00
C968   C     0.03099   0.52800   0.06821   0.00000  Uiso   1.00
H969   H     0.03860   0.58670   0.07700   0.00000  Uiso   1.00
C970   C     0.94995   0.40700   0.01942   0.00000  Uiso   1.00
C971   C     0.93350   0.34910   0.98554   0.00000  Uiso   1.00
H972   H     0.94540   0.31720   0.97370   0.00000  Uiso   1.00
C973   C     0.89980   0.33610   0.96829   0.00000  Uiso   1.00
H974   H     0.88880   0.29730   0.94430   0.00000  Uiso   1.00
C975   C     0.88252   0.38010   0.98627   0.00000  Uiso   1.00
C976   C     0.89866   0.43900   0.02019   0.00000  Uiso   1.00
H977   H     0.88680   0.46940   0.03250   0.00000  Uiso   1.00
C978   C     0.93201   0.45400   0.03644   0.00000  Uiso   1.00
H979   H     0.94270   0.49610   0.05900   0.00000  Uiso   1.00
C980   C     0.84683   0.36550   0.97037   0.00000  Uiso   1.00
O981   O     0.83066   0.33148   0.93357   0.00000  Uiso   1.00
O982   O     0.83589   0.39024   0.99610   0.00000  Uiso   1.00
H983   H     0.24485   0.82922   0.09010   0.00000  Uiso   1.00
H984   H     0.28010   0.30000   0.50108   0.00000  Uiso   1.00
Zn985  Zn    0.20720   0.38251   0.50819   0.00000  Uiso   1.00
Zn986  Zn    0.72020   0.21402   0.85055   0.00000  Uiso   1.00
Zn987  Zn    0.28583   0.80292   0.89469   0.00000  Uiso   1.00
Zn988  Zn    0.26878   0.24988   0.55050   0.00000  Uiso   1.00
O989   O     0.21990   0.26633   0.49892   0.00000  Uiso   1.00
C990   C     0.38530   0.95990   0.75848   0.00000  Uiso   1.00
C991   C     0.36780   0.02560   0.76757   0.00000  Uiso   1.00
H992   H     0.34480   0.01980   0.75650   0.00000  Uiso   1.00
C993   C     0.38349   0.09880   0.79242   0.00000  Uiso   1.00
C994   C     0.41744   0.10620   0.80817   0.00000  Uiso   1.00
H995   H     0.42840   0.15690   0.82480   0.00000  Uiso   1.00
O996   O     0.68438   0.23515   0.89886   0.00000  Uiso   1.00
O997   O     0.67912   0.16015   0.84059   0.00000  Uiso   1.00
C998   C     0.36812   0.88390   0.73004   0.00000  Uiso   1.00
C999   C     0.38294   0.80060   0.73702   0.00000  Uiso   1.00
H1000  H     0.40410   0.79200   0.76080   0.00000  Uiso   1.00
C1001  C     0.36701   0.72970   0.70943   0.00000  Uiso   1.00
H1002  H     0.37750   0.67360   0.71460   0.00000  Uiso   1.00
C1003  C     0.33604   0.74000   0.67446   0.00000  Uiso   1.00
C1004  C     0.32115   0.82370   0.66691   0.00000  Uiso   1.00
H1005  H     0.30010   0.83230   0.64310   0.00000  Uiso   1.00
C1006  C     0.33714   0.89390   0.69418   0.00000  Uiso   1.00
H1007  H     0.32690   0.95040   0.68850   0.00000  Uiso   1.00
C1008  C     0.31818   0.66260   0.64731   0.00000  Uiso   1.00
C1009  C     0.33439   0.59520   0.63735   0.00000  Uiso   1.00
H1010  H     0.35730   0.59950   0.64680   0.00000  Uiso   1.00
C1011  C     0.31721   0.52170   0.61369   0.00000  Uiso   1.00
H1012  H     0.32850   0.47550   0.60740   0.00000  Uiso   1.00
C1013  C     0.28360   0.51510   0.59907   0.00000  Uiso   1.00
C1014  C     0.26730   0.58210   0.60892   0.00000  Uiso   1.00
H1015  H     0.24440   0.57770   0.59940   0.00000  Uiso   1.00
C1016  C     0.28453   0.65540   0.63260   0.00000  Uiso   1.00
H1017  H     0.27320   0.70130   0.63890   0.00000  Uiso   1.00
C1018  C     0.26486   0.43670   0.57382   0.00000  Uiso   1.00
O1019  O     0.27890   0.38415   0.55956   0.00000  Uiso   1.00
O1020  O     0.23546   0.42755   0.56738   0.00000  Uiso   1.00
C1021  C     0.36503   0.17130   0.80136   0.00000  Uiso   1.00
C1022  C     0.33324   0.19350   0.77075   0.00000  Uiso   1.00
H1023  H     0.32230   0.15860   0.74530   0.00000  Uiso   1.00
C1024  C     0.31740   0.26720   0.77748   0.00000  Uiso   1.00
H1025  H     0.29580   0.28160   0.75620   0.00000  Uiso   1.00
C1026  C     0.33248   0.31900   0.81418   0.00000  Uiso   1.00
C1027  C     0.36395   0.29390   0.84563   0.00000  Uiso   1.00
H1028  H     0.37460   0.32720   0.87180   0.00000  Uiso   1.00
C1029  C     0.37970   0.22120   0.83899   0.00000  Uiso   1.00
H1030  H     0.40100   0.20540   0.86080   0.00000  Uiso   1.00
C1031  C     0.31684   0.40020   0.82109   0.00000  Uiso   1.00
C1032  C     0.28302   0.40930   0.80179   0.00000  Uiso   1.00
H1033  H     0.26950   0.36320   0.78380   0.00000  Uiso   1.00
C1034  C     0.26866   0.48520   0.80851   0.00000  Uiso   1.00
H1035  H     0.24550   0.49010   0.79560   0.00000  Uiso   1.00
C1036  C     0.28838   0.55410   0.83433   0.00000  Uiso   1.00
C1037  C     0.32199   0.54540   0.85275   0.00000  Uiso   1.00
H1038  H     0.33560   0.59230   0.87000   0.00000  Uiso   1.00
C1039  C     0.33613   0.47000   0.84651   0.00000  Uiso   1.00
H1040  H     0.35930   0.46520   0.85960   0.00000  Uiso   1.00
C1041  C     0.27362   0.63620   0.84260   0.00000  Uiso   1.00
O1042  O     0.24272   0.63719   0.82727   0.00000  Uiso   1.00
O1043  O     0.29320   0.69529   0.86543   0.00000  Uiso   1.00
C1044  C     0.47161   0.05460   0.81516   0.00000  Uiso   1.00
C1045  C     0.48936   0.11720   0.84427   0.00000  Uiso   1.00
H1046  H     0.47930   0.15050   0.85820   0.00000  Uiso   1.00
C1047  C     0.52173   0.13460   0.85463   0.00000  Uiso   1.00
H1048  H     0.53310   0.18000   0.87500   0.00000  Uiso   1.00
C1049  C     0.53779   0.08770   0.83610   0.00000  Uiso   1.00
C1050  C     0.52150   0.01860   0.81177   0.00000  Uiso   1.00
H1051  H     0.53250   0.97960   0.80130   0.00000  Uiso   1.00
C1052  C     0.48875   0.00160   0.80105   0.00000  Uiso   1.00
H1053  H     0.47820   0.95170   0.78350   0.00000  Uiso   1.00
C1054  C     0.57213   0.11030   0.84491   0.00000  Uiso   1.00
C1055  C     0.59394   0.14940   0.88316   0.00000  Uiso   1.00
H1056  H     0.58730   0.16100   0.90490   0.00000  Uiso   1.00
C1057  C     0.62508   0.17200   0.89080   0.00000  Uiso   1.00
H1058  H     0.63960   0.19900   0.91760   0.00000  Uiso   1.00
C1059  C     0.63555   0.15570   0.85962   0.00000  Uiso   1.00
C1060  C     0.61427   0.11350   0.82171   0.00000  Uiso   1.00
H1061  H     0.62130   0.09930   0.80060   0.00000  Uiso   1.00
C1062  C     0.58279   0.09170   0.81414   0.00000  Uiso   1.00
H1063  H     0.56830   0.06360   0.78760   0.00000  Uiso   1.00
C1064  C     0.66898   0.18490   0.86750   0.00000  Uiso   1.00
C1065  C     0.43553   0.04160   0.80014   0.00000  Uiso   1.00
C1066  C     0.41923   0.96850   0.77583   0.00000  Uiso   1.00
H1067  H     0.43140   0.92310   0.77080   0.00000  Uiso   1.00
O1068  O     0.75515   0.23711   0.90990   0.00000  Uiso   1.00
C1069  C     0.36407   0.06860   0.36010   0.00000  Uiso   1.00
C1070  C     0.34406   0.01600   0.37095   0.00000  Uiso   1.00
H1071  H     0.32120   0.02780   0.35810   0.00000  Uiso   1.00
C1072  C     0.35686   0.94660   0.40015   0.00000  Uiso   1.00
C1073  C     0.39044   0.93110   0.41977   0.00000  Uiso   1.00
H1074  H     0.39950   0.88590   0.44110   0.00000  Uiso   1.00
C1075  C     0.41109   0.98120   0.40857   0.00000  Uiso   1.00
C1076  C     0.39722   0.04940   0.37846   0.00000  Uiso   1.00
H1077  H     0.41090   0.08360   0.37030   0.00000  Uiso   1.00
C1078  C     0.35003   0.14580   0.33018   0.00000  Uiso   1.00
C1079  C     0.36772   0.22460   0.33800   0.00000  Uiso   1.00
H1080  H     0.38910   0.22830   0.36190   0.00000  Uiso   1.00
C1081  C     0.35462   0.29710   0.31155   0.00000  Uiso   1.00
H1082  H     0.36710   0.35020   0.31740   0.00000  Uiso   1.00
C1083  C     0.32327   0.29430   0.27619   0.00000  Uiso   1.00
C1084  C     0.30629   0.21450   0.26804   0.00000  Uiso   1.00
H1085  H     0.28530   0.21000   0.24370   0.00000  Uiso   1.00
C1086  C     0.31931   0.14210   0.29459   0.00000  Uiso   1.00
H1087  H     0.30700   0.08860   0.28840   0.00000  Uiso   1.00
C1088  C     0.30872   0.37410   0.24904   0.00000  Uiso   1.00
C1089  C     0.32845   0.43840   0.24371   0.00000  Uiso   1.00
H1090  H     0.35150   0.43000   0.25700   0.00000  Uiso   1.00
C1091  C     0.31528   0.51330   0.21969   0.00000  Uiso   1.00
H1092  H     0.32920   0.55640   0.21670   0.00000  Uiso   1.00
C1093  C     0.28150   0.52680   0.19949   0.00000  Uiso   1.00
C1094  C     0.26160   0.46370   0.20431   0.00000  Uiso   1.00
H1095  H     0.23850   0.47230   0.19070   0.00000  Uiso   1.00
C1096  C     0.27490   0.38810   0.22878   0.00000  Uiso   1.00
H1097  H     0.26090   0.34530   0.23180   0.00000  Uiso   1.00
C1098  C     0.26741   0.60780   0.17265   0.00000  Uiso   1.00
O1099  O     0.28752   0.66550   0.17289   0.00000  Uiso   1.00
O1100  O     0.23690   0.61399   0.15294   0.00000  Uiso   1.00
C1101  C     0.33484   0.88580   0.40868   0.00000  Uiso   1.00
C1102  C     0.31204   0.83660   0.37383   0.00000  Uiso   1.00
H1103  H     0.30940   0.84670   0.34530   0.00000  Uiso   1.00
C1104  C     0.29340   0.77330   0.38093   0.00000  Uiso   1.00
H1105  H     0.27820   0.73940   0.35710   0.00000  Uiso   1.00
C1106  C     0.29629   0.75790   0.42217   0.00000  Uiso   1.00
C1107  C     0.31805   0.81080   0.45616   0.00000  Uiso   1.00
H1108  H     0.31970   0.80400   0.48440   0.00000  Uiso   1.00
C1109  C     0.33724   0.87290   0.44935   0.00000  Uiso   1.00
H1110  H     0.35230   0.90720   0.47310   0.00000  Uiso   1.00
C1111  C     0.27737   0.68530   0.42929   0.00000  Uiso   1.00
C1112  C     0.26470   0.69330   0.45900   0.00000  Uiso   1.00
H1113  H     0.26700   0.74770   0.47400   0.00000  Uiso   1.00
C1114  C     0.24877   0.62250   0.46657   0.00000  Uiso   1.00
H1115  H     0.24010   0.62870   0.48660   0.00000  Uiso   1.00
C1116  C     0.24545   0.54300   0.44524   0.00000  Uiso   1.00
C1117  C     0.25729   0.53540   0.41509   0.00000  Uiso   1.00
H1118  H     0.25460   0.48140   0.39970   0.00000  Uiso   1.00
C1119  C     0.27293   0.60620   0.40731   0.00000  Uiso   1.00
H1120  H     0.28080   0.60020   0.38640   0.00000  Uiso   1.00
C1121  C     0.23099   0.46440   0.45619   0.00000  Uiso   1.00
O1122  O     0.21380   0.47844   0.47551   0.00000  Uiso   1.00
O1123  O     0.23744   0.39003   0.44663   0.00000  Uiso   1.00
C1124  C     0.44662   0.96060   0.42746   0.00000  Uiso   1.00
C1125  C     0.45901   0.87710   0.44184   0.00000  Uiso   1.00
H1126  H     0.44440   0.83040   0.43970   0.00000  Uiso   1.00
C1127  C     0.49228   0.85960   0.45930   0.00000  Uiso   1.00
H1128  H     0.50010   0.80140   0.46930   0.00000  Uiso   1.00
C1129  C     0.51431   0.92480   0.46257   0.00000  Uiso   1.00
C1130  C     0.50207   0.00970   0.44884   0.00000  Uiso   1.00
H1131  H     0.51680   0.05610   0.45120   0.00000  Uiso   1.00
C1132  C     0.46901   0.02800   0.43179   0.00000  Uiso   1.00
H1133  H     0.46140   0.08670   0.42300   0.00000  Uiso   1.00
C1134  C     0.55005   0.90700   0.48058   0.00000  Uiso   1.00
C1135  C     0.56650   0.84910   0.51446   0.00000  Uiso   1.00
H1136  H     0.55460   0.81720   0.52630   0.00000  Uiso   1.00
C1137  C     0.60020   0.83610   0.53171   0.00000  Uiso   1.00
H1138  H     0.61120   0.79730   0.55570   0.00000  Uiso   1.00
C1139  C     0.61748   0.88010   0.51373   0.00000  Uiso   1.00
C1140  C     0.60134   0.93900   0.47981   0.00000  Uiso   1.00
H1141  H     0.61320   0.96940   0.46750   0.00000  Uiso   1.00
C1142  C     0.56799   0.95400   0.46356   0.00000  Uiso   1.00
H1143  H     0.55730   0.99610   0.44100   0.00000  Uiso   1.00
C1144  C     0.65317   0.86550   0.52963   0.00000  Uiso   1.00
O1145  O     0.66934   0.83148   0.56643   0.00000  Uiso   1.00
O1146  O     0.66411   0.89024   0.50390   0.00000  Uiso   1.00
H1147  H     0.25515   0.32922   0.40990   0.00000  Uiso   1.00
H1148  H     0.21990   0.80000   0.99892   0.00000  Uiso   1.00
Zn1149 Zn    0.70720   0.88251   0.50819   0.00000  Uiso   1.00
Zn1150 Zn    0.22020   0.71402   0.85055   0.00000  Uiso   1.00
Zn1151 Zn    0.78583   0.30292   0.89469   0.00000  Uiso   1.00
Zn1152 Zn    0.76878   0.74988   0.55050   0.00000  Uiso   1.00
O1153  O     0.71990   0.76633   0.49892   0.00000  Uiso   1.00
C1154  C     0.88530   0.45990   0.75848   0.00000  Uiso   1.00
C1155  C     0.86780   0.52560   0.76757   0.00000  Uiso   1.00
H1156  H     0.84480   0.51980   0.75650   0.00000  Uiso   1.00
C1157  C     0.88349   0.59880   0.79242   0.00000  Uiso   1.00
C1158  C     0.91744   0.60620   0.80817   0.00000  Uiso   1.00
H1159  H     0.92840   0.65690   0.82480   0.00000  Uiso   1.00
O1160  O     0.18438   0.73515   0.89886   0.00000  Uiso   1.00
O1161  O     0.17912   0.66015   0.84059   0.00000  Uiso   1.00
C1162  C     0.86812   0.38390   0.73004   0.00000  Uiso   1.00
C1163  C     0.88294   0.30060   0.73702   0.00000  Uiso   1.00
H1164  H     0.90410   0.29200   0.76080   0.00000  Uiso   1.00
C1165  C     0.86701   0.22970   0.70943   0.00000  Uiso   1.00
H1166  H     0.87750   0.17360   0.71460   0.00000  Uiso   1.00
C1167  C     0.83604   0.24000   0.67446   0.00000  Uiso   1.00
C1168  C     0.82115   0.32370   0.66691   0.00000  Uiso   1.00
H1169  H     0.80010   0.33230   0.64310   0.00000  Uiso   1.00
C1170  C     0.83714   0.39390   0.69418   0.00000  Uiso   1.00
H1171  H     0.82690   0.45040   0.68850   0.00000  Uiso   1.00
C1172  C     0.81818   0.16260   0.64731   0.00000  Uiso   1.00
C1173  C     0.83439   0.09520   0.63735   0.00000  Uiso   1.00
H1174  H     0.85730   0.09950   0.64680   0.00000  Uiso   1.00
C1175  C     0.81721   0.02170   0.61369   0.00000  Uiso   1.00
H1176  H     0.82850   0.97550   0.60740   0.00000  Uiso   1.00
C1177  C     0.78360   0.01510   0.59907   0.00000  Uiso   1.00
C1178  C     0.76730   0.08210   0.60892   0.00000  Uiso   1.00
H1179  H     0.74440   0.07770   0.59940   0.00000  Uiso   1.00
C1180  C     0.78453   0.15540   0.63260   0.00000  Uiso   1.00
H1181  H     0.77320   0.20130   0.63890   0.00000  Uiso   1.00
C1182  C     0.76486   0.93670   0.57382   0.00000  Uiso   1.00
O1183  O     0.77890   0.88415   0.55956   0.00000  Uiso   1.00
O1184  O     0.73546   0.92755   0.56738   0.00000  Uiso   1.00
C1185  C     0.86503   0.67130   0.80136   0.00000  Uiso   1.00
C1186  C     0.83324   0.69350   0.77075   0.00000  Uiso   1.00
H1187  H     0.82230   0.65860   0.74530   0.00000  Uiso   1.00
C1188  C     0.81740   0.76720   0.77748   0.00000  Uiso   1.00
H1189  H     0.79580   0.78160   0.75620   0.00000  Uiso   1.00
C1190  C     0.83248   0.81900   0.81418   0.00000  Uiso   1.00
C1191  C     0.86395   0.79390   0.84563   0.00000  Uiso   1.00
H1192  H     0.87460   0.82720   0.87180   0.00000  Uiso   1.00
C1193  C     0.87970   0.72120   0.83899   0.00000  Uiso   1.00
H1194  H     0.90100   0.70540   0.86080   0.00000  Uiso   1.00
C1195  C     0.81684   0.90020   0.82109   0.00000  Uiso   1.00
C1196  C     0.78302   0.90930   0.80179   0.00000  Uiso   1.00
H1197  H     0.76950   0.86320   0.78380   0.00000  Uiso   1.00
C1198  C     0.76866   0.98520   0.80851   0.00000  Uiso   1.00
H1199  H     0.74550   0.99010   0.79560   0.00000  Uiso   1.00
C1200  C     0.78838   0.05410   0.83433   0.00000  Uiso   1.00
C1201  C     0.82199   0.04540   0.85275   0.00000  Uiso   1.00
H1202  H     0.83560   0.09230   0.87000   0.00000  Uiso   1.00
C1203  C     0.83613   0.97000   0.84651   0.00000  Uiso   1.00
H1204  H     0.85930   0.96520   0.85960   0.00000  Uiso   1.00
C1205  C     0.77362   0.13620   0.84260   0.00000  Uiso   1.00
O1206  O     0.74272   0.13719   0.82727   0.00000  Uiso   1.00
O1207  O     0.79320   0.19529   0.86543   0.00000  Uiso   1.00
C1208  C     0.97161   0.55460   0.81516   0.00000  Uiso   1.00
C1209  C     0.98936   0.61720   0.84427   0.00000  Uiso   1.00
H1210  H     0.97930   0.65050   0.85820   0.00000  Uiso   1.00
C1211  C     0.02173   0.63460   0.85463   0.00000  Uiso   1.00
H1212  H     0.03310   0.68000   0.87500   0.00000  Uiso   1.00
C1213  C     0.03779   0.58770   0.83610   0.00000  Uiso   1.00
C1214  C     0.02150   0.51860   0.81177   0.00000  Uiso   1.00
H1215  H     0.03250   0.47960   0.80130   0.00000  Uiso   1.00
C1216  C     0.98875   0.50160   0.80105   0.00000  Uiso   1.00
H1217  H     0.97820   0.45170   0.78350   0.00000  Uiso   1.00
C1218  C     0.07213   0.61030   0.84491   0.00000  Uiso   1.00
C1219  C     0.09394   0.64940   0.88316   0.00000  Uiso   1.00
H1220  H     0.08730   0.66100   0.90490   0.00000  Uiso   1.00
C1221  C     0.12508   0.67200   0.89080   0.00000  Uiso   1.00
H1222  H     0.13960   0.69900   0.91760   0.00000  Uiso   1.00
C1223  C     0.13555   0.65570   0.85962   0.00000  Uiso   1.00
C1224  C     0.11427   0.61350   0.82171   0.00000  Uiso   1.00
H1225  H     0.12130   0.59930   0.80060   0.00000  Uiso   1.00
C1226  C     0.08279   0.59170   0.81414   0.00000  Uiso   1.00
H1227  H     0.06830   0.56360   0.78760   0.00000  Uiso   1.00
C1228  C     0.16898   0.68490   0.86750   0.00000  Uiso   1.00
C1229  C     0.93553   0.54160   0.80014   0.00000  Uiso   1.00
C1230  C     0.91923   0.46850   0.77583   0.00000  Uiso   1.00
H1231  H     0.93140   0.42310   0.77080   0.00000  Uiso   1.00
O1232  O     0.25515   0.73711   0.90990   0.00000  Uiso   1.00
C1233  C     0.86407   0.56860   0.36010   0.00000  Uiso   1.00
C1234  C     0.84406   0.51600   0.37095   0.00000  Uiso   1.00
H1235  H     0.82120   0.52780   0.35810   0.00000  Uiso   1.00
C1236  C     0.85686   0.44660   0.40015   0.00000  Uiso   1.00
C1237  C     0.89044   0.43110   0.41977   0.00000  Uiso   1.00
H1238  H     0.89950   0.38590   0.44110   0.00000  Uiso   1.00
C1239  C     0.91109   0.48120   0.40857   0.00000  Uiso   1.00
C1240  C     0.89722   0.54940   0.37846   0.00000  Uiso   1.00
H1241  H     0.91090   0.58360   0.37030   0.00000  Uiso   1.00
C1242  C     0.85003   0.64580   0.33018   0.00000  Uiso   1.00
C1243  C     0.86772   0.72460   0.33800   0.00000  Uiso   1.00
H1244  H     0.88910   0.72830   0.36190   0.00000  Uiso   1.00
C1245  C     0.85462   0.79710   0.31155   0.00000  Uiso   1.00
H1246  H     0.86710   0.85020   0.31740   0.00000  Uiso   1.00
C1247  C     0.82327   0.79430   0.27619   0.00000  Uiso   1.00
C1248  C     0.80629   0.71450   0.26804   0.00000  Uiso   1.00
H1249  H     0.78530   0.71000   0.24370   0.00000  Uiso   1.00
C1250  C     0.81931   0.64210   0.29459   0.00000  Uiso   1.00
H1251  H     0.80700   0.58860   0.28840   0.00000  Uiso   1.00
C1252  C     0.80872   0.87410   0.24904   0.00000  Uiso   1.00
C1253  C     0.82845   0.93840   0.24371   0.00000  Uiso   1.00
H1254  H     0.85150   0.93000   0.25700   0.00000  Uiso   1.00
C1255  C     0.81528   0.01330   0.21969   0.00000  Uiso   1.00
H1256  H     0.82920   0.05640   0.21670   0.00000  Uiso   1.00
C1257  C     0.78150   0.02680   0.19949   0.00000  Uiso   1.00
C1258  C     0.76160   0.96370   0.20431   0.00000  Uiso   1.00
H1259  H     0.73850   0.97230   0.19070   0.00000  Uiso   1.00
C1260  C     0.77490   0.88810   0.22878   0.00000  Uiso   1.00
H1261  H     0.76090   0.84530   0.23180   0.00000  Uiso   1.00
C1262  C     0.76741   0.10780   0.17265   0.00000  Uiso   1.00
O1263  O     0.78752   0.16550   0.17289   0.00000  Uiso   1.00
O1264  O     0.73690   0.11399   0.15294   0.00000  Uiso   1.00
C1265  C     0.83484   0.38580   0.40868   0.00000  Uiso   1.00
C1266  C     0.81204   0.33660   0.37383   0.00000  Uiso   1.00
H1267  H     0.80940   0.34670   0.34530   0.00000  Uiso   1.00
C1268  C     0.79340   0.27330   0.38093   0.00000  Uiso   1.00
H1269  H     0.77820   0.23940   0.35710   0.00000  Uiso   1.00
C1270  C     0.79629   0.25790   0.42217   0.00000  Uiso   1.00
C1271  C     0.81805   0.31080   0.45616   0.00000  Uiso   1.00
H1272  H     0.81970   0.30400   0.48440   0.00000  Uiso   1.00
C1273  C     0.83724   0.37290   0.44935   0.00000  Uiso   1.00
H1274  H     0.85230   0.40720   0.47310   0.00000  Uiso   1.00
C1275  C     0.77737   0.18530   0.42929   0.00000  Uiso   1.00
C1276  C     0.76470   0.19330   0.45900   0.00000  Uiso   1.00
H1277  H     0.76700   0.24770   0.47400   0.00000  Uiso   1.00
C1278  C     0.74877   0.12250   0.46657   0.00000  Uiso   1.00
H1279  H     0.74010   0.12870   0.48660   0.00000  Uiso   1.00
C1280  C     0.74545   0.04300   0.44524   0.00000  Uiso   1.00
C1281  C     0.75729   0.03540   0.41509   0.00000  Uiso   1.00
H1282  H     0.75460   0.98140   0.39970   0.00000  Uiso   1.00
C1283  C     0.77293   0.10620   0.40731   0.00000  Uiso   1.00
H1284  H     0.78080   0.10020   0.38640   0.00000  Uiso   1.00
C1285  C     0.73099   0.96440   0.45619   0.00000  Uiso   1.00
O1286  O     0.71380   0.97844   0.47551   0.00000  Uiso   1.00
O1287  O     0.73744   0.89003   0.44663   0.00000  Uiso   1.00
C1288  C     0.94662   0.46060   0.42746   0.00000  Uiso   1.00
C1289  C     0.95901   0.37710   0.44184   0.00000  Uiso   1.00
H1290  H     0.94440   0.33040   0.43970   0.00000  Uiso   1.00
C1291  C     0.99228   0.35960   0.45930   0.00000  Uiso   1.00
H1292  H     0.00010   0.30140   0.46930   0.00000  Uiso   1.00
C1293  C     0.01431   0.42480   0.46257   0.00000  Uiso   1.00
C1294  C     0.00207   0.50970   0.44884   0.00000  Uiso   1.00
H1295  H     0.01680   0.55610   0.45120   0.00000  Uiso   1.00
C1296  C     0.96901   0.52800   0.43179   0.00000  Uiso   1.00
H1297  H     0.96140   0.58670   0.42300   0.00000  Uiso   1.00
C1298  C     0.05005   0.40700   0.48058   0.00000  Uiso   1.00
C1299  C     0.06650   0.34910   0.51446   0.00000  Uiso   1.00
H1300  H     0.05460   0.31720   0.52630   0.00000  Uiso   1.00
C1301  C     0.10020   0.33610   0.53171   0.00000  Uiso   1.00
H1302  H     0.11120   0.29730   0.55570   0.00000  Uiso   1.00
C1303  C     0.11748   0.38010   0.51373   0.00000  Uiso   1.00
C1304  C     0.10134   0.43900   0.47981   0.00000  Uiso   1.00
H1305  H     0.11320   0.46940   0.46750   0.00000  Uiso   1.00
C1306  C     0.06799   0.45400   0.46356   0.00000  Uiso   1.00
H1307  H     0.05730   0.49610   0.44100   0.00000  Uiso   1.00
C1308  C     0.15317   0.36550   0.52963   0.00000  Uiso   1.00
O1309  O     0.16934   0.33148   0.56643   0.00000  Uiso   1.00
O1310  O     0.16411   0.39024   0.50390   0.00000  Uiso   1.00
H1311  H     0.75515   0.82922   0.40990   0.00000  Uiso   1.00
H1312  H     0.71990   0.30000   0.99892   0.00000  Uiso   1.00
