data_image0
_cell_length_a       47.0072
_cell_length_b       47.0072
_cell_length_c       47.0072
_cell_angle_alpha    90
_cell_angle_beta     90
_cell_angle_gamma    90

_symmetry_space_group_name_H-M    "P 1"
_symmetry_int_tables_number       1

loop_
  _symmetry_equiv_pos_as_xyz
  'x, y, z'

loop_
  _atom_site_label
  _atom_site_occupancy
  _atom_site_fract_x
  _atom_site_fract_y
  _atom_site_fract_z
  _atom_site_thermal_displace_type
  _atom_site_B_iso_or_equiv
  _atom_site_type_symbol
  Cu1      1.0000 0.37669  0.41280  0.52951  Biso   1.000  Cu
  Cu2      1.0000 0.35004  0.47543  0.55795  Biso   1.000  Cu
  N1       1.0000 0.35846  0.47281  0.51647  Biso   1.000  N
  N2       1.0000 0.37086  0.44880  0.50452  Biso   1.000  N
  N3       1.0000 0.39342  0.42807  0.56541  Biso   1.000  N
  N4       1.0000 0.38591  0.45514  0.57553  Biso   1.000  N
  N5       1.0000 0.35839  0.51677  0.40799  Biso   1.000  N
  N6       1.0000 0.38795  0.51573  0.40967  Biso   1.000  N
  C1       1.0000 0.34820  0.50436  0.43064  Biso   1.000  C
  H1       1.0000 0.32900  0.50190  0.43480  Biso   1.000  H
  N7       1.0000 0.37040  0.49569  0.44704  Biso   1.000  N
  C2       1.0000 0.37679  0.45450  0.47806  Biso   1.000  C
  H2       1.0000 0.38520  0.44210  0.46510  Biso   1.000  H
  N8       1.0000 0.48153  0.43822  0.64324  Biso   1.000  N
  N9       1.0000 0.44046  0.43652  0.62232  Biso   1.000  N
  N10      1.0000 0.46175  0.42572  0.66165  Biso   1.000  N
  N11      1.0000 0.42011  0.43877  0.60141  Biso   1.000  N
  C3       1.0000 0.40189  0.46092  0.59725  Biso   1.000  C
  H3       1.0000 0.40110  0.47740  0.60820  Biso   1.000  H
  C4       1.0000 0.43733  0.42510  0.64864  Biso   1.000  C
  H4       1.0000 0.42050  0.41800  0.65620  Biso   1.000  H
  C5       1.0000 0.41405  0.41872  0.58133  Biso   1.000  C
  H5       1.0000 0.42320  0.40130  0.57930  Biso   1.000  H
  C6       1.0000 0.35769  0.49248  0.49719  Biso   1.000  C
  H6       1.0000 0.35080  0.51090  0.49970  Biso   1.000  H
  C7       1.0000 0.39464  0.50334  0.43355  Biso   1.000  C
  H7       1.0000 0.41300  0.50030  0.44020  Biso   1.000  H
  C8       1.0000 0.46810  0.44479  0.61991  Biso   1.000  C
  H8       1.0000 0.47610  0.45370  0.60420  Biso   1.000  H
  N12      1.0000 0.36856  0.48185  0.47271  Biso   1.000  N
  Cu3      1.0000 0.37669  0.91280  0.02951  Biso   1.000  Cu
  Cu4      1.0000 0.35004  0.97543  0.05795  Biso   1.000  Cu
  N13      1.0000 0.35846  0.97281  0.01647  Biso   1.000  N
  N14      1.0000 0.37086  0.94880  0.00452  Biso   1.000  N
  N15      1.0000 0.39342  0.92807  0.06541  Biso   1.000  N
  N16      1.0000 0.38591  0.95514  0.07553  Biso   1.000  N
  N17      1.0000 0.35839  0.01677  0.90799  Biso   1.000  N
  N18      1.0000 0.38795  0.01573  0.90967  Biso   1.000  N
  C9       1.0000 0.34820  0.00436  0.93064  Biso   1.000  C
  H9       1.0000 0.32900  0.00190  0.93480  Biso   1.000  H
  N19      1.0000 0.37040  0.99569  0.94704  Biso   1.000  N
  C10      1.0000 0.37679  0.95450  0.97806  Biso   1.000  C
  H10      1.0000 0.38520  0.94210  0.96510  Biso   1.000  H
  N20      1.0000 0.48153  0.93822  0.14324  Biso   1.000  N
  N21      1.0000 0.44046  0.93652  0.12232  Biso   1.000  N
  N22      1.0000 0.46175  0.92572  0.16165  Biso   1.000  N
  N23      1.0000 0.42011  0.93877  0.10141  Biso   1.000  N
  C11      1.0000 0.40189  0.96092  0.09725  Biso   1.000  C
  H11      1.0000 0.40110  0.97740  0.10820  Biso   1.000  H
  C12      1.0000 0.43733  0.92510  0.14864  Biso   1.000  C
  H12      1.0000 0.42050  0.91800  0.15620  Biso   1.000  H
  C13      1.0000 0.41405  0.91872  0.08133  Biso   1.000  C
  H13      1.0000 0.42320  0.90130  0.07930  Biso   1.000  H
  C14      1.0000 0.35769  0.99248  0.99719  Biso   1.000  C
  H14      1.0000 0.35080  0.01090  0.99970  Biso   1.000  H
  C15      1.0000 0.39464  0.00334  0.93355  Biso   1.000  C
  H15      1.0000 0.41300  0.00030  0.94020  Biso   1.000  H
  C16      1.0000 0.46810  0.94479  0.11991  Biso   1.000  C
  H16      1.0000 0.47610  0.95370  0.10420  Biso   1.000  H
  N24      1.0000 0.36856  0.98185  0.97271  Biso   1.000  N
  Cu5      1.0000 0.87669  0.41280  0.02951  Biso   1.000  Cu
  Cu6      1.0000 0.85004  0.47543  0.05795  Biso   1.000  Cu
  N25      1.0000 0.85846  0.47281  0.01647  Biso   1.000  N
  N26      1.0000 0.87086  0.44880  0.00452  Biso   1.000  N
  N27      1.0000 0.89342  0.42807  0.06541  Biso   1.000  N
  N28      1.0000 0.88591  0.45514  0.07553  Biso   1.000  N
  N29      1.0000 0.85839  0.51677  0.90799  Biso   1.000  N
  N30      1.0000 0.88795  0.51573  0.90967  Biso   1.000  N
  C17      1.0000 0.84820  0.50436  0.93064  Biso   1.000  C
  H17      1.0000 0.82900  0.50190  0.93480  Biso   1.000  H
  N31      1.0000 0.87040  0.49569  0.94704  Biso   1.000  N
  C18      1.0000 0.87679  0.45450  0.97806  Biso   1.000  C
  H18      1.0000 0.88520  0.44210  0.96510  Biso   1.000  H
  N32      1.0000 0.98153  0.43822  0.14324  Biso   1.000  N
  N33      1.0000 0.94046  0.43652  0.12232  Biso   1.000  N
  N34      1.0000 0.96175  0.42572  0.16165  Biso   1.000  N
  N35      1.0000 0.92011  0.43877  0.10141  Biso   1.000  N
  C19      1.0000 0.90189  0.46092  0.09725  Biso   1.000  C
  H19      1.0000 0.90110  0.47740  0.10820  Biso   1.000  H
  C20      1.0000 0.93733  0.42510  0.14864  Biso   1.000  C
  H20      1.0000 0.92050  0.41800  0.15620  Biso   1.000  H
  C21      1.0000 0.91405  0.41872  0.08133  Biso   1.000  C
  H21      1.0000 0.92320  0.40130  0.07930  Biso   1.000  H
  C22      1.0000 0.85769  0.49248  0.99719  Biso   1.000  C
  H22      1.0000 0.85080  0.51090  0.99970  Biso   1.000  H
  C23      1.0000 0.89464  0.50334  0.93355  Biso   1.000  C
  H23      1.0000 0.91300  0.50030  0.94020  Biso   1.000  H
  C24      1.0000 0.96810  0.44479  0.11991  Biso   1.000  C
  H24      1.0000 0.97610  0.45370  0.10420  Biso   1.000  H
  N36      1.0000 0.86856  0.48185  0.97271  Biso   1.000  N
  Cu7      1.0000 0.87669  0.91280  0.52951  Biso   1.000  Cu
  Cu8      1.0000 0.85004  0.97543  0.55795  Biso   1.000  Cu
  N37      1.0000 0.85846  0.97281  0.51647  Biso   1.000  N
  N38      1.0000 0.87086  0.94880  0.50452  Biso   1.000  N
  N39      1.0000 0.89342  0.92807  0.56541  Biso   1.000  N
  N40      1.0000 0.88591  0.95514  0.57553  Biso   1.000  N
  N41      1.0000 0.85839  0.01677  0.40799  Biso   1.000  N
  N42      1.0000 0.88795  0.01573  0.40967  Biso   1.000  N
  C25      1.0000 0.84820  0.00436  0.43064  Biso   1.000  C
  H25      1.0000 0.82900  0.00190  0.43480  Biso   1.000  H
  N43      1.0000 0.87040  0.99569  0.44704  Biso   1.000  N
  C26      1.0000 0.87679  0.95450  0.47806  Biso   1.000  C
  H26      1.0000 0.88520  0.94210  0.46510  Biso   1.000  H
  N44      1.0000 0.98153  0.93822  0.64324  Biso   1.000  N
  N45      1.0000 0.94046  0.93652  0.62232  Biso   1.000  N
  N46      1.0000 0.96175  0.92572  0.66165  Biso   1.000  N
  N47      1.0000 0.92011  0.93877  0.60141  Biso   1.000  N
  C27      1.0000 0.90189  0.96092  0.59725  Biso   1.000  C
  H27      1.0000 0.90110  0.97740  0.60820  Biso   1.000  H
  C28      1.0000 0.93733  0.92510  0.64864  Biso   1.000  C
  H28      1.0000 0.92050  0.91800  0.65620  Biso   1.000  H
  C29      1.0000 0.91405  0.91872  0.58133  Biso   1.000  C
  H29      1.0000 0.92320  0.90130  0.57930  Biso   1.000  H
  C30      1.0000 0.85769  0.99248  0.49719  Biso   1.000  C
  H30      1.0000 0.85080  0.01090  0.49970  Biso   1.000  H
  C31      1.0000 0.89464  0.00334  0.43355  Biso   1.000  C
  H31      1.0000 0.91300  0.00030  0.44020  Biso   1.000  H
  C32      1.0000 0.96810  0.94479  0.61991  Biso   1.000  C
  H32      1.0000 0.97610  0.95370  0.60420  Biso   1.000  H
  N48      1.0000 0.86856  0.98185  0.47271  Biso   1.000  N
  Cu9      1.0000 0.87331  0.33720  0.02951  Biso   1.000  Cu
  Cu10     1.0000 0.89996  0.27457  0.05795  Biso   1.000  Cu
  N49      1.0000 0.89154  0.27719  0.01647  Biso   1.000  N
  N50      1.0000 0.87914  0.30120  0.00452  Biso   1.000  N
  N51      1.0000 0.85658  0.32193  0.06541  Biso   1.000  N
  N52      1.0000 0.86409  0.29486  0.07553  Biso   1.000  N
  N53      1.0000 0.89161  0.23323  0.90799  Biso   1.000  N
  N54      1.0000 0.86205  0.23427  0.90967  Biso   1.000  N
  C33      1.0000 0.90180  0.24564  0.93064  Biso   1.000  C
  H33      1.0000 0.92100  0.24810  0.93480  Biso   1.000  H
  N55      1.0000 0.87960  0.25431  0.94704  Biso   1.000  N
  C34      1.0000 0.87321  0.29550  0.97806  Biso   1.000  C
  H34      1.0000 0.86480  0.30790  0.96510  Biso   1.000  H
  N56      1.0000 0.76847  0.31178  0.14324  Biso   1.000  N
  N57      1.0000 0.80954  0.31348  0.12232  Biso   1.000  N
  N58      1.0000 0.78825  0.32428  0.16165  Biso   1.000  N
  N59      1.0000 0.82989  0.31123  0.10141  Biso   1.000  N
  C35      1.0000 0.84811  0.28908  0.09725  Biso   1.000  C
  H35      1.0000 0.84890  0.27260  0.10820  Biso   1.000  H
  C36      1.0000 0.81267  0.32490  0.14864  Biso   1.000  C
  H36      1.0000 0.82950  0.33200  0.15620  Biso   1.000  H
  C37      1.0000 0.83595  0.33128  0.08133  Biso   1.000  C
  H37      1.0000 0.82680  0.34870  0.07930  Biso   1.000  H
  C38      1.0000 0.89231  0.25752  0.99719  Biso   1.000  C
  H38      1.0000 0.89920  0.23910  0.99970  Biso   1.000  H
  C39      1.0000 0.85536  0.24666  0.93355  Biso   1.000  C
  H39      1.0000 0.83700  0.24970  0.94020  Biso   1.000  H
  C40      1.0000 0.78190  0.30521  0.11991  Biso   1.000  C
  H40      1.0000 0.77390  0.29630  0.10420  Biso   1.000  H
  N60      1.0000 0.88144  0.26815  0.97271  Biso   1.000  N
  Cu11     1.0000 0.87331  0.83720  0.52951  Biso   1.000  Cu
  Cu12     1.0000 0.89996  0.77457  0.55795  Biso   1.000  Cu
  N61      1.0000 0.89154  0.77719  0.51647  Biso   1.000  N
  N62      1.0000 0.87914  0.80120  0.50452  Biso   1.000  N
  N63      1.0000 0.85658  0.82193  0.56541  Biso   1.000  N
  N64      1.0000 0.86409  0.79486  0.57553  Biso   1.000  N
  N65      1.0000 0.89161  0.73323  0.40799  Biso   1.000  N
  N66      1.0000 0.86205  0.73427  0.40967  Biso   1.000  N
  C41      1.0000 0.90180  0.74564  0.43064  Biso   1.000  C
  H41      1.0000 0.92100  0.74810  0.43480  Biso   1.000  H
  N67      1.0000 0.87960  0.75431  0.44704  Biso   1.000  N
  C42      1.0000 0.87321  0.79550  0.47806  Biso   1.000  C
  H42      1.0000 0.86480  0.80790  0.46510  Biso   1.000  H
  N68      1.0000 0.76847  0.81178  0.64324  Biso   1.000  N
  N69      1.0000 0.80954  0.81348  0.62232  Biso   1.000  N
  N70      1.0000 0.78825  0.82428  0.66165  Biso   1.000  N
  N71      1.0000 0.82989  0.81123  0.60141  Biso   1.000  N
  C43      1.0000 0.84811  0.78908  0.59725  Biso   1.000  C
  H43      1.0000 0.84890  0.77260  0.60820  Biso   1.000  H
  C44      1.0000 0.81267  0.82490  0.64864  Biso   1.000  C
  H44      1.0000 0.82950  0.83200  0.65620  Biso   1.000  H
  C45      1.0000 0.83595  0.83128  0.58133  Biso   1.000  C
  H45      1.0000 0.82680  0.84870  0.57930  Biso   1.000  H
  C46      1.0000 0.89231  0.75752  0.49719  Biso   1.000  C
  H46      1.0000 0.89920  0.73910  0.49970  Biso   1.000  H
  C47      1.0000 0.85536  0.74666  0.43355  Biso   1.000  C
  H47      1.0000 0.83700  0.74970  0.44020  Biso   1.000  H
  C48      1.0000 0.78190  0.80521  0.61991  Biso   1.000  C
  H48      1.0000 0.77390  0.79630  0.60420  Biso   1.000  H
  N72      1.0000 0.88144  0.76815  0.47271  Biso   1.000  N
  Cu13     1.0000 0.37331  0.33720  0.52951  Biso   1.000  Cu
  Cu14     1.0000 0.39996  0.27457  0.55795  Biso   1.000  Cu
  N73      1.0000 0.39154  0.27719  0.51647  Biso   1.000  N
  N74      1.0000 0.37914  0.30120  0.50452  Biso   1.000  N
  N75      1.0000 0.35658  0.32193  0.56541  Biso   1.000  N
  N76      1.0000 0.36409  0.29486  0.57553  Biso   1.000  N
  N77      1.0000 0.39161  0.23323  0.40799  Biso   1.000  N
  N78      1.0000 0.36205  0.23427  0.40967  Biso   1.000  N
  C49      1.0000 0.40180  0.24564  0.43064  Biso   1.000  C
  H49      1.0000 0.42100  0.24810  0.43480  Biso   1.000  H
  N79      1.0000 0.37960  0.25431  0.44704  Biso   1.000  N
  C50      1.0000 0.37321  0.29550  0.47806  Biso   1.000  C
  H50      1.0000 0.36480  0.30790  0.46510  Biso   1.000  H
  N80      1.0000 0.26847  0.31178  0.64324  Biso   1.000  N
  N81      1.0000 0.30954  0.31348  0.62232  Biso   1.000  N
  N82      1.0000 0.28825  0.32428  0.66165  Biso   1.000  N
  N83      1.0000 0.32989  0.31123  0.60141  Biso   1.000  N
  C51      1.0000 0.34811  0.28908  0.59725  Biso   1.000  C
  H51      1.0000 0.34890  0.27260  0.60820  Biso   1.000  H
  C52      1.0000 0.31267  0.32490  0.64864  Biso   1.000  C
  H52      1.0000 0.32950  0.33200  0.65620  Biso   1.000  H
  C53      1.0000 0.33595  0.33128  0.58133  Biso   1.000  C
  H53      1.0000 0.32680  0.34870  0.57930  Biso   1.000  H
  C54      1.0000 0.39231  0.25752  0.49719  Biso   1.000  C
  H54      1.0000 0.39920  0.23910  0.49970  Biso   1.000  H
  C55      1.0000 0.35536  0.24666  0.43355  Biso   1.000  C
  H55      1.0000 0.33700  0.24970  0.44020  Biso   1.000  H
  C56      1.0000 0.28190  0.30521  0.61991  Biso   1.000  C
  H56      1.0000 0.27390  0.29630  0.60420  Biso   1.000  H
  N84      1.0000 0.38144  0.26815  0.47271  Biso   1.000  N
  Cu15     1.0000 0.37331  0.83720  0.02951  Biso   1.000  Cu
  Cu16     1.0000 0.39996  0.77457  0.05795  Biso   1.000  Cu
  N85      1.0000 0.39154  0.77719  0.01647  Biso   1.000  N
  N86      1.0000 0.37914  0.80120  0.00452  Biso   1.000  N
  N87      1.0000 0.35658  0.82193  0.06541  Biso   1.000  N
  N88      1.0000 0.36409  0.79486  0.07553  Biso   1.000  N
  N89      1.0000 0.39161  0.73323  0.90799  Biso   1.000  N
  N90      1.0000 0.36205  0.73427  0.90967  Biso   1.000  N
  C57      1.0000 0.40180  0.74564  0.93064  Biso   1.000  C
  H57      1.0000 0.42100  0.74810  0.93480  Biso   1.000  H
  N91      1.0000 0.37960  0.75431  0.94704  Biso   1.000  N
  C58      1.0000 0.37321  0.79550  0.97806  Biso   1.000  C
  H58      1.0000 0.36480  0.80790  0.96510  Biso   1.000  H
  N92      1.0000 0.26847  0.81178  0.14324  Biso   1.000  N
  N93      1.0000 0.30954  0.81348  0.12232  Biso   1.000  N
  N94      1.0000 0.28825  0.82428  0.16165  Biso   1.000  N
  N95      1.0000 0.32989  0.81123  0.10141  Biso   1.000  N
  C59      1.0000 0.34811  0.78908  0.09725  Biso   1.000  C
  H59      1.0000 0.34890  0.77260  0.10820  Biso   1.000  H
  C60      1.0000 0.31267  0.82490  0.14864  Biso   1.000  C
  H60      1.0000 0.32950  0.83200  0.15620  Biso   1.000  H
  C61      1.0000 0.33595  0.83128  0.08133  Biso   1.000  C
  H61      1.0000 0.32680  0.84870  0.07930  Biso   1.000  H
  C62      1.0000 0.39231  0.75752  0.99719  Biso   1.000  C
  H62      1.0000 0.39920  0.73910  0.99970  Biso   1.000  H
  C63      1.0000 0.35536  0.74666  0.93355  Biso   1.000  C
  H63      1.0000 0.33700  0.74970  0.94020  Biso   1.000  H
  C64      1.0000 0.28190  0.80521  0.11991  Biso   1.000  C
  H64      1.0000 0.27390  0.79630  0.10420  Biso   1.000  H
  N96      1.0000 0.38144  0.76815  0.97271  Biso   1.000  N
  Cu17     1.0000 0.37331  0.91280  0.72050  Biso   1.000  Cu
  Cu18     1.0000 0.39996  0.97543  0.69205  Biso   1.000  Cu
  N97      1.0000 0.39154  0.97281  0.73353  Biso   1.000  N
  N98      1.0000 0.37914  0.94880  0.74548  Biso   1.000  N
  N99      1.0000 0.35658  0.92807  0.68459  Biso   1.000  N
  N100     1.0000 0.36409  0.95514  0.67447  Biso   1.000  N
  N101     1.0000 0.39161  0.01677  0.84201  Biso   1.000  N
  N102     1.0000 0.36205  0.01573  0.84033  Biso   1.000  N
  C65      1.0000 0.40180  0.00436  0.81936  Biso   1.000  C
  H65      1.0000 0.42100  0.00190  0.81520  Biso   1.000  H
  N103     1.0000 0.37960  0.99569  0.80296  Biso   1.000  N
  C66      1.0000 0.37321  0.95450  0.77194  Biso   1.000  C
  H66      1.0000 0.36480  0.94210  0.78490  Biso   1.000  H
  N104     1.0000 0.26847  0.93822  0.60676  Biso   1.000  N
  N105     1.0000 0.30954  0.93652  0.62768  Biso   1.000  N
  N106     1.0000 0.28825  0.92572  0.58835  Biso   1.000  N
  N107     1.0000 0.32989  0.93877  0.64859  Biso   1.000  N
  C67      1.0000 0.34811  0.96092  0.65275  Biso   1.000  C
  H67      1.0000 0.34890  0.97740  0.64180  Biso   1.000  H
  C68      1.0000 0.31267  0.92510  0.60136  Biso   1.000  C
  H68      1.0000 0.32950  0.91800  0.59380  Biso   1.000  H
  C69      1.0000 0.33595  0.91872  0.66867  Biso   1.000  C
  H69      1.0000 0.32680  0.90130  0.67070  Biso   1.000  H
  C70      1.0000 0.39231  0.99248  0.75281  Biso   1.000  C
  H70      1.0000 0.39920  0.01090  0.75030  Biso   1.000  H
  C71      1.0000 0.35536  0.00334  0.81645  Biso   1.000  C
  H71      1.0000 0.33700  0.00030  0.80980  Biso   1.000  H
  C72      1.0000 0.28190  0.94479  0.63009  Biso   1.000  C
  H72      1.0000 0.27390  0.95370  0.64580  Biso   1.000  H
  N108     1.0000 0.38144  0.98185  0.77729  Biso   1.000  N
  Cu19     1.0000 0.37331  0.41280  0.22050  Biso   1.000  Cu
  Cu20     1.0000 0.39996  0.47543  0.19205  Biso   1.000  Cu
  N109     1.0000 0.39154  0.47281  0.23353  Biso   1.000  N
  N110     1.0000 0.37914  0.44880  0.24548  Biso   1.000  N
  N111     1.0000 0.35658  0.42807  0.18459  Biso   1.000  N
  N112     1.0000 0.36409  0.45514  0.17447  Biso   1.000  N
  N113     1.0000 0.39161  0.51677  0.34201  Biso   1.000  N
  N114     1.0000 0.36205  0.51573  0.34033  Biso   1.000  N
  C73      1.0000 0.40180  0.50436  0.31936  Biso   1.000  C
  H73      1.0000 0.42100  0.50190  0.31520  Biso   1.000  H
  N115     1.0000 0.37960  0.49569  0.30296  Biso   1.000  N
  C74      1.0000 0.37321  0.45450  0.27194  Biso   1.000  C
  H74      1.0000 0.36480  0.44210  0.28490  Biso   1.000  H
  N116     1.0000 0.26847  0.43822  0.10676  Biso   1.000  N
  N117     1.0000 0.30954  0.43652  0.12768  Biso   1.000  N
  N118     1.0000 0.28825  0.42572  0.08835  Biso   1.000  N
  N119     1.0000 0.32989  0.43877  0.14859  Biso   1.000  N
  C75      1.0000 0.34811  0.46092  0.15275  Biso   1.000  C
  H75      1.0000 0.34890  0.47740  0.14180  Biso   1.000  H
  C76      1.0000 0.31267  0.42510  0.10136  Biso   1.000  C
  H76      1.0000 0.32950  0.41800  0.09380  Biso   1.000  H
  C77      1.0000 0.33595  0.41872  0.16867  Biso   1.000  C
  H77      1.0000 0.32680  0.40130  0.17070  Biso   1.000  H
  C78      1.0000 0.39231  0.49248  0.25281  Biso   1.000  C
  H78      1.0000 0.39920  0.51090  0.25030  Biso   1.000  H
  C79      1.0000 0.35536  0.50334  0.31645  Biso   1.000  C
  H79      1.0000 0.33700  0.50030  0.30980  Biso   1.000  H
  C80      1.0000 0.28190  0.44479  0.13009  Biso   1.000  C
  H80      1.0000 0.27390  0.45370  0.14580  Biso   1.000  H
  N120     1.0000 0.38144  0.48185  0.27729  Biso   1.000  N
  Cu21     1.0000 0.87331  0.91280  0.22050  Biso   1.000  Cu
  Cu22     1.0000 0.89996  0.97543  0.19205  Biso   1.000  Cu
  N121     1.0000 0.89154  0.97281  0.23353  Biso   1.000  N
  N122     1.0000 0.87914  0.94880  0.24548  Biso   1.000  N
  N123     1.0000 0.85658  0.92807  0.18459  Biso   1.000  N
  N124     1.0000 0.86409  0.95514  0.17447  Biso   1.000  N
  N125     1.0000 0.89161  0.01677  0.34201  Biso   1.000  N
  N126     1.0000 0.86205  0.01573  0.34033  Biso   1.000  N
  C81      1.0000 0.90180  0.00436  0.31936  Biso   1.000  C
  H81      1.0000 0.92100  0.00190  0.31520  Biso   1.000  H
  N127     1.0000 0.87960  0.99569  0.30296  Biso   1.000  N
  C82      1.0000 0.87321  0.95450  0.27194  Biso   1.000  C
  H82      1.0000 0.86480  0.94210  0.28490  Biso   1.000  H
  N128     1.0000 0.76847  0.93822  0.10676  Biso   1.000  N
  N129     1.0000 0.80954  0.93652  0.12768  Biso   1.000  N
  N130     1.0000 0.78825  0.92572  0.08835  Biso   1.000  N
  N131     1.0000 0.82989  0.93877  0.14859  Biso   1.000  N
  C83      1.0000 0.84811  0.96092  0.15275  Biso   1.000  C
  H83      1.0000 0.84890  0.97740  0.14180  Biso   1.000  H
  C84      1.0000 0.81267  0.92510  0.10136  Biso   1.000  C
  H84      1.0000 0.82950  0.91800  0.09380  Biso   1.000  H
  C85      1.0000 0.83595  0.91872  0.16867  Biso   1.000  C
  H85      1.0000 0.82680  0.90130  0.17070  Biso   1.000  H
  C86      1.0000 0.89231  0.99248  0.25281  Biso   1.000  C
  H86      1.0000 0.89920  0.01090  0.25030  Biso   1.000  H
  C87      1.0000 0.85536  0.00334  0.31645  Biso   1.000  C
  H87      1.0000 0.83700  0.00030  0.30980  Biso   1.000  H
  C88      1.0000 0.78190  0.94479  0.13009  Biso   1.000  C
  H88      1.0000 0.77390  0.95370  0.14580  Biso   1.000  H
  N132     1.0000 0.88144  0.98185  0.27729  Biso   1.000  N
  Cu23     1.0000 0.87331  0.41280  0.72050  Biso   1.000  Cu
  Cu24     1.0000 0.89996  0.47543  0.69205  Biso   1.000  Cu
  N133     1.0000 0.89154  0.47281  0.73353  Biso   1.000  N
  N134     1.0000 0.87914  0.44880  0.74548  Biso   1.000  N
  N135     1.0000 0.85658  0.42807  0.68459  Biso   1.000  N
  N136     1.0000 0.86409  0.45514  0.67447  Biso   1.000  N
  N137     1.0000 0.89161  0.51677  0.84201  Biso   1.000  N
  N138     1.0000 0.86205  0.51573  0.84033  Biso   1.000  N
  C89      1.0000 0.90180  0.50436  0.81936  Biso   1.000  C
  H89      1.0000 0.92100  0.50190  0.81520  Biso   1.000  H
  N139     1.0000 0.87960  0.49569  0.80296  Biso   1.000  N
  C90      1.0000 0.87321  0.45450  0.77194  Biso   1.000  C
  H90      1.0000 0.86480  0.44210  0.78490  Biso   1.000  H
  N140     1.0000 0.76847  0.43822  0.60676  Biso   1.000  N
  N141     1.0000 0.80954  0.43652  0.62768  Biso   1.000  N
  N142     1.0000 0.78825  0.42572  0.58835  Biso   1.000  N
  N143     1.0000 0.82989  0.43877  0.64859  Biso   1.000  N
  C91      1.0000 0.84811  0.46092  0.65275  Biso   1.000  C
  H91      1.0000 0.84890  0.47740  0.64180  Biso   1.000  H
  C92      1.0000 0.81267  0.42510  0.60136  Biso   1.000  C
  H92      1.0000 0.82950  0.41800  0.59380  Biso   1.000  H
  C93      1.0000 0.83595  0.41872  0.66867  Biso   1.000  C
  H93      1.0000 0.82680  0.40130  0.67070  Biso   1.000  H
  C94      1.0000 0.89231  0.49248  0.75281  Biso   1.000  C
  H94      1.0000 0.89920  0.51090  0.75030  Biso   1.000  H
  C95      1.0000 0.85536  0.50334  0.81645  Biso   1.000  C
  H95      1.0000 0.83700  0.50030  0.80980  Biso   1.000  H
  C96      1.0000 0.78190  0.44479  0.63009  Biso   1.000  C
  H96      1.0000 0.77390  0.45370  0.64580  Biso   1.000  H
  N144     1.0000 0.88144  0.48185  0.77729  Biso   1.000  N
  Cu25     1.0000 0.87669  0.83720  0.22050  Biso   1.000  Cu
  Cu26     1.0000 0.85004  0.77457  0.19205  Biso   1.000  Cu
  N145     1.0000 0.85846  0.77719  0.23353  Biso   1.000  N
  N146     1.0000 0.87086  0.80120  0.24548  Biso   1.000  N
  N147     1.0000 0.89342  0.82193  0.18459  Biso   1.000  N
  N148     1.0000 0.88591  0.79486  0.17447  Biso   1.000  N
  N149     1.0000 0.85839  0.73323  0.34201  Biso   1.000  N
  N150     1.0000 0.88795  0.73427  0.34033  Biso   1.000  N
  C97      1.0000 0.84820  0.74564  0.31936  Biso   1.000  C
  H97      1.0000 0.82900  0.74810  0.31520  Biso   1.000  H
  N151     1.0000 0.87040  0.75431  0.30296  Biso   1.000  N
  C98      1.0000 0.87679  0.79550  0.27194  Biso   1.000  C
  H98      1.0000 0.88520  0.80790  0.28490  Biso   1.000  H
  N152     1.0000 0.98153  0.81178  0.10676  Biso   1.000  N
  N153     1.0000 0.94046  0.81348  0.12768  Biso   1.000  N
  N154     1.0000 0.96175  0.82428  0.08835  Biso   1.000  N
  N155     1.0000 0.92011  0.81123  0.14859  Biso   1.000  N
  C99      1.0000 0.90189  0.78908  0.15275  Biso   1.000  C
  H99      1.0000 0.90110  0.77260  0.14180  Biso   1.000  H
  C100     1.0000 0.93733  0.82490  0.10136  Biso   1.000  C
  H100     1.0000 0.92050  0.83200  0.09380  Biso   1.000  H
  C101     1.0000 0.91405  0.83128  0.16867  Biso   1.000  C
  H101     1.0000 0.92320  0.84870  0.17070  Biso   1.000  H
  C102     1.0000 0.85769  0.75752  0.25281  Biso   1.000  C
  H102     1.0000 0.85080  0.73910  0.25030  Biso   1.000  H
  C103     1.0000 0.89464  0.74666  0.31645  Biso   1.000  C
  H103     1.0000 0.91300  0.74970  0.30980  Biso   1.000  H
  C104     1.0000 0.96810  0.80521  0.13009  Biso   1.000  C
  H104     1.0000 0.97610  0.79630  0.14580  Biso   1.000  H
  N156     1.0000 0.86856  0.76815  0.27729  Biso   1.000  N
  Cu27     1.0000 0.87669  0.33720  0.72050  Biso   1.000  Cu
  Cu28     1.0000 0.85004  0.27457  0.69205  Biso   1.000  Cu
  N157     1.0000 0.85846  0.27719  0.73353  Biso   1.000  N
  N158     1.0000 0.87086  0.30120  0.74548  Biso   1.000  N
  N159     1.0000 0.89342  0.32193  0.68459  Biso   1.000  N
  N160     1.0000 0.88591  0.29486  0.67447  Biso   1.000  N
  N161     1.0000 0.85839  0.23323  0.84201  Biso   1.000  N
  N162     1.0000 0.88795  0.23427  0.84033  Biso   1.000  N
  C105     1.0000 0.84820  0.24564  0.81936  Biso   1.000  C
  H105     1.0000 0.82900  0.24810  0.81520  Biso   1.000  H
  N163     1.0000 0.87040  0.25431  0.80296  Biso   1.000  N
  C106     1.0000 0.87679  0.29550  0.77194  Biso   1.000  C
  H106     1.0000 0.88520  0.30790  0.78490  Biso   1.000  H
  N164     1.0000 0.98153  0.31178  0.60676  Biso   1.000  N
  N165     1.0000 0.94046  0.31348  0.62768  Biso   1.000  N
  N166     1.0000 0.96175  0.32428  0.58835  Biso   1.000  N
  N167     1.0000 0.92011  0.31123  0.64859  Biso   1.000  N
  C107     1.0000 0.90189  0.28908  0.65275  Biso   1.000  C
  H107     1.0000 0.90110  0.27260  0.64180  Biso   1.000  H
  C108     1.0000 0.93733  0.32490  0.60136  Biso   1.000  C
  H108     1.0000 0.92050  0.33200  0.59380  Biso   1.000  H
  C109     1.0000 0.91405  0.33128  0.66867  Biso   1.000  C
  H109     1.0000 0.92320  0.34870  0.67070  Biso   1.000  H
  C110     1.0000 0.85769  0.25752  0.75281  Biso   1.000  C
  H110     1.0000 0.85080  0.23910  0.75030  Biso   1.000  H
  C111     1.0000 0.89464  0.24666  0.81645  Biso   1.000  C
  H111     1.0000 0.91300  0.24970  0.80980  Biso   1.000  H
  C112     1.0000 0.96810  0.30521  0.63009  Biso   1.000  C
  H112     1.0000 0.97610  0.29630  0.64580  Biso   1.000  H
  N168     1.0000 0.86856  0.26815  0.77729  Biso   1.000  N
  Cu29     1.0000 0.37669  0.83720  0.72050  Biso   1.000  Cu
  Cu30     1.0000 0.35004  0.77457  0.69205  Biso   1.000  Cu
  N169     1.0000 0.35846  0.77719  0.73353  Biso   1.000  N
  N170     1.0000 0.37086  0.80120  0.74548  Biso   1.000  N
  N171     1.0000 0.39342  0.82193  0.68459  Biso   1.000  N
  N172     1.0000 0.38591  0.79486  0.67447  Biso   1.000  N
  N173     1.0000 0.35839  0.73323  0.84201  Biso   1.000  N
  N174     1.0000 0.38795  0.73427  0.84033  Biso   1.000  N
  C113     1.0000 0.34820  0.74564  0.81936  Biso   1.000  C
  H113     1.0000 0.32900  0.74810  0.81520  Biso   1.000  H
  N175     1.0000 0.37040  0.75431  0.80296  Biso   1.000  N
  C114     1.0000 0.37679  0.79550  0.77194  Biso   1.000  C
  H114     1.0000 0.38520  0.80790  0.78490  Biso   1.000  H
  N176     1.0000 0.48153  0.81178  0.60676  Biso   1.000  N
  N177     1.0000 0.44046  0.81348  0.62768  Biso   1.000  N
  N178     1.0000 0.46175  0.82428  0.58835  Biso   1.000  N
  N179     1.0000 0.42011  0.81123  0.64859  Biso   1.000  N
  C115     1.0000 0.40189  0.78908  0.65275  Biso   1.000  C
  H115     1.0000 0.40110  0.77260  0.64180  Biso   1.000  H
  C116     1.0000 0.43733  0.82490  0.60136  Biso   1.000  C
  H116     1.0000 0.42050  0.83200  0.59380  Biso   1.000  H
  C117     1.0000 0.41405  0.83128  0.66867  Biso   1.000  C
  H117     1.0000 0.42320  0.84870  0.67070  Biso   1.000  H
  C118     1.0000 0.35769  0.75752  0.75281  Biso   1.000  C
  H118     1.0000 0.35080  0.73910  0.75030  Biso   1.000  H
  C119     1.0000 0.39464  0.74666  0.81645  Biso   1.000  C
  H119     1.0000 0.41300  0.74970  0.80980  Biso   1.000  H
  C120     1.0000 0.46810  0.80521  0.63009  Biso   1.000  C
  H120     1.0000 0.47610  0.79630  0.64580  Biso   1.000  H
  N180     1.0000 0.36856  0.76815  0.77729  Biso   1.000  N
  Cu31     1.0000 0.37669  0.33720  0.22050  Biso   1.000  Cu
  Cu32     1.0000 0.35004  0.27457  0.19205  Biso   1.000  Cu
  N181     1.0000 0.35846  0.27719  0.23353  Biso   1.000  N
  N182     1.0000 0.37086  0.30120  0.24548  Biso   1.000  N
  N183     1.0000 0.39342  0.32193  0.18459  Biso   1.000  N
  N184     1.0000 0.38591  0.29486  0.17447  Biso   1.000  N
  N185     1.0000 0.35839  0.23323  0.34201  Biso   1.000  N
  N186     1.0000 0.38795  0.23427  0.34033  Biso   1.000  N
  C121     1.0000 0.34820  0.24564  0.31936  Biso   1.000  C
  H121     1.0000 0.32900  0.24810  0.31520  Biso   1.000  H
  N187     1.0000 0.37040  0.25431  0.30296  Biso   1.000  N
  C122     1.0000 0.37679  0.29550  0.27194  Biso   1.000  C
  H122     1.0000 0.38520  0.30790  0.28490  Biso   1.000  H
  N188     1.0000 0.48153  0.31178  0.10676  Biso   1.000  N
  N189     1.0000 0.44046  0.31348  0.12768  Biso   1.000  N
  N190     1.0000 0.46175  0.32428  0.08835  Biso   1.000  N
  N191     1.0000 0.42011  0.31123  0.14859  Biso   1.000  N
  C123     1.0000 0.40189  0.28908  0.15275  Biso   1.000  C
  H123     1.0000 0.40110  0.27260  0.14180  Biso   1.000  H
  C124     1.0000 0.43733  0.32490  0.10136  Biso   1.000  C
  H124     1.0000 0.42050  0.33200  0.09380  Biso   1.000  H
  C125     1.0000 0.41405  0.33128  0.16867  Biso   1.000  C
  H125     1.0000 0.42320  0.34870  0.17070  Biso   1.000  H
  C126     1.0000 0.35769  0.25752  0.25281  Biso   1.000  C
  H126     1.0000 0.35080  0.23910  0.25030  Biso   1.000  H
  C127     1.0000 0.39464  0.24666  0.31645  Biso   1.000  C
  H127     1.0000 0.41300  0.24970  0.30980  Biso   1.000  H
  C128     1.0000 0.46810  0.30521  0.13009  Biso   1.000  C
  H128     1.0000 0.47610  0.29630  0.14580  Biso   1.000  H
  N192     1.0000 0.36856  0.26815  0.27729  Biso   1.000  N
  Cu33     1.0000 0.52951  0.37669  0.41280  Biso   1.000  Cu
  Cu34     1.0000 0.55795  0.35004  0.47543  Biso   1.000  Cu
  N193     1.0000 0.51647  0.35846  0.47281  Biso   1.000  N
  N194     1.0000 0.50452  0.37086  0.44880  Biso   1.000  N
  N195     1.0000 0.56541  0.39342  0.42807  Biso   1.000  N
  N196     1.0000 0.57553  0.38591  0.45514  Biso   1.000  N
  N197     1.0000 0.40799  0.35839  0.51677  Biso   1.000  N
  N198     1.0000 0.40967  0.38795  0.51573  Biso   1.000  N
  C129     1.0000 0.43064  0.34820  0.50436  Biso   1.000  C
  H129     1.0000 0.43480  0.32900  0.50190  Biso   1.000  H
  N199     1.0000 0.44704  0.37040  0.49569  Biso   1.000  N
  C130     1.0000 0.47806  0.37679  0.45450  Biso   1.000  C
  H130     1.0000 0.46510  0.38520  0.44210  Biso   1.000  H
  N200     1.0000 0.64324  0.48153  0.43822  Biso   1.000  N
  N201     1.0000 0.62232  0.44046  0.43652  Biso   1.000  N
  N202     1.0000 0.66165  0.46175  0.42572  Biso   1.000  N
  N203     1.0000 0.60141  0.42011  0.43877  Biso   1.000  N
  C131     1.0000 0.59725  0.40189  0.46092  Biso   1.000  C
  H131     1.0000 0.60820  0.40110  0.47740  Biso   1.000  H
  C132     1.0000 0.64864  0.43733  0.42510  Biso   1.000  C
  H132     1.0000 0.65620  0.42050  0.41800  Biso   1.000  H
  C133     1.0000 0.58133  0.41405  0.41872  Biso   1.000  C
  H133     1.0000 0.57930  0.42320  0.40130  Biso   1.000  H
  C134     1.0000 0.49719  0.35769  0.49248  Biso   1.000  C
  H134     1.0000 0.49970  0.35080  0.51090  Biso   1.000  H
  C135     1.0000 0.43355  0.39464  0.50334  Biso   1.000  C
  H135     1.0000 0.44020  0.41300  0.50030  Biso   1.000  H
  C136     1.0000 0.61991  0.46810  0.44479  Biso   1.000  C
  H136     1.0000 0.60420  0.47610  0.45370  Biso   1.000  H
  N204     1.0000 0.47271  0.36856  0.48185  Biso   1.000  N
  Cu35     1.0000 0.52951  0.87669  0.91280  Biso   1.000  Cu
  Cu36     1.0000 0.55795  0.85004  0.97543  Biso   1.000  Cu
  N205     1.0000 0.51647  0.85846  0.97281  Biso   1.000  N
  N206     1.0000 0.50452  0.87086  0.94880  Biso   1.000  N
  N207     1.0000 0.56541  0.89342  0.92807  Biso   1.000  N
  N208     1.0000 0.57553  0.88591  0.95514  Biso   1.000  N
  N209     1.0000 0.40799  0.85839  0.01677  Biso   1.000  N
  N210     1.0000 0.40967  0.88795  0.01573  Biso   1.000  N
  C137     1.0000 0.43064  0.84820  0.00436  Biso   1.000  C
  H137     1.0000 0.43480  0.82900  0.00190  Biso   1.000  H
  N211     1.0000 0.44704  0.87040  0.99569  Biso   1.000  N
  C138     1.0000 0.47806  0.87679  0.95450  Biso   1.000  C
  H138     1.0000 0.46510  0.88520  0.94210  Biso   1.000  H
  N212     1.0000 0.64324  0.98153  0.93822  Biso   1.000  N
  N213     1.0000 0.62232  0.94046  0.93652  Biso   1.000  N
  N214     1.0000 0.66165  0.96175  0.92572  Biso   1.000  N
  N215     1.0000 0.60141  0.92011  0.93877  Biso   1.000  N
  C139     1.0000 0.59725  0.90189  0.96092  Biso   1.000  C
  H139     1.0000 0.60820  0.90110  0.97740  Biso   1.000  H
  C140     1.0000 0.64864  0.93733  0.92510  Biso   1.000  C
  H140     1.0000 0.65620  0.92050  0.91800  Biso   1.000  H
  C141     1.0000 0.58133  0.91405  0.91872  Biso   1.000  C
  H141     1.0000 0.57930  0.92320  0.90130  Biso   1.000  H
  C142     1.0000 0.49719  0.85769  0.99248  Biso   1.000  C
  H142     1.0000 0.49970  0.85080  0.01090  Biso   1.000  H
  C143     1.0000 0.43355  0.89464  0.00334  Biso   1.000  C
  H143     1.0000 0.44020  0.91300  0.00030  Biso   1.000  H
  C144     1.0000 0.61991  0.96810  0.94479  Biso   1.000  C
  H144     1.0000 0.60420  0.97610  0.95370  Biso   1.000  H
  N216     1.0000 0.47271  0.86856  0.98185  Biso   1.000  N
  Cu37     1.0000 0.02951  0.37669  0.91280  Biso   1.000  Cu
  Cu38     1.0000 0.05795  0.35004  0.97543  Biso   1.000  Cu
  N217     1.0000 0.01647  0.35846  0.97281  Biso   1.000  N
  N218     1.0000 0.00452  0.37086  0.94880  Biso   1.000  N
  N219     1.0000 0.06541  0.39342  0.92807  Biso   1.000  N
  N220     1.0000 0.07553  0.38591  0.95514  Biso   1.000  N
  N221     1.0000 0.90799  0.35839  0.01677  Biso   1.000  N
  N222     1.0000 0.90967  0.38795  0.01573  Biso   1.000  N
  C145     1.0000 0.93064  0.34820  0.00436  Biso   1.000  C
  H145     1.0000 0.93480  0.32900  0.00190  Biso   1.000  H
  N223     1.0000 0.94704  0.37040  0.99569  Biso   1.000  N
  C146     1.0000 0.97806  0.37679  0.95450  Biso   1.000  C
  H146     1.0000 0.96510  0.38520  0.94210  Biso   1.000  H
  N224     1.0000 0.14324  0.48153  0.93822  Biso   1.000  N
  N225     1.0000 0.12232  0.44046  0.93652  Biso   1.000  N
  N226     1.0000 0.16165  0.46175  0.92572  Biso   1.000  N
  N227     1.0000 0.10141  0.42011  0.93877  Biso   1.000  N
  C147     1.0000 0.09725  0.40189  0.96092  Biso   1.000  C
  H147     1.0000 0.10820  0.40110  0.97740  Biso   1.000  H
  C148     1.0000 0.14864  0.43733  0.92510  Biso   1.000  C
  H148     1.0000 0.15620  0.42050  0.91800  Biso   1.000  H
  C149     1.0000 0.08133  0.41405  0.91872  Biso   1.000  C
  H149     1.0000 0.07930  0.42320  0.90130  Biso   1.000  H
  C150     1.0000 0.99719  0.35769  0.99248  Biso   1.000  C
  H150     1.0000 0.99970  0.35080  0.01090  Biso   1.000  H
  C151     1.0000 0.93355  0.39464  0.00334  Biso   1.000  C
  H151     1.0000 0.94020  0.41300  0.00030  Biso   1.000  H
  C152     1.0000 0.11991  0.46810  0.94479  Biso   1.000  C
  H152     1.0000 0.10420  0.47610  0.95370  Biso   1.000  H
  N228     1.0000 0.97271  0.36856  0.98185  Biso   1.000  N
  Cu39     1.0000 0.02951  0.87669  0.41280  Biso   1.000  Cu
  Cu40     1.0000 0.05795  0.85004  0.47543  Biso   1.000  Cu
  N229     1.0000 0.01647  0.85846  0.47281  Biso   1.000  N
  N230     1.0000 0.00452  0.87086  0.44880  Biso   1.000  N
  N231     1.0000 0.06541  0.89342  0.42807  Biso   1.000  N
  N232     1.0000 0.07553  0.88591  0.45514  Biso   1.000  N
  N233     1.0000 0.90799  0.85839  0.51677  Biso   1.000  N
  N234     1.0000 0.90967  0.88795  0.51573  Biso   1.000  N
  C153     1.0000 0.93064  0.84820  0.50436  Biso   1.000  C
  H153     1.0000 0.93480  0.82900  0.50190  Biso   1.000  H
  N235     1.0000 0.94704  0.87040  0.49569  Biso   1.000  N
  C154     1.0000 0.97806  0.87679  0.45450  Biso   1.000  C
  H154     1.0000 0.96510  0.88520  0.44210  Biso   1.000  H
  N236     1.0000 0.14324  0.98153  0.43822  Biso   1.000  N
  N237     1.0000 0.12232  0.94046  0.43652  Biso   1.000  N
  N238     1.0000 0.16165  0.96175  0.42572  Biso   1.000  N
  N239     1.0000 0.10141  0.92011  0.43877  Biso   1.000  N
  C155     1.0000 0.09725  0.90189  0.46092  Biso   1.000  C
  H155     1.0000 0.10820  0.90110  0.47740  Biso   1.000  H
  C156     1.0000 0.14864  0.93733  0.42510  Biso   1.000  C
  H156     1.0000 0.15620  0.92050  0.41800  Biso   1.000  H
  C157     1.0000 0.08133  0.91405  0.41872  Biso   1.000  C
  H157     1.0000 0.07930  0.92320  0.40130  Biso   1.000  H
  C158     1.0000 0.99719  0.85769  0.49248  Biso   1.000  C
  H158     1.0000 0.99970  0.85080  0.51090  Biso   1.000  H
  C159     1.0000 0.93355  0.89464  0.50334  Biso   1.000  C
  H159     1.0000 0.94020  0.91300  0.50030  Biso   1.000  H
  C160     1.0000 0.11991  0.96810  0.44479  Biso   1.000  C
  H160     1.0000 0.10420  0.97610  0.45370  Biso   1.000  H
  N240     1.0000 0.97271  0.86856  0.48185  Biso   1.000  N
  Cu41     1.0000 0.02951  0.87331  0.33720  Biso   1.000  Cu
  Cu42     1.0000 0.05795  0.89996  0.27457  Biso   1.000  Cu
  N241     1.0000 0.01647  0.89154  0.27719  Biso   1.000  N
  N242     1.0000 0.00452  0.87914  0.30120  Biso   1.000  N
  N243     1.0000 0.06541  0.85658  0.32193  Biso   1.000  N
  N244     1.0000 0.07553  0.86409  0.29486  Biso   1.000  N
  N245     1.0000 0.90799  0.89161  0.23323  Biso   1.000  N
  N246     1.0000 0.90967  0.86205  0.23427  Biso   1.000  N
  C161     1.0000 0.93064  0.90180  0.24564  Biso   1.000  C
  H161     1.0000 0.93480  0.92100  0.24810  Biso   1.000  H
  N247     1.0000 0.94704  0.87960  0.25431  Biso   1.000  N
  C162     1.0000 0.97806  0.87321  0.29550  Biso   1.000  C
  H162     1.0000 0.96510  0.86480  0.30790  Biso   1.000  H
  N248     1.0000 0.14324  0.76847  0.31178  Biso   1.000  N
  N249     1.0000 0.12232  0.80954  0.31348  Biso   1.000  N
  N250     1.0000 0.16165  0.78825  0.32428  Biso   1.000  N
  N251     1.0000 0.10141  0.82989  0.31123  Biso   1.000  N
  C163     1.0000 0.09725  0.84811  0.28908  Biso   1.000  C
  H163     1.0000 0.10820  0.84890  0.27260  Biso   1.000  H
  C164     1.0000 0.14864  0.81267  0.32490  Biso   1.000  C
  H164     1.0000 0.15620  0.82950  0.33200  Biso   1.000  H
  C165     1.0000 0.08133  0.83595  0.33128  Biso   1.000  C
  H165     1.0000 0.07930  0.82680  0.34870  Biso   1.000  H
  C166     1.0000 0.99719  0.89231  0.25752  Biso   1.000  C
  H166     1.0000 0.99970  0.89920  0.23910  Biso   1.000  H
  C167     1.0000 0.93355  0.85536  0.24666  Biso   1.000  C
  H167     1.0000 0.94020  0.83700  0.24970  Biso   1.000  H
  C168     1.0000 0.11991  0.78190  0.30521  Biso   1.000  C
  H168     1.0000 0.10420  0.77390  0.29630  Biso   1.000  H
  N252     1.0000 0.97271  0.88144  0.26815  Biso   1.000  N
  Cu43     1.0000 0.02951  0.37331  0.83720  Biso   1.000  Cu
  Cu44     1.0000 0.05795  0.39996  0.77457  Biso   1.000  Cu
  N253     1.0000 0.01647  0.39154  0.77719  Biso   1.000  N
  N254     1.0000 0.00452  0.37914  0.80120  Biso   1.000  N
  N255     1.0000 0.06541  0.35658  0.82193  Biso   1.000  N
  N256     1.0000 0.07553  0.36409  0.79486  Biso   1.000  N
  N257     1.0000 0.90799  0.39161  0.73323  Biso   1.000  N
  N258     1.0000 0.90967  0.36205  0.73427  Biso   1.000  N
  C169     1.0000 0.93064  0.40180  0.74564  Biso   1.000  C
  H169     1.0000 0.93480  0.42100  0.74810  Biso   1.000  H
  N259     1.0000 0.94704  0.37960  0.75431  Biso   1.000  N
  C170     1.0000 0.97806  0.37321  0.79550  Biso   1.000  C
  H170     1.0000 0.96510  0.36480  0.80790  Biso   1.000  H
  N260     1.0000 0.14324  0.26847  0.81178  Biso   1.000  N
  N261     1.0000 0.12232  0.30954  0.81348  Biso   1.000  N
  N262     1.0000 0.16165  0.28825  0.82428  Biso   1.000  N
  N263     1.0000 0.10141  0.32989  0.81123  Biso   1.000  N
  C171     1.0000 0.09725  0.34811  0.78908  Biso   1.000  C
  H171     1.0000 0.10820  0.34890  0.77260  Biso   1.000  H
  C172     1.0000 0.14864  0.31267  0.82490  Biso   1.000  C
  H172     1.0000 0.15620  0.32950  0.83200  Biso   1.000  H
  C173     1.0000 0.08133  0.33595  0.83128  Biso   1.000  C
  H173     1.0000 0.07930  0.32680  0.84870  Biso   1.000  H
  C174     1.0000 0.99719  0.39231  0.75752  Biso   1.000  C
  H174     1.0000 0.99970  0.39920  0.73910  Biso   1.000  H
  C175     1.0000 0.93355  0.35536  0.74666  Biso   1.000  C
  H175     1.0000 0.94020  0.33700  0.74970  Biso   1.000  H
  C176     1.0000 0.11991  0.28190  0.80521  Biso   1.000  C
  H176     1.0000 0.10420  0.27390  0.79630  Biso   1.000  H
  N264     1.0000 0.97271  0.38144  0.76815  Biso   1.000  N
  Cu45     1.0000 0.52951  0.87331  0.83720  Biso   1.000  Cu
  Cu46     1.0000 0.55795  0.89996  0.77457  Biso   1.000  Cu
  N265     1.0000 0.51647  0.89154  0.77719  Biso   1.000  N
  N266     1.0000 0.50452  0.87914  0.80120  Biso   1.000  N
  N267     1.0000 0.56541  0.85658  0.82193  Biso   1.000  N
  N268     1.0000 0.57553  0.86409  0.79486  Biso   1.000  N
  N269     1.0000 0.40799  0.89161  0.73323  Biso   1.000  N
  N270     1.0000 0.40967  0.86205  0.73427  Biso   1.000  N
  C177     1.0000 0.43064  0.90180  0.74564  Biso   1.000  C
  H177     1.0000 0.43480  0.92100  0.74810  Biso   1.000  H
  N271     1.0000 0.44704  0.87960  0.75431  Biso   1.000  N
  C178     1.0000 0.47806  0.87321  0.79550  Biso   1.000  C
  H178     1.0000 0.46510  0.86480  0.80790  Biso   1.000  H
  N272     1.0000 0.64324  0.76847  0.81178  Biso   1.000  N
  N273     1.0000 0.62232  0.80954  0.81348  Biso   1.000  N
  N274     1.0000 0.66165  0.78825  0.82428  Biso   1.000  N
  N275     1.0000 0.60141  0.82989  0.81123  Biso   1.000  N
  C179     1.0000 0.59725  0.84811  0.78908  Biso   1.000  C
  H179     1.0000 0.60820  0.84890  0.77260  Biso   1.000  H
  C180     1.0000 0.64864  0.81267  0.82490  Biso   1.000  C
  H180     1.0000 0.65620  0.82950  0.83200  Biso   1.000  H
  C181     1.0000 0.58133  0.83595  0.83128  Biso   1.000  C
  H181     1.0000 0.57930  0.82680  0.84870  Biso   1.000  H
  C182     1.0000 0.49719  0.89231  0.75752  Biso   1.000  C
  H182     1.0000 0.49970  0.89920  0.73910  Biso   1.000  H
  C183     1.0000 0.43355  0.85536  0.74666  Biso   1.000  C
  H183     1.0000 0.44020  0.83700  0.74970  Biso   1.000  H
  C184     1.0000 0.61991  0.78190  0.80521  Biso   1.000  C
  H184     1.0000 0.60420  0.77390  0.79630  Biso   1.000  H
  N276     1.0000 0.47271  0.88144  0.76815  Biso   1.000  N
  Cu47     1.0000 0.52951  0.37331  0.33720  Biso   1.000  Cu
  Cu48     1.0000 0.55795  0.39996  0.27457  Biso   1.000  Cu
  N277     1.0000 0.51647  0.39154  0.27719  Biso   1.000  N
  N278     1.0000 0.50452  0.37914  0.30120  Biso   1.000  N
  N279     1.0000 0.56541  0.35658  0.32193  Biso   1.000  N
  N280     1.0000 0.57553  0.36409  0.29486  Biso   1.000  N
  N281     1.0000 0.40799  0.39161  0.23323  Biso   1.000  N
  N282     1.0000 0.40967  0.36205  0.23427  Biso   1.000  N
  C185     1.0000 0.43064  0.40180  0.24564  Biso   1.000  C
  H185     1.0000 0.43480  0.42100  0.24810  Biso   1.000  H
  N283     1.0000 0.44704  0.37960  0.25431  Biso   1.000  N
  C186     1.0000 0.47806  0.37321  0.29550  Biso   1.000  C
  H186     1.0000 0.46510  0.36480  0.30790  Biso   1.000  H
  N284     1.0000 0.64324  0.26847  0.31178  Biso   1.000  N
  N285     1.0000 0.62232  0.30954  0.31348  Biso   1.000  N
  N286     1.0000 0.66165  0.28825  0.32428  Biso   1.000  N
  N287     1.0000 0.60141  0.32989  0.31123  Biso   1.000  N
  C187     1.0000 0.59725  0.34811  0.28908  Biso   1.000  C
  H187     1.0000 0.60820  0.34890  0.27260  Biso   1.000  H
  C188     1.0000 0.64864  0.31267  0.32490  Biso   1.000  C
  H188     1.0000 0.65620  0.32950  0.33200  Biso   1.000  H
  C189     1.0000 0.58133  0.33595  0.33128  Biso   1.000  C
  H189     1.0000 0.57930  0.32680  0.34870  Biso   1.000  H
  C190     1.0000 0.49719  0.39231  0.25752  Biso   1.000  C
  H190     1.0000 0.49970  0.39920  0.23910  Biso   1.000  H
  C191     1.0000 0.43355  0.35536  0.24666  Biso   1.000  C
  H191     1.0000 0.44020  0.33700  0.24970  Biso   1.000  H
  C192     1.0000 0.61991  0.28190  0.30521  Biso   1.000  C
  H192     1.0000 0.60420  0.27390  0.29630  Biso   1.000  H
  N288     1.0000 0.47271  0.38144  0.26815  Biso   1.000  N
  Cu49     1.0000 0.72050  0.37331  0.91280  Biso   1.000  Cu
  Cu50     1.0000 0.69205  0.39996  0.97543  Biso   1.000  Cu
  N289     1.0000 0.73353  0.39154  0.97281  Biso   1.000  N
  N290     1.0000 0.74548  0.37914  0.94880  Biso   1.000  N
  N291     1.0000 0.68459  0.35658  0.92807  Biso   1.000  N
  N292     1.0000 0.67447  0.36409  0.95514  Biso   1.000  N
  N293     1.0000 0.84201  0.39161  0.01677  Biso   1.000  N
  N294     1.0000 0.84033  0.36205  0.01573  Biso   1.000  N
  C193     1.0000 0.81936  0.40180  0.00436  Biso   1.000  C
  H193     1.0000 0.81520  0.42100  0.00190  Biso   1.000  H
  N295     1.0000 0.80296  0.37960  0.99569  Biso   1.000  N
  C194     1.0000 0.77194  0.37321  0.95450  Biso   1.000  C
  H194     1.0000 0.78490  0.36480  0.94210  Biso   1.000  H
  N296     1.0000 0.60676  0.26847  0.93822  Biso   1.000  N
  N297     1.0000 0.62768  0.30954  0.93652  Biso   1.000  N
  N298     1.0000 0.58835  0.28825  0.92572  Biso   1.000  N
  N299     1.0000 0.64859  0.32989  0.93877  Biso   1.000  N
  C195     1.0000 0.65275  0.34811  0.96092  Biso   1.000  C
  H195     1.0000 0.64180  0.34890  0.97740  Biso   1.000  H
  C196     1.0000 0.60136  0.31267  0.92510  Biso   1.000  C
  H196     1.0000 0.59380  0.32950  0.91800  Biso   1.000  H
  C197     1.0000 0.66867  0.33595  0.91872  Biso   1.000  C
  H197     1.0000 0.67070  0.32680  0.90130  Biso   1.000  H
  C198     1.0000 0.75281  0.39231  0.99248  Biso   1.000  C
  H198     1.0000 0.75030  0.39920  0.01090  Biso   1.000  H
  C199     1.0000 0.81645  0.35536  0.00334  Biso   1.000  C
  H199     1.0000 0.80980  0.33700  0.00030  Biso   1.000  H
  C200     1.0000 0.63009  0.28190  0.94479  Biso   1.000  C
  H200     1.0000 0.64580  0.27390  0.95370  Biso   1.000  H
  N300     1.0000 0.77729  0.38144  0.98185  Biso   1.000  N
  Cu51     1.0000 0.72050  0.87331  0.41280  Biso   1.000  Cu
  Cu52     1.0000 0.69205  0.89996  0.47543  Biso   1.000  Cu
  N301     1.0000 0.73353  0.89154  0.47281  Biso   1.000  N
  N302     1.0000 0.74548  0.87914  0.44880  Biso   1.000  N
  N303     1.0000 0.68459  0.85658  0.42807  Biso   1.000  N
  N304     1.0000 0.67447  0.86409  0.45514  Biso   1.000  N
  N305     1.0000 0.84201  0.89161  0.51677  Biso   1.000  N
  N306     1.0000 0.84033  0.86205  0.51573  Biso   1.000  N
  C201     1.0000 0.81936  0.90180  0.50436  Biso   1.000  C
  H201     1.0000 0.81520  0.92100  0.50190  Biso   1.000  H
  N307     1.0000 0.80296  0.87960  0.49569  Biso   1.000  N
  C202     1.0000 0.77194  0.87321  0.45450  Biso   1.000  C
  H202     1.0000 0.78490  0.86480  0.44210  Biso   1.000  H
  N308     1.0000 0.60676  0.76847  0.43822  Biso   1.000  N
  N309     1.0000 0.62768  0.80954  0.43652  Biso   1.000  N
  N310     1.0000 0.58835  0.78825  0.42572  Biso   1.000  N
  N311     1.0000 0.64859  0.82989  0.43877  Biso   1.000  N
  C203     1.0000 0.65275  0.84811  0.46092  Biso   1.000  C
  H203     1.0000 0.64180  0.84890  0.47740  Biso   1.000  H
  C204     1.0000 0.60136  0.81267  0.42510  Biso   1.000  C
  H204     1.0000 0.59380  0.82950  0.41800  Biso   1.000  H
  C205     1.0000 0.66867  0.83595  0.41872  Biso   1.000  C
  H205     1.0000 0.67070  0.82680  0.40130  Biso   1.000  H
  C206     1.0000 0.75281  0.89231  0.49248  Biso   1.000  C
  H206     1.0000 0.75030  0.89920  0.51090  Biso   1.000  H
  C207     1.0000 0.81645  0.85536  0.50334  Biso   1.000  C
  H207     1.0000 0.80980  0.83700  0.50030  Biso   1.000  H
  C208     1.0000 0.63009  0.78190  0.44479  Biso   1.000  C
  H208     1.0000 0.64580  0.77390  0.45370  Biso   1.000  H
  N312     1.0000 0.77729  0.88144  0.48185  Biso   1.000  N
  Cu53     1.0000 0.22050  0.37331  0.41280  Biso   1.000  Cu
  Cu54     1.0000 0.19205  0.39996  0.47543  Biso   1.000  Cu
  N313     1.0000 0.23353  0.39154  0.47281  Biso   1.000  N
  N314     1.0000 0.24548  0.37914  0.44880  Biso   1.000  N
  N315     1.0000 0.18459  0.35658  0.42807  Biso   1.000  N
  N316     1.0000 0.17447  0.36409  0.45514  Biso   1.000  N
  N317     1.0000 0.34201  0.39161  0.51677  Biso   1.000  N
  N318     1.0000 0.34033  0.36205  0.51573  Biso   1.000  N
  C209     1.0000 0.31936  0.40180  0.50436  Biso   1.000  C
  H209     1.0000 0.31520  0.42100  0.50190  Biso   1.000  H
  N319     1.0000 0.30296  0.37960  0.49569  Biso   1.000  N
  C210     1.0000 0.27194  0.37321  0.45450  Biso   1.000  C
  H210     1.0000 0.28490  0.36480  0.44210  Biso   1.000  H
  N320     1.0000 0.10676  0.26847  0.43822  Biso   1.000  N
  N321     1.0000 0.12768  0.30954  0.43652  Biso   1.000  N
  N322     1.0000 0.08835  0.28825  0.42572  Biso   1.000  N
  N323     1.0000 0.14859  0.32989  0.43877  Biso   1.000  N
  C211     1.0000 0.15275  0.34811  0.46092  Biso   1.000  C
  H211     1.0000 0.14180  0.34890  0.47740  Biso   1.000  H
  C212     1.0000 0.10136  0.31267  0.42510  Biso   1.000  C
  H212     1.0000 0.09380  0.32950  0.41800  Biso   1.000  H
  C213     1.0000 0.16867  0.33595  0.41872  Biso   1.000  C
  H213     1.0000 0.17070  0.32680  0.40130  Biso   1.000  H
  C214     1.0000 0.25281  0.39231  0.49248  Biso   1.000  C
  H214     1.0000 0.25030  0.39920  0.51090  Biso   1.000  H
  C215     1.0000 0.31645  0.35536  0.50334  Biso   1.000  C
  H215     1.0000 0.30980  0.33700  0.50030  Biso   1.000  H
  C216     1.0000 0.13009  0.28190  0.44479  Biso   1.000  C
  H216     1.0000 0.14580  0.27390  0.45370  Biso   1.000  H
  N324     1.0000 0.27729  0.38144  0.48185  Biso   1.000  N
  Cu55     1.0000 0.22050  0.87331  0.91280  Biso   1.000  Cu
  Cu56     1.0000 0.19205  0.89996  0.97543  Biso   1.000  Cu
  N325     1.0000 0.23353  0.89154  0.97281  Biso   1.000  N
  N326     1.0000 0.24548  0.87914  0.94880  Biso   1.000  N
  N327     1.0000 0.18459  0.85658  0.92807  Biso   1.000  N
  N328     1.0000 0.17447  0.86409  0.95514  Biso   1.000  N
  N329     1.0000 0.34201  0.89161  0.01677  Biso   1.000  N
  N330     1.0000 0.34033  0.86205  0.01573  Biso   1.000  N
  C217     1.0000 0.31936  0.90180  0.00436  Biso   1.000  C
  H217     1.0000 0.31520  0.92100  0.00190  Biso   1.000  H
  N331     1.0000 0.30296  0.87960  0.99569  Biso   1.000  N
  C218     1.0000 0.27194  0.87321  0.95450  Biso   1.000  C
  H218     1.0000 0.28490  0.86480  0.94210  Biso   1.000  H
  N332     1.0000 0.10676  0.76847  0.93822  Biso   1.000  N
  N333     1.0000 0.12768  0.80954  0.93652  Biso   1.000  N
  N334     1.0000 0.08835  0.78825  0.92572  Biso   1.000  N
  N335     1.0000 0.14859  0.82989  0.93877  Biso   1.000  N
  C219     1.0000 0.15275  0.84811  0.96092  Biso   1.000  C
  H219     1.0000 0.14180  0.84890  0.97740  Biso   1.000  H
  C220     1.0000 0.10136  0.81267  0.92510  Biso   1.000  C
  H220     1.0000 0.09380  0.82950  0.91800  Biso   1.000  H
  C221     1.0000 0.16867  0.83595  0.91872  Biso   1.000  C
  H221     1.0000 0.17070  0.82680  0.90130  Biso   1.000  H
  C222     1.0000 0.25281  0.89231  0.99248  Biso   1.000  C
  H222     1.0000 0.25030  0.89920  0.01090  Biso   1.000  H
  C223     1.0000 0.31645  0.85536  0.00334  Biso   1.000  C
  H223     1.0000 0.30980  0.83700  0.00030  Biso   1.000  H
  C224     1.0000 0.13009  0.78190  0.94479  Biso   1.000  C
  H224     1.0000 0.14580  0.77390  0.95370  Biso   1.000  H
  N336     1.0000 0.27729  0.88144  0.98185  Biso   1.000  N
  Cu57     1.0000 0.22050  0.87669  0.83720  Biso   1.000  Cu
  Cu58     1.0000 0.19205  0.85004  0.77457  Biso   1.000  Cu
  N337     1.0000 0.23353  0.85846  0.77719  Biso   1.000  N
  N338     1.0000 0.24548  0.87086  0.80120  Biso   1.000  N
  N339     1.0000 0.18459  0.89342  0.82193  Biso   1.000  N
  N340     1.0000 0.17447  0.88591  0.79486  Biso   1.000  N
  N341     1.0000 0.34201  0.85839  0.73323  Biso   1.000  N
  N342     1.0000 0.34033  0.88795  0.73427  Biso   1.000  N
  C225     1.0000 0.31936  0.84820  0.74564  Biso   1.000  C
  H225     1.0000 0.31520  0.82900  0.74810  Biso   1.000  H
  N343     1.0000 0.30296  0.87040  0.75431  Biso   1.000  N
  C226     1.0000 0.27194  0.87679  0.79550  Biso   1.000  C
  H226     1.0000 0.28490  0.88520  0.80790  Biso   1.000  H
  N344     1.0000 0.10676  0.98153  0.81178  Biso   1.000  N
  N345     1.0000 0.12768  0.94046  0.81348  Biso   1.000  N
  N346     1.0000 0.08835  0.96175  0.82428  Biso   1.000  N
  N347     1.0000 0.14859  0.92011  0.81123  Biso   1.000  N
  C227     1.0000 0.15275  0.90189  0.78908  Biso   1.000  C
  H227     1.0000 0.14180  0.90110  0.77260  Biso   1.000  H
  C228     1.0000 0.10136  0.93733  0.82490  Biso   1.000  C
  H228     1.0000 0.09380  0.92050  0.83200  Biso   1.000  H
  C229     1.0000 0.16867  0.91405  0.83128  Biso   1.000  C
  H229     1.0000 0.17070  0.92320  0.84870  Biso   1.000  H
  C230     1.0000 0.25281  0.85769  0.75752  Biso   1.000  C
  H230     1.0000 0.25030  0.85080  0.73910  Biso   1.000  H
  C231     1.0000 0.31645  0.89464  0.74666  Biso   1.000  C
  H231     1.0000 0.30980  0.91300  0.74970  Biso   1.000  H
  C232     1.0000 0.13009  0.96810  0.80521  Biso   1.000  C
  H232     1.0000 0.14580  0.97610  0.79630  Biso   1.000  H
  N348     1.0000 0.27729  0.86856  0.76815  Biso   1.000  N
  Cu59     1.0000 0.22050  0.37669  0.33720  Biso   1.000  Cu
  Cu60     1.0000 0.19205  0.35004  0.27457  Biso   1.000  Cu
  N349     1.0000 0.23353  0.35846  0.27719  Biso   1.000  N
  N350     1.0000 0.24548  0.37086  0.30120  Biso   1.000  N
  N351     1.0000 0.18459  0.39342  0.32193  Biso   1.000  N
  N352     1.0000 0.17447  0.38591  0.29486  Biso   1.000  N
  N353     1.0000 0.34201  0.35839  0.23323  Biso   1.000  N
  N354     1.0000 0.34033  0.38795  0.23427  Biso   1.000  N
  C233     1.0000 0.31936  0.34820  0.24564  Biso   1.000  C
  H233     1.0000 0.31520  0.32900  0.24810  Biso   1.000  H
  N355     1.0000 0.30296  0.37040  0.25431  Biso   1.000  N
  C234     1.0000 0.27194  0.37679  0.29550  Biso   1.000  C
  H234     1.0000 0.28490  0.38520  0.30790  Biso   1.000  H
  N356     1.0000 0.10676  0.48153  0.31178  Biso   1.000  N
  N357     1.0000 0.12768  0.44046  0.31348  Biso   1.000  N
  N358     1.0000 0.08835  0.46175  0.32428  Biso   1.000  N
  N359     1.0000 0.14859  0.42011  0.31123  Biso   1.000  N
  C235     1.0000 0.15275  0.40189  0.28908  Biso   1.000  C
  H235     1.0000 0.14180  0.40110  0.27260  Biso   1.000  H
  C236     1.0000 0.10136  0.43733  0.32490  Biso   1.000  C
  H236     1.0000 0.09380  0.42050  0.33200  Biso   1.000  H
  C237     1.0000 0.16867  0.41405  0.33128  Biso   1.000  C
  H237     1.0000 0.17070  0.42320  0.34870  Biso   1.000  H
  C238     1.0000 0.25281  0.35769  0.25752  Biso   1.000  C
  H238     1.0000 0.25030  0.35080  0.23910  Biso   1.000  H
  C239     1.0000 0.31645  0.39464  0.24666  Biso   1.000  C
  H239     1.0000 0.30980  0.41300  0.24970  Biso   1.000  H
  C240     1.0000 0.13009  0.46810  0.30521  Biso   1.000  C
  H240     1.0000 0.14580  0.47610  0.29630  Biso   1.000  H
  N360     1.0000 0.27729  0.36856  0.26815  Biso   1.000  N
  Cu61     1.0000 0.72050  0.87669  0.33720  Biso   1.000  Cu
  Cu62     1.0000 0.69205  0.85004  0.27457  Biso   1.000  Cu
  N361     1.0000 0.73353  0.85846  0.27719  Biso   1.000  N
  N362     1.0000 0.74548  0.87086  0.30120  Biso   1.000  N
  N363     1.0000 0.68459  0.89342  0.32193  Biso   1.000  N
  N364     1.0000 0.67447  0.88591  0.29486  Biso   1.000  N
  N365     1.0000 0.84201  0.85839  0.23323  Biso   1.000  N
  N366     1.0000 0.84033  0.88795  0.23427  Biso   1.000  N
  C241     1.0000 0.81936  0.84820  0.24564  Biso   1.000  C
  H241     1.0000 0.81520  0.82900  0.24810  Biso   1.000  H
  N367     1.0000 0.80296  0.87040  0.25431  Biso   1.000  N
  C242     1.0000 0.77194  0.87679  0.29550  Biso   1.000  C
  H242     1.0000 0.78490  0.88520  0.30790  Biso   1.000  H
  N368     1.0000 0.60676  0.98153  0.31178  Biso   1.000  N
  N369     1.0000 0.62768  0.94046  0.31348  Biso   1.000  N
  N370     1.0000 0.58835  0.96175  0.32428  Biso   1.000  N
  N371     1.0000 0.64859  0.92011  0.31123  Biso   1.000  N
  C243     1.0000 0.65275  0.90189  0.28908  Biso   1.000  C
  H243     1.0000 0.64180  0.90110  0.27260  Biso   1.000  H
  C244     1.0000 0.60136  0.93733  0.32490  Biso   1.000  C
  H244     1.0000 0.59380  0.92050  0.33200  Biso   1.000  H
  C245     1.0000 0.66867  0.91405  0.33128  Biso   1.000  C
  H245     1.0000 0.67070  0.92320  0.34870  Biso   1.000  H
  C246     1.0000 0.75281  0.85769  0.25752  Biso   1.000  C
  H246     1.0000 0.75030  0.85080  0.23910  Biso   1.000  H
  C247     1.0000 0.81645  0.89464  0.24666  Biso   1.000  C
  H247     1.0000 0.80980  0.91300  0.24970  Biso   1.000  H
  C248     1.0000 0.63009  0.96810  0.30521  Biso   1.000  C
  H248     1.0000 0.64580  0.97610  0.29630  Biso   1.000  H
  N372     1.0000 0.77729  0.86856  0.26815  Biso   1.000  N
  Cu63     1.0000 0.72050  0.37669  0.83720  Biso   1.000  Cu
  Cu64     1.0000 0.69205  0.35004  0.77457  Biso   1.000  Cu
  N373     1.0000 0.73353  0.35846  0.77719  Biso   1.000  N
  N374     1.0000 0.74548  0.37086  0.80120  Biso   1.000  N
  N375     1.0000 0.68459  0.39342  0.82193  Biso   1.000  N
  N376     1.0000 0.67447  0.38591  0.79486  Biso   1.000  N
  N377     1.0000 0.84201  0.35839  0.73323  Biso   1.000  N
  N378     1.0000 0.84033  0.38795  0.73427  Biso   1.000  N
  C249     1.0000 0.81936  0.34820  0.74564  Biso   1.000  C
  H249     1.0000 0.81520  0.32900  0.74810  Biso   1.000  H
  N379     1.0000 0.80296  0.37040  0.75431  Biso   1.000  N
  C250     1.0000 0.77194  0.37679  0.79550  Biso   1.000  C
  H250     1.0000 0.78490  0.38520  0.80790  Biso   1.000  H
  N380     1.0000 0.60676  0.48153  0.81178  Biso   1.000  N
  N381     1.0000 0.62768  0.44046  0.81348  Biso   1.000  N
  N382     1.0000 0.58835  0.46175  0.82428  Biso   1.000  N
  N383     1.0000 0.64859  0.42011  0.81123  Biso   1.000  N
  C251     1.0000 0.65275  0.40189  0.78908  Biso   1.000  C
  H251     1.0000 0.64180  0.40110  0.77260  Biso   1.000  H
  C252     1.0000 0.60136  0.43733  0.82490  Biso   1.000  C
  H252     1.0000 0.59380  0.42050  0.83200  Biso   1.000  H
  C253     1.0000 0.66867  0.41405  0.83128  Biso   1.000  C
  H253     1.0000 0.67070  0.42320  0.84870  Biso   1.000  H
  C254     1.0000 0.75281  0.35769  0.75752  Biso   1.000  C
  H254     1.0000 0.75030  0.35080  0.73910  Biso   1.000  H
  C255     1.0000 0.81645  0.39464  0.74666  Biso   1.000  C
  H255     1.0000 0.80980  0.41300  0.74970  Biso   1.000  H
  C256     1.0000 0.63009  0.46810  0.80521  Biso   1.000  C
  H256     1.0000 0.64580  0.47610  0.79630  Biso   1.000  H
  N384     1.0000 0.77729  0.36856  0.76815  Biso   1.000  N
  Cu65     1.0000 0.41280  0.52951  0.37669  Biso   1.000  Cu
  Cu66     1.0000 0.47543  0.55795  0.35004  Biso   1.000  Cu
  N385     1.0000 0.47281  0.51647  0.35846  Biso   1.000  N
  N386     1.0000 0.44880  0.50452  0.37086  Biso   1.000  N
  N387     1.0000 0.42807  0.56541  0.39342  Biso   1.000  N
  N388     1.0000 0.45514  0.57553  0.38591  Biso   1.000  N
  N389     1.0000 0.51677  0.40799  0.35839  Biso   1.000  N
  N390     1.0000 0.51573  0.40967  0.38795  Biso   1.000  N
  C257     1.0000 0.50436  0.43064  0.34820  Biso   1.000  C
  H257     1.0000 0.50190  0.43480  0.32900  Biso   1.000  H
  N391     1.0000 0.49569  0.44704  0.37040  Biso   1.000  N
  C258     1.0000 0.45450  0.47806  0.37679  Biso   1.000  C
  H258     1.0000 0.44210  0.46510  0.38520  Biso   1.000  H
  N392     1.0000 0.43822  0.64324  0.48153  Biso   1.000  N
  N393     1.0000 0.43652  0.62232  0.44046  Biso   1.000  N
  N394     1.0000 0.42572  0.66165  0.46175  Biso   1.000  N
  N395     1.0000 0.43877  0.60141  0.42011  Biso   1.000  N
  C259     1.0000 0.46092  0.59725  0.40189  Biso   1.000  C
  H259     1.0000 0.47740  0.60820  0.40110  Biso   1.000  H
  C260     1.0000 0.42510  0.64864  0.43733  Biso   1.000  C
  H260     1.0000 0.41800  0.65620  0.42050  Biso   1.000  H
  C261     1.0000 0.41872  0.58133  0.41405  Biso   1.000  C
  H261     1.0000 0.40130  0.57930  0.42320  Biso   1.000  H
  C262     1.0000 0.49248  0.49719  0.35769  Biso   1.000  C
  H262     1.0000 0.51090  0.49970  0.35080  Biso   1.000  H
  C263     1.0000 0.50334  0.43355  0.39464  Biso   1.000  C
  H263     1.0000 0.50030  0.44020  0.41300  Biso   1.000  H
  C264     1.0000 0.44479  0.61991  0.46810  Biso   1.000  C
  H264     1.0000 0.45370  0.60420  0.47610  Biso   1.000  H
  N396     1.0000 0.48185  0.47271  0.36856  Biso   1.000  N
  Cu67     1.0000 0.41280  0.02951  0.87669  Biso   1.000  Cu
  Cu68     1.0000 0.47543  0.05795  0.85004  Biso   1.000  Cu
  N397     1.0000 0.47281  0.01647  0.85846  Biso   1.000  N
  N398     1.0000 0.44880  0.00452  0.87086  Biso   1.000  N
  N399     1.0000 0.42807  0.06541  0.89342  Biso   1.000  N
  N400     1.0000 0.45514  0.07553  0.88591  Biso   1.000  N
  N401     1.0000 0.51677  0.90799  0.85839  Biso   1.000  N
  N402     1.0000 0.51573  0.90967  0.88795  Biso   1.000  N
  C265     1.0000 0.50436  0.93064  0.84820  Biso   1.000  C
  H265     1.0000 0.50190  0.93480  0.82900  Biso   1.000  H
  N403     1.0000 0.49569  0.94704  0.87040  Biso   1.000  N
  C266     1.0000 0.45450  0.97806  0.87679  Biso   1.000  C
  H266     1.0000 0.44210  0.96510  0.88520  Biso   1.000  H
  N404     1.0000 0.43822  0.14324  0.98153  Biso   1.000  N
  N405     1.0000 0.43652  0.12232  0.94046  Biso   1.000  N
  N406     1.0000 0.42572  0.16165  0.96175  Biso   1.000  N
  N407     1.0000 0.43877  0.10141  0.92011  Biso   1.000  N
  C267     1.0000 0.46092  0.09725  0.90189  Biso   1.000  C
  H267     1.0000 0.47740  0.10820  0.90110  Biso   1.000  H
  C268     1.0000 0.42510  0.14864  0.93733  Biso   1.000  C
  H268     1.0000 0.41800  0.15620  0.92050  Biso   1.000  H
  C269     1.0000 0.41872  0.08133  0.91405  Biso   1.000  C
  H269     1.0000 0.40130  0.07930  0.92320  Biso   1.000  H
  C270     1.0000 0.49248  0.99719  0.85769  Biso   1.000  C
  H270     1.0000 0.51090  0.99970  0.85080  Biso   1.000  H
  C271     1.0000 0.50334  0.93355  0.89464  Biso   1.000  C
  H271     1.0000 0.50030  0.94020  0.91300  Biso   1.000  H
  C272     1.0000 0.44479  0.11991  0.96810  Biso   1.000  C
  H272     1.0000 0.45370  0.10420  0.97610  Biso   1.000  H
  N408     1.0000 0.48185  0.97271  0.86856  Biso   1.000  N
  Cu69     1.0000 0.91280  0.52951  0.87669  Biso   1.000  Cu
  Cu70     1.0000 0.97543  0.55795  0.85004  Biso   1.000  Cu
  N409     1.0000 0.97281  0.51647  0.85846  Biso   1.000  N
  N410     1.0000 0.94880  0.50452  0.87086  Biso   1.000  N
  N411     1.0000 0.92807  0.56541  0.89342  Biso   1.000  N
  N412     1.0000 0.95514  0.57553  0.88591  Biso   1.000  N
  N413     1.0000 0.01677  0.40799  0.85839  Biso   1.000  N
  N414     1.0000 0.01573  0.40967  0.88795  Biso   1.000  N
  C273     1.0000 0.00436  0.43064  0.84820  Biso   1.000  C
  H273     1.0000 0.00190  0.43480  0.82900  Biso   1.000  H
  N415     1.0000 0.99569  0.44704  0.87040  Biso   1.000  N
  C274     1.0000 0.95450  0.47806  0.87679  Biso   1.000  C
  H274     1.0000 0.94210  0.46510  0.88520  Biso   1.000  H
  N416     1.0000 0.93822  0.64324  0.98153  Biso   1.000  N
  N417     1.0000 0.93652  0.62232  0.94046  Biso   1.000  N
  N418     1.0000 0.92572  0.66165  0.96175  Biso   1.000  N
  N419     1.0000 0.93877  0.60141  0.92011  Biso   1.000  N
  C275     1.0000 0.96092  0.59725  0.90189  Biso   1.000  C
  H275     1.0000 0.97740  0.60820  0.90110  Biso   1.000  H
  C276     1.0000 0.92510  0.64864  0.93733  Biso   1.000  C
  H276     1.0000 0.91800  0.65620  0.92050  Biso   1.000  H
  C277     1.0000 0.91872  0.58133  0.91405  Biso   1.000  C
  H277     1.0000 0.90130  0.57930  0.92320  Biso   1.000  H
  C278     1.0000 0.99248  0.49719  0.85769  Biso   1.000  C
  H278     1.0000 0.01090  0.49970  0.85080  Biso   1.000  H
  C279     1.0000 0.00334  0.43355  0.89464  Biso   1.000  C
  H279     1.0000 0.00030  0.44020  0.91300  Biso   1.000  H
  C280     1.0000 0.94479  0.61991  0.96810  Biso   1.000  C
  H280     1.0000 0.95370  0.60420  0.97610  Biso   1.000  H
  N420     1.0000 0.98185  0.47271  0.86856  Biso   1.000  N
  Cu71     1.0000 0.91280  0.02951  0.37669  Biso   1.000  Cu
  Cu72     1.0000 0.97543  0.05795  0.35004  Biso   1.000  Cu
  N421     1.0000 0.97281  0.01647  0.35846  Biso   1.000  N
  N422     1.0000 0.94880  0.00452  0.37086  Biso   1.000  N
  N423     1.0000 0.92807  0.06541  0.39342  Biso   1.000  N
  N424     1.0000 0.95514  0.07553  0.38591  Biso   1.000  N
  N425     1.0000 0.01677  0.90799  0.35839  Biso   1.000  N
  N426     1.0000 0.01573  0.90967  0.38795  Biso   1.000  N
  C281     1.0000 0.00436  0.93064  0.34820  Biso   1.000  C
  H281     1.0000 0.00190  0.93480  0.32900  Biso   1.000  H
  N427     1.0000 0.99569  0.94704  0.37040  Biso   1.000  N
  C282     1.0000 0.95450  0.97806  0.37679  Biso   1.000  C
  H282     1.0000 0.94210  0.96510  0.38520  Biso   1.000  H
  N428     1.0000 0.93822  0.14324  0.48153  Biso   1.000  N
  N429     1.0000 0.93652  0.12232  0.44046  Biso   1.000  N
  N430     1.0000 0.92572  0.16165  0.46175  Biso   1.000  N
  N431     1.0000 0.93877  0.10141  0.42011  Biso   1.000  N
  C283     1.0000 0.96092  0.09725  0.40189  Biso   1.000  C
  H283     1.0000 0.97740  0.10820  0.40110  Biso   1.000  H
  C284     1.0000 0.92510  0.14864  0.43733  Biso   1.000  C
  H284     1.0000 0.91800  0.15620  0.42050  Biso   1.000  H
  C285     1.0000 0.91872  0.08133  0.41405  Biso   1.000  C
  H285     1.0000 0.90130  0.07930  0.42320  Biso   1.000  H
  C286     1.0000 0.99248  0.99719  0.35769  Biso   1.000  C
  H286     1.0000 0.01090  0.99970  0.35080  Biso   1.000  H
  C287     1.0000 0.00334  0.93355  0.39464  Biso   1.000  C
  H287     1.0000 0.00030  0.94020  0.41300  Biso   1.000  H
  C288     1.0000 0.94479  0.11991  0.46810  Biso   1.000  C
  H288     1.0000 0.95370  0.10420  0.47610  Biso   1.000  H
  N432     1.0000 0.98185  0.97271  0.36856  Biso   1.000  N
  Cu73     1.0000 0.33720  0.02951  0.87331  Biso   1.000  Cu
  Cu74     1.0000 0.27457  0.05795  0.89996  Biso   1.000  Cu
  N433     1.0000 0.27719  0.01647  0.89154  Biso   1.000  N
  N434     1.0000 0.30120  0.00452  0.87914  Biso   1.000  N
  N435     1.0000 0.32193  0.06541  0.85658  Biso   1.000  N
  N436     1.0000 0.29486  0.07553  0.86409  Biso   1.000  N
  N437     1.0000 0.23323  0.90799  0.89161  Biso   1.000  N
  N438     1.0000 0.23427  0.90967  0.86205  Biso   1.000  N
  C289     1.0000 0.24564  0.93064  0.90180  Biso   1.000  C
  H289     1.0000 0.24810  0.93480  0.92100  Biso   1.000  H
  N439     1.0000 0.25431  0.94704  0.87960  Biso   1.000  N
  C290     1.0000 0.29550  0.97806  0.87321  Biso   1.000  C
  H290     1.0000 0.30790  0.96510  0.86480  Biso   1.000  H
  N440     1.0000 0.31178  0.14324  0.76847  Biso   1.000  N
  N441     1.0000 0.31348  0.12232  0.80954  Biso   1.000  N
  N442     1.0000 0.32428  0.16165  0.78825  Biso   1.000  N
  N443     1.0000 0.31123  0.10141  0.82989  Biso   1.000  N
  C291     1.0000 0.28908  0.09725  0.84811  Biso   1.000  C
  H291     1.0000 0.27260  0.10820  0.84890  Biso   1.000  H
  C292     1.0000 0.32490  0.14864  0.81267  Biso   1.000  C
  H292     1.0000 0.33200  0.15620  0.82950  Biso   1.000  H
  C293     1.0000 0.33128  0.08133  0.83595  Biso   1.000  C
  H293     1.0000 0.34870  0.07930  0.82680  Biso   1.000  H
  C294     1.0000 0.25752  0.99719  0.89231  Biso   1.000  C
  H294     1.0000 0.23910  0.99970  0.89920  Biso   1.000  H
  C295     1.0000 0.24666  0.93355  0.85536  Biso   1.000  C
  H295     1.0000 0.24970  0.94020  0.83700  Biso   1.000  H
  C296     1.0000 0.30521  0.11991  0.78190  Biso   1.000  C
  H296     1.0000 0.29630  0.10420  0.77390  Biso   1.000  H
  N444     1.0000 0.26815  0.97271  0.88144  Biso   1.000  N
  Cu75     1.0000 0.33720  0.52951  0.37331  Biso   1.000  Cu
  Cu76     1.0000 0.27457  0.55795  0.39996  Biso   1.000  Cu
  N445     1.0000 0.27719  0.51647  0.39154  Biso   1.000  N
  N446     1.0000 0.30120  0.50452  0.37914  Biso   1.000  N
  N447     1.0000 0.32193  0.56541  0.35658  Biso   1.000  N
  N448     1.0000 0.29486  0.57553  0.36409  Biso   1.000  N
  N449     1.0000 0.23323  0.40799  0.39161  Biso   1.000  N
  N450     1.0000 0.23427  0.40967  0.36205  Biso   1.000  N
  C297     1.0000 0.24564  0.43064  0.40180  Biso   1.000  C
  H297     1.0000 0.24810  0.43480  0.42100  Biso   1.000  H
  N451     1.0000 0.25431  0.44704  0.37960  Biso   1.000  N
  C298     1.0000 0.29550  0.47806  0.37321  Biso   1.000  C
  H298     1.0000 0.30790  0.46510  0.36480  Biso   1.000  H
  N452     1.0000 0.31178  0.64324  0.26847  Biso   1.000  N
  N453     1.0000 0.31348  0.62232  0.30954  Biso   1.000  N
  N454     1.0000 0.32428  0.66165  0.28825  Biso   1.000  N
  N455     1.0000 0.31123  0.60141  0.32989  Biso   1.000  N
  C299     1.0000 0.28908  0.59725  0.34811  Biso   1.000  C
  H299     1.0000 0.27260  0.60820  0.34890  Biso   1.000  H
  C300     1.0000 0.32490  0.64864  0.31267  Biso   1.000  C
  H300     1.0000 0.33200  0.65620  0.32950  Biso   1.000  H
  C301     1.0000 0.33128  0.58133  0.33595  Biso   1.000  C
  H301     1.0000 0.34870  0.57930  0.32680  Biso   1.000  H
  C302     1.0000 0.25752  0.49719  0.39231  Biso   1.000  C
  H302     1.0000 0.23910  0.49970  0.39920  Biso   1.000  H
  C303     1.0000 0.24666  0.43355  0.35536  Biso   1.000  C
  H303     1.0000 0.24970  0.44020  0.33700  Biso   1.000  H
  C304     1.0000 0.30521  0.61991  0.28190  Biso   1.000  C
  H304     1.0000 0.29630  0.60420  0.27390  Biso   1.000  H
  N456     1.0000 0.26815  0.47271  0.38144  Biso   1.000  N
  Cu77     1.0000 0.83720  0.02951  0.37331  Biso   1.000  Cu
  Cu78     1.0000 0.77457  0.05795  0.39996  Biso   1.000  Cu
  N457     1.0000 0.77719  0.01647  0.39154  Biso   1.000  N
  N458     1.0000 0.80120  0.00452  0.37914  Biso   1.000  N
  N459     1.0000 0.82193  0.06541  0.35658  Biso   1.000  N
  N460     1.0000 0.79486  0.07553  0.36409  Biso   1.000  N
  N461     1.0000 0.73323  0.90799  0.39161  Biso   1.000  N
  N462     1.0000 0.73427  0.90967  0.36205  Biso   1.000  N
  C305     1.0000 0.74564  0.93064  0.40180  Biso   1.000  C
  H305     1.0000 0.74810  0.93480  0.42100  Biso   1.000  H
  N463     1.0000 0.75431  0.94704  0.37960  Biso   1.000  N
  C306     1.0000 0.79550  0.97806  0.37321  Biso   1.000  C
  H306     1.0000 0.80790  0.96510  0.36480  Biso   1.000  H
  N464     1.0000 0.81178  0.14324  0.26847  Biso   1.000  N
  N465     1.0000 0.81348  0.12232  0.30954  Biso   1.000  N
  N466     1.0000 0.82428  0.16165  0.28825  Biso   1.000  N
  N467     1.0000 0.81123  0.10141  0.32989  Biso   1.000  N
  C307     1.0000 0.78908  0.09725  0.34811  Biso   1.000  C
  H307     1.0000 0.77260  0.10820  0.34890  Biso   1.000  H
  C308     1.0000 0.82490  0.14864  0.31267  Biso   1.000  C
  H308     1.0000 0.83200  0.15620  0.32950  Biso   1.000  H
  C309     1.0000 0.83128  0.08133  0.33595  Biso   1.000  C
  H309     1.0000 0.84870  0.07930  0.32680  Biso   1.000  H
  C310     1.0000 0.75752  0.99719  0.39231  Biso   1.000  C
  H310     1.0000 0.73910  0.99970  0.39920  Biso   1.000  H
  C311     1.0000 0.74666  0.93355  0.35536  Biso   1.000  C
  H311     1.0000 0.74970  0.94020  0.33700  Biso   1.000  H
  C312     1.0000 0.80521  0.11991  0.28190  Biso   1.000  C
  H312     1.0000 0.79630  0.10420  0.27390  Biso   1.000  H
  N468     1.0000 0.76815  0.97271  0.38144  Biso   1.000  N
  Cu79     1.0000 0.83720  0.52951  0.87331  Biso   1.000  Cu
  Cu80     1.0000 0.77457  0.55795  0.89996  Biso   1.000  Cu
  N469     1.0000 0.77719  0.51647  0.89154  Biso   1.000  N
  N470     1.0000 0.80120  0.50452  0.87914  Biso   1.000  N
  N471     1.0000 0.82193  0.56541  0.85658  Biso   1.000  N
  N472     1.0000 0.79486  0.57553  0.86409  Biso   1.000  N
  N473     1.0000 0.73323  0.40799  0.89161  Biso   1.000  N
  N474     1.0000 0.73427  0.40967  0.86205  Biso   1.000  N
  C313     1.0000 0.74564  0.43064  0.90180  Biso   1.000  C
  H313     1.0000 0.74810  0.43480  0.92100  Biso   1.000  H
  N475     1.0000 0.75431  0.44704  0.87960  Biso   1.000  N
  C314     1.0000 0.79550  0.47806  0.87321  Biso   1.000  C
  H314     1.0000 0.80790  0.46510  0.86480  Biso   1.000  H
  N476     1.0000 0.81178  0.64324  0.76847  Biso   1.000  N
  N477     1.0000 0.81348  0.62232  0.80954  Biso   1.000  N
  N478     1.0000 0.82428  0.66165  0.78825  Biso   1.000  N
  N479     1.0000 0.81123  0.60141  0.82989  Biso   1.000  N
  C315     1.0000 0.78908  0.59725  0.84811  Biso   1.000  C
  H315     1.0000 0.77260  0.60820  0.84890  Biso   1.000  H
  C316     1.0000 0.82490  0.64864  0.81267  Biso   1.000  C
  H316     1.0000 0.83200  0.65620  0.82950  Biso   1.000  H
  C317     1.0000 0.83128  0.58133  0.83595  Biso   1.000  C
  H317     1.0000 0.84870  0.57930  0.82680  Biso   1.000  H
  C318     1.0000 0.75752  0.49719  0.89231  Biso   1.000  C
  H318     1.0000 0.73910  0.49970  0.89920  Biso   1.000  H
  C319     1.0000 0.74666  0.43355  0.85536  Biso   1.000  C
  H319     1.0000 0.74970  0.44020  0.83700  Biso   1.000  H
  C320     1.0000 0.80521  0.61991  0.78190  Biso   1.000  C
  H320     1.0000 0.79630  0.60420  0.77390  Biso   1.000  H
  N480     1.0000 0.76815  0.47271  0.88144  Biso   1.000  N
  Cu81     1.0000 0.91280  0.72050  0.37331  Biso   1.000  Cu
  Cu82     1.0000 0.97543  0.69205  0.39996  Biso   1.000  Cu
  N481     1.0000 0.97281  0.73353  0.39154  Biso   1.000  N
  N482     1.0000 0.94880  0.74548  0.37914  Biso   1.000  N
  N483     1.0000 0.92807  0.68459  0.35658  Biso   1.000  N
  N484     1.0000 0.95514  0.67447  0.36409  Biso   1.000  N
  N485     1.0000 0.01677  0.84201  0.39161  Biso   1.000  N
  N486     1.0000 0.01573  0.84033  0.36205  Biso   1.000  N
  C321     1.0000 0.00436  0.81936  0.40180  Biso   1.000  C
  H321     1.0000 0.00190  0.81520  0.42100  Biso   1.000  H
  N487     1.0000 0.99569  0.80296  0.37960  Biso   1.000  N
  C322     1.0000 0.95450  0.77194  0.37321  Biso   1.000  C
  H322     1.0000 0.94210  0.78490  0.36480  Biso   1.000  H
  N488     1.0000 0.93822  0.60676  0.26847  Biso   1.000  N
  N489     1.0000 0.93652  0.62768  0.30954  Biso   1.000  N
  N490     1.0000 0.92572  0.58835  0.28825  Biso   1.000  N
  N491     1.0000 0.93877  0.64859  0.32989  Biso   1.000  N
  C323     1.0000 0.96092  0.65275  0.34811  Biso   1.000  C
  H323     1.0000 0.97740  0.64180  0.34890  Biso   1.000  H
  C324     1.0000 0.92510  0.60136  0.31267  Biso   1.000  C
  H324     1.0000 0.91800  0.59380  0.32950  Biso   1.000  H
  C325     1.0000 0.91872  0.66867  0.33595  Biso   1.000  C
  H325     1.0000 0.90130  0.67070  0.32680  Biso   1.000  H
  C326     1.0000 0.99248  0.75281  0.39231  Biso   1.000  C
  H326     1.0000 0.01090  0.75030  0.39920  Biso   1.000  H
  C327     1.0000 0.00334  0.81645  0.35536  Biso   1.000  C
  H327     1.0000 0.00030  0.80980  0.33700  Biso   1.000  H
  C328     1.0000 0.94479  0.63009  0.28190  Biso   1.000  C
  H328     1.0000 0.95370  0.64580  0.27390  Biso   1.000  H
  N492     1.0000 0.98185  0.77729  0.38144  Biso   1.000  N
  Cu83     1.0000 0.91280  0.22050  0.87331  Biso   1.000  Cu
  Cu84     1.0000 0.97543  0.19205  0.89996  Biso   1.000  Cu
  N493     1.0000 0.97281  0.23353  0.89154  Biso   1.000  N
  N494     1.0000 0.94880  0.24548  0.87914  Biso   1.000  N
  N495     1.0000 0.92807  0.18459  0.85658  Biso   1.000  N
  N496     1.0000 0.95514  0.17447  0.86409  Biso   1.000  N
  N497     1.0000 0.01677  0.34201  0.89161  Biso   1.000  N
  N498     1.0000 0.01573  0.34033  0.86205  Biso   1.000  N
  C329     1.0000 0.00436  0.31936  0.90180  Biso   1.000  C
  H329     1.0000 0.00190  0.31520  0.92100  Biso   1.000  H
  N499     1.0000 0.99569  0.30296  0.87960  Biso   1.000  N
  C330     1.0000 0.95450  0.27194  0.87321  Biso   1.000  C
  H330     1.0000 0.94210  0.28490  0.86480  Biso   1.000  H
  N500     1.0000 0.93822  0.10676  0.76847  Biso   1.000  N
  N501     1.0000 0.93652  0.12768  0.80954  Biso   1.000  N
  N502     1.0000 0.92572  0.08835  0.78825  Biso   1.000  N
  N503     1.0000 0.93877  0.14859  0.82989  Biso   1.000  N
  C331     1.0000 0.96092  0.15275  0.84811  Biso   1.000  C
  H331     1.0000 0.97740  0.14180  0.84890  Biso   1.000  H
  C332     1.0000 0.92510  0.10136  0.81267  Biso   1.000  C
  H332     1.0000 0.91800  0.09380  0.82950  Biso   1.000  H
  C333     1.0000 0.91872  0.16867  0.83595  Biso   1.000  C
  H333     1.0000 0.90130  0.17070  0.82680  Biso   1.000  H
  C334     1.0000 0.99248  0.25281  0.89231  Biso   1.000  C
  H334     1.0000 0.01090  0.25030  0.89920  Biso   1.000  H
  C335     1.0000 0.00334  0.31645  0.85536  Biso   1.000  C
  H335     1.0000 0.00030  0.30980  0.83700  Biso   1.000  H
  C336     1.0000 0.94479  0.13009  0.78190  Biso   1.000  C
  H336     1.0000 0.95370  0.14580  0.77390  Biso   1.000  H
  N504     1.0000 0.98185  0.27729  0.88144  Biso   1.000  N
  Cu85     1.0000 0.41280  0.72050  0.87331  Biso   1.000  Cu
  Cu86     1.0000 0.47543  0.69205  0.89996  Biso   1.000  Cu
  N505     1.0000 0.47281  0.73353  0.89154  Biso   1.000  N
  N506     1.0000 0.44880  0.74548  0.87914  Biso   1.000  N
  N507     1.0000 0.42807  0.68459  0.85658  Biso   1.000  N
  N508     1.0000 0.45514  0.67447  0.86409  Biso   1.000  N
  N509     1.0000 0.51677  0.84201  0.89161  Biso   1.000  N
  N510     1.0000 0.51573  0.84033  0.86205  Biso   1.000  N
  C337     1.0000 0.50436  0.81936  0.90180  Biso   1.000  C
  H337     1.0000 0.50190  0.81520  0.92100  Biso   1.000  H
  N511     1.0000 0.49569  0.80296  0.87960  Biso   1.000  N
  C338     1.0000 0.45450  0.77194  0.87321  Biso   1.000  C
  H338     1.0000 0.44210  0.78490  0.86480  Biso   1.000  H
  N512     1.0000 0.43822  0.60676  0.76847  Biso   1.000  N
  N513     1.0000 0.43652  0.62768  0.80954  Biso   1.000  N
  N514     1.0000 0.42572  0.58835  0.78825  Biso   1.000  N
  N515     1.0000 0.43877  0.64859  0.82989  Biso   1.000  N
  C339     1.0000 0.46092  0.65275  0.84811  Biso   1.000  C
  H339     1.0000 0.47740  0.64180  0.84890  Biso   1.000  H
  C340     1.0000 0.42510  0.60136  0.81267  Biso   1.000  C
  H340     1.0000 0.41800  0.59380  0.82950  Biso   1.000  H
  C341     1.0000 0.41872  0.66867  0.83595  Biso   1.000  C
  H341     1.0000 0.40130  0.67070  0.82680  Biso   1.000  H
  C342     1.0000 0.49248  0.75281  0.89231  Biso   1.000  C
  H342     1.0000 0.51090  0.75030  0.89920  Biso   1.000  H
  C343     1.0000 0.50334  0.81645  0.85536  Biso   1.000  C
  H343     1.0000 0.50030  0.80980  0.83700  Biso   1.000  H
  C344     1.0000 0.44479  0.63009  0.78190  Biso   1.000  C
  H344     1.0000 0.45370  0.64580  0.77390  Biso   1.000  H
  N516     1.0000 0.48185  0.77729  0.88144  Biso   1.000  N
  Cu87     1.0000 0.41280  0.22050  0.37331  Biso   1.000  Cu
  Cu88     1.0000 0.47543  0.19205  0.39996  Biso   1.000  Cu
  N517     1.0000 0.47281  0.23353  0.39154  Biso   1.000  N
  N518     1.0000 0.44880  0.24548  0.37914  Biso   1.000  N
  N519     1.0000 0.42807  0.18459  0.35658  Biso   1.000  N
  N520     1.0000 0.45514  0.17447  0.36409  Biso   1.000  N
  N521     1.0000 0.51677  0.34201  0.39161  Biso   1.000  N
  N522     1.0000 0.51573  0.34033  0.36205  Biso   1.000  N
  C345     1.0000 0.50436  0.31936  0.40180  Biso   1.000  C
  H345     1.0000 0.50190  0.31520  0.42100  Biso   1.000  H
  N523     1.0000 0.49569  0.30296  0.37960  Biso   1.000  N
  C346     1.0000 0.45450  0.27194  0.37321  Biso   1.000  C
  H346     1.0000 0.44210  0.28490  0.36480  Biso   1.000  H
  N524     1.0000 0.43822  0.10676  0.26847  Biso   1.000  N
  N525     1.0000 0.43652  0.12768  0.30954  Biso   1.000  N
  N526     1.0000 0.42572  0.08835  0.28825  Biso   1.000  N
  N527     1.0000 0.43877  0.14859  0.32989  Biso   1.000  N
  C347     1.0000 0.46092  0.15275  0.34811  Biso   1.000  C
  H347     1.0000 0.47740  0.14180  0.34890  Biso   1.000  H
  C348     1.0000 0.42510  0.10136  0.31267  Biso   1.000  C
  H348     1.0000 0.41800  0.09380  0.32950  Biso   1.000  H
  C349     1.0000 0.41872  0.16867  0.33595  Biso   1.000  C
  H349     1.0000 0.40130  0.17070  0.32680  Biso   1.000  H
  C350     1.0000 0.49248  0.25281  0.39231  Biso   1.000  C
  H350     1.0000 0.51090  0.25030  0.39920  Biso   1.000  H
  C351     1.0000 0.50334  0.31645  0.35536  Biso   1.000  C
  H351     1.0000 0.50030  0.30980  0.33700  Biso   1.000  H
  C352     1.0000 0.44479  0.13009  0.28190  Biso   1.000  C
  H352     1.0000 0.45370  0.14580  0.27390  Biso   1.000  H
  N528     1.0000 0.48185  0.27729  0.38144  Biso   1.000  N
  Cu89     1.0000 0.83720  0.22050  0.87669  Biso   1.000  Cu
  Cu90     1.0000 0.77457  0.19205  0.85004  Biso   1.000  Cu
  N529     1.0000 0.77719  0.23353  0.85846  Biso   1.000  N
  N530     1.0000 0.80120  0.24548  0.87086  Biso   1.000  N
  N531     1.0000 0.82193  0.18459  0.89342  Biso   1.000  N
  N532     1.0000 0.79486  0.17447  0.88591  Biso   1.000  N
  N533     1.0000 0.73323  0.34201  0.85839  Biso   1.000  N
  N534     1.0000 0.73427  0.34033  0.88795  Biso   1.000  N
  C353     1.0000 0.74564  0.31936  0.84820  Biso   1.000  C
  H353     1.0000 0.74810  0.31520  0.82900  Biso   1.000  H
  N535     1.0000 0.75431  0.30296  0.87040  Biso   1.000  N
  C354     1.0000 0.79550  0.27194  0.87679  Biso   1.000  C
  H354     1.0000 0.80790  0.28490  0.88520  Biso   1.000  H
  N536     1.0000 0.81178  0.10676  0.98153  Biso   1.000  N
  N537     1.0000 0.81348  0.12768  0.94046  Biso   1.000  N
  N538     1.0000 0.82428  0.08835  0.96175  Biso   1.000  N
  N539     1.0000 0.81123  0.14859  0.92011  Biso   1.000  N
  C355     1.0000 0.78908  0.15275  0.90189  Biso   1.000  C
  H355     1.0000 0.77260  0.14180  0.90110  Biso   1.000  H
  C356     1.0000 0.82490  0.10136  0.93733  Biso   1.000  C
  H356     1.0000 0.83200  0.09380  0.92050  Biso   1.000  H
  C357     1.0000 0.83128  0.16867  0.91405  Biso   1.000  C
  H357     1.0000 0.84870  0.17070  0.92320  Biso   1.000  H
  C358     1.0000 0.75752  0.25281  0.85769  Biso   1.000  C
  H358     1.0000 0.73910  0.25030  0.85080  Biso   1.000  H
  C359     1.0000 0.74666  0.31645  0.89464  Biso   1.000  C
  H359     1.0000 0.74970  0.30980  0.91300  Biso   1.000  H
  C360     1.0000 0.80521  0.13009  0.96810  Biso   1.000  C
  H360     1.0000 0.79630  0.14580  0.97610  Biso   1.000  H
  N540     1.0000 0.76815  0.27729  0.86856  Biso   1.000  N
  Cu91     1.0000 0.83720  0.72050  0.37669  Biso   1.000  Cu
  Cu92     1.0000 0.77457  0.69205  0.35004  Biso   1.000  Cu
  N541     1.0000 0.77719  0.73353  0.35846  Biso   1.000  N
  N542     1.0000 0.80120  0.74548  0.37086  Biso   1.000  N
  N543     1.0000 0.82193  0.68459  0.39342  Biso   1.000  N
  N544     1.0000 0.79486  0.67447  0.38591  Biso   1.000  N
  N545     1.0000 0.73323  0.84201  0.35839  Biso   1.000  N
  N546     1.0000 0.73427  0.84033  0.38795  Biso   1.000  N
  C361     1.0000 0.74564  0.81936  0.34820  Biso   1.000  C
  H361     1.0000 0.74810  0.81520  0.32900  Biso   1.000  H
  N547     1.0000 0.75431  0.80296  0.37040  Biso   1.000  N
  C362     1.0000 0.79550  0.77194  0.37679  Biso   1.000  C
  H362     1.0000 0.80790  0.78490  0.38520  Biso   1.000  H
  N548     1.0000 0.81178  0.60676  0.48153  Biso   1.000  N
  N549     1.0000 0.81348  0.62768  0.44046  Biso   1.000  N
  N550     1.0000 0.82428  0.58835  0.46175  Biso   1.000  N
  N551     1.0000 0.81123  0.64859  0.42011  Biso   1.000  N
  C363     1.0000 0.78908  0.65275  0.40189  Biso   1.000  C
  H363     1.0000 0.77260  0.64180  0.40110  Biso   1.000  H
  C364     1.0000 0.82490  0.60136  0.43733  Biso   1.000  C
  H364     1.0000 0.83200  0.59380  0.42050  Biso   1.000  H
  C365     1.0000 0.83128  0.66867  0.41405  Biso   1.000  C
  H365     1.0000 0.84870  0.67070  0.42320  Biso   1.000  H
  C366     1.0000 0.75752  0.75281  0.35769  Biso   1.000  C
  H366     1.0000 0.73910  0.75030  0.35080  Biso   1.000  H
  C367     1.0000 0.74666  0.81645  0.39464  Biso   1.000  C
  H367     1.0000 0.74970  0.80980  0.41300  Biso   1.000  H
  C368     1.0000 0.80521  0.63009  0.46810  Biso   1.000  C
  H368     1.0000 0.79630  0.64580  0.47610  Biso   1.000  H
  N552     1.0000 0.76815  0.77729  0.36856  Biso   1.000  N
  Cu93     1.0000 0.33720  0.22050  0.37669  Biso   1.000  Cu
  Cu94     1.0000 0.27457  0.19205  0.35004  Biso   1.000  Cu
  N553     1.0000 0.27719  0.23353  0.35846  Biso   1.000  N
  N554     1.0000 0.30120  0.24548  0.37086  Biso   1.000  N
  N555     1.0000 0.32193  0.18459  0.39342  Biso   1.000  N
  N556     1.0000 0.29486  0.17447  0.38591  Biso   1.000  N
  N557     1.0000 0.23323  0.34201  0.35839  Biso   1.000  N
  N558     1.0000 0.23427  0.34033  0.38795  Biso   1.000  N
  C369     1.0000 0.24564  0.31936  0.34820  Biso   1.000  C
  H369     1.0000 0.24810  0.31520  0.32900  Biso   1.000  H
  N559     1.0000 0.25431  0.30296  0.37040  Biso   1.000  N
  C370     1.0000 0.29550  0.27194  0.37679  Biso   1.000  C
  H370     1.0000 0.30790  0.28490  0.38520  Biso   1.000  H
  N560     1.0000 0.31178  0.10676  0.48153  Biso   1.000  N
  N561     1.0000 0.31348  0.12768  0.44046  Biso   1.000  N
  N562     1.0000 0.32428  0.08835  0.46175  Biso   1.000  N
  N563     1.0000 0.31123  0.14859  0.42011  Biso   1.000  N
  C371     1.0000 0.28908  0.15275  0.40189  Biso   1.000  C
  H371     1.0000 0.27260  0.14180  0.40110  Biso   1.000  H
  C372     1.0000 0.32490  0.10136  0.43733  Biso   1.000  C
  H372     1.0000 0.33200  0.09380  0.42050  Biso   1.000  H
  C373     1.0000 0.33128  0.16867  0.41405  Biso   1.000  C
  H373     1.0000 0.34870  0.17070  0.42320  Biso   1.000  H
  C374     1.0000 0.25752  0.25281  0.35769  Biso   1.000  C
  H374     1.0000 0.23910  0.25030  0.35080  Biso   1.000  H
  C375     1.0000 0.24666  0.31645  0.39464  Biso   1.000  C
  H375     1.0000 0.24970  0.30980  0.41300  Biso   1.000  H
  C376     1.0000 0.30521  0.13009  0.46810  Biso   1.000  C
  H376     1.0000 0.29630  0.14580  0.47610  Biso   1.000  H
  N564     1.0000 0.26815  0.27729  0.36856  Biso   1.000  N
  Cu95     1.0000 0.33720  0.72050  0.87669  Biso   1.000  Cu
  Cu96     1.0000 0.27457  0.69205  0.85004  Biso   1.000  Cu
  N565     1.0000 0.27719  0.73353  0.85846  Biso   1.000  N
  N566     1.0000 0.30120  0.74548  0.87086  Biso   1.000  N
  N567     1.0000 0.32193  0.68459  0.89342  Biso   1.000  N
  N568     1.0000 0.29486  0.67447  0.88591  Biso   1.000  N
  N569     1.0000 0.23323  0.84201  0.85839  Biso   1.000  N
  N570     1.0000 0.23427  0.84033  0.88795  Biso   1.000  N
  C377     1.0000 0.24564  0.81936  0.84820  Biso   1.000  C
  H377     1.0000 0.24810  0.81520  0.82900  Biso   1.000  H
  N571     1.0000 0.25431  0.80296  0.87040  Biso   1.000  N
  C378     1.0000 0.29550  0.77194  0.87679  Biso   1.000  C
  H378     1.0000 0.30790  0.78490  0.88520  Biso   1.000  H
  N572     1.0000 0.31178  0.60676  0.98153  Biso   1.000  N
  N573     1.0000 0.31348  0.62768  0.94046  Biso   1.000  N
  N574     1.0000 0.32428  0.58835  0.96175  Biso   1.000  N
  N575     1.0000 0.31123  0.64859  0.92011  Biso   1.000  N
  C379     1.0000 0.28908  0.65275  0.90189  Biso   1.000  C
  H379     1.0000 0.27260  0.64180  0.90110  Biso   1.000  H
  C380     1.0000 0.32490  0.60136  0.93733  Biso   1.000  C
  H380     1.0000 0.33200  0.59380  0.92050  Biso   1.000  H
  C381     1.0000 0.33128  0.66867  0.91405  Biso   1.000  C
  H381     1.0000 0.34870  0.67070  0.92320  Biso   1.000  H
  C382     1.0000 0.25752  0.75281  0.85769  Biso   1.000  C
  H382     1.0000 0.23910  0.75030  0.85080  Biso   1.000  H
  C383     1.0000 0.24666  0.81645  0.89464  Biso   1.000  C
  H383     1.0000 0.24970  0.80980  0.91300  Biso   1.000  H
  C384     1.0000 0.30521  0.63009  0.96810  Biso   1.000  C
  H384     1.0000 0.29630  0.64580  0.97610  Biso   1.000  H
  N576     1.0000 0.26815  0.77729  0.86856  Biso   1.000  N
  Cu97     1.0000 0.16280  0.62669  0.47050  Biso   1.000  Cu
  Cu98     1.0000 0.22543  0.60004  0.44205  Biso   1.000  Cu
  N577     1.0000 0.22281  0.60846  0.48353  Biso   1.000  N
  N578     1.0000 0.19880  0.62086  0.49548  Biso   1.000  N
  N579     1.0000 0.17807  0.64342  0.43459  Biso   1.000  N
  N580     1.0000 0.20514  0.63591  0.42447  Biso   1.000  N
  N581     1.0000 0.26677  0.60839  0.59201  Biso   1.000  N
  N582     1.0000 0.26573  0.63795  0.59033  Biso   1.000  N
  C385     1.0000 0.25436  0.59820  0.56936  Biso   1.000  C
  H385     1.0000 0.25190  0.57900  0.56520  Biso   1.000  H
  N583     1.0000 0.24569  0.62040  0.55296  Biso   1.000  N
  C386     1.0000 0.20450  0.62679  0.52194  Biso   1.000  C
  H386     1.0000 0.19210  0.63520  0.53490  Biso   1.000  H
  N584     1.0000 0.18822  0.73153  0.35676  Biso   1.000  N
  N585     1.0000 0.18652  0.69046  0.37768  Biso   1.000  N
  N586     1.0000 0.17572  0.71175  0.33835  Biso   1.000  N
  N587     1.0000 0.18877  0.67011  0.39859  Biso   1.000  N
  C387     1.0000 0.21092  0.65189  0.40275  Biso   1.000  C
  H387     1.0000 0.22740  0.65110  0.39180  Biso   1.000  H
  C388     1.0000 0.17510  0.68733  0.35136  Biso   1.000  C
  H388     1.0000 0.16800  0.67050  0.34380  Biso   1.000  H
  C389     1.0000 0.16872  0.66405  0.41867  Biso   1.000  C
  H389     1.0000 0.15130  0.67320  0.42070  Biso   1.000  H
  C390     1.0000 0.24248  0.60769  0.50281  Biso   1.000  C
  H390     1.0000 0.26090  0.60080  0.50030  Biso   1.000  H
  C391     1.0000 0.25334  0.64464  0.56645  Biso   1.000  C
  H391     1.0000 0.25030  0.66300  0.55980  Biso   1.000  H
  C392     1.0000 0.19479  0.71810  0.38009  Biso   1.000  C
  H392     1.0000 0.20370  0.72610  0.39580  Biso   1.000  H
  N588     1.0000 0.23185  0.61856  0.52729  Biso   1.000  N
  Cu99     1.0000 0.16280  0.12669  0.97050  Biso   1.000  Cu
  Cu100    1.0000 0.22543  0.10004  0.94205  Biso   1.000  Cu
  N589     1.0000 0.22281  0.10846  0.98353  Biso   1.000  N
  N590     1.0000 0.19880  0.12086  0.99548  Biso   1.000  N
  N591     1.0000 0.17807  0.14342  0.93459  Biso   1.000  N
  N592     1.0000 0.20514  0.13591  0.92447  Biso   1.000  N
  N593     1.0000 0.26677  0.10839  0.09201  Biso   1.000  N
  N594     1.0000 0.26573  0.13795  0.09033  Biso   1.000  N
  C393     1.0000 0.25436  0.09820  0.06936  Biso   1.000  C
  H393     1.0000 0.25190  0.07900  0.06520  Biso   1.000  H
  N595     1.0000 0.24569  0.12040  0.05296  Biso   1.000  N
  C394     1.0000 0.20450  0.12679  0.02194  Biso   1.000  C
  H394     1.0000 0.19210  0.13520  0.03490  Biso   1.000  H
  N596     1.0000 0.18822  0.23153  0.85676  Biso   1.000  N
  N597     1.0000 0.18652  0.19046  0.87768  Biso   1.000  N
  N598     1.0000 0.17572  0.21175  0.83835  Biso   1.000  N
  N599     1.0000 0.18877  0.17011  0.89859  Biso   1.000  N
  C395     1.0000 0.21092  0.15189  0.90275  Biso   1.000  C
  H395     1.0000 0.22740  0.15110  0.89180  Biso   1.000  H
  C396     1.0000 0.17510  0.18733  0.85136  Biso   1.000  C
  H396     1.0000 0.16800  0.17050  0.84380  Biso   1.000  H
  C397     1.0000 0.16872  0.16405  0.91867  Biso   1.000  C
  H397     1.0000 0.15130  0.17320  0.92070  Biso   1.000  H
  C398     1.0000 0.24248  0.10769  0.00281  Biso   1.000  C
  H398     1.0000 0.26090  0.10080  0.00030  Biso   1.000  H
  C399     1.0000 0.25334  0.14464  0.06645  Biso   1.000  C
  H399     1.0000 0.25030  0.16300  0.05980  Biso   1.000  H
  C400     1.0000 0.19479  0.21810  0.88009  Biso   1.000  C
  H400     1.0000 0.20370  0.22610  0.89580  Biso   1.000  H
  N600     1.0000 0.23185  0.11856  0.02729  Biso   1.000  N
  Cu101    1.0000 0.66280  0.62669  0.97050  Biso   1.000  Cu
  Cu102    1.0000 0.72543  0.60004  0.94205  Biso   1.000  Cu
  N601     1.0000 0.72281  0.60846  0.98353  Biso   1.000  N
  N602     1.0000 0.69880  0.62086  0.99548  Biso   1.000  N
  N603     1.0000 0.67807  0.64342  0.93459  Biso   1.000  N
  N604     1.0000 0.70514  0.63591  0.92447  Biso   1.000  N
  N605     1.0000 0.76677  0.60839  0.09201  Biso   1.000  N
  N606     1.0000 0.76573  0.63795  0.09033  Biso   1.000  N
  C401     1.0000 0.75436  0.59820  0.06936  Biso   1.000  C
  H401     1.0000 0.75190  0.57900  0.06520  Biso   1.000  H
  N607     1.0000 0.74569  0.62040  0.05296  Biso   1.000  N
  C402     1.0000 0.70450  0.62679  0.02194  Biso   1.000  C
  H402     1.0000 0.69210  0.63520  0.03490  Biso   1.000  H
  N608     1.0000 0.68822  0.73153  0.85676  Biso   1.000  N
  N609     1.0000 0.68652  0.69046  0.87768  Biso   1.000  N
  N610     1.0000 0.67572  0.71175  0.83835  Biso   1.000  N
  N611     1.0000 0.68877  0.67011  0.89859  Biso   1.000  N
  C403     1.0000 0.71092  0.65189  0.90275  Biso   1.000  C
  H403     1.0000 0.72740  0.65110  0.89180  Biso   1.000  H
  C404     1.0000 0.67510  0.68733  0.85136  Biso   1.000  C
  H404     1.0000 0.66800  0.67050  0.84380  Biso   1.000  H
  C405     1.0000 0.66872  0.66405  0.91867  Biso   1.000  C
  H405     1.0000 0.65130  0.67320  0.92070  Biso   1.000  H
  C406     1.0000 0.74248  0.60769  0.00281  Biso   1.000  C
  H406     1.0000 0.76090  0.60080  0.00030  Biso   1.000  H
  C407     1.0000 0.75334  0.64464  0.06645  Biso   1.000  C
  H407     1.0000 0.75030  0.66300  0.05980  Biso   1.000  H
  C408     1.0000 0.69479  0.71810  0.88009  Biso   1.000  C
  H408     1.0000 0.70370  0.72610  0.89580  Biso   1.000  H
  N612     1.0000 0.73185  0.61856  0.02729  Biso   1.000  N
  Cu103    1.0000 0.66280  0.12669  0.47050  Biso   1.000  Cu
  Cu104    1.0000 0.72543  0.10004  0.44205  Biso   1.000  Cu
  N613     1.0000 0.72281  0.10846  0.48353  Biso   1.000  N
  N614     1.0000 0.69880  0.12086  0.49548  Biso   1.000  N
  N615     1.0000 0.67807  0.14342  0.43459  Biso   1.000  N
  N616     1.0000 0.70514  0.13591  0.42447  Biso   1.000  N
  N617     1.0000 0.76677  0.10839  0.59201  Biso   1.000  N
  N618     1.0000 0.76573  0.13795  0.59033  Biso   1.000  N
  C409     1.0000 0.75436  0.09820  0.56936  Biso   1.000  C
  H409     1.0000 0.75190  0.07900  0.56520  Biso   1.000  H
  N619     1.0000 0.74569  0.12040  0.55296  Biso   1.000  N
  C410     1.0000 0.70450  0.12679  0.52194  Biso   1.000  C
  H410     1.0000 0.69210  0.13520  0.53490  Biso   1.000  H
  N620     1.0000 0.68822  0.23153  0.35676  Biso   1.000  N
  N621     1.0000 0.68652  0.19046  0.37768  Biso   1.000  N
  N622     1.0000 0.67572  0.21175  0.33835  Biso   1.000  N
  N623     1.0000 0.68877  0.17011  0.39859  Biso   1.000  N
  C411     1.0000 0.71092  0.15189  0.40275  Biso   1.000  C
  H411     1.0000 0.72740  0.15110  0.39180  Biso   1.000  H
  C412     1.0000 0.67510  0.18733  0.35136  Biso   1.000  C
  H412     1.0000 0.66800  0.17050  0.34380  Biso   1.000  H
  C413     1.0000 0.66872  0.16405  0.41867  Biso   1.000  C
  H413     1.0000 0.65130  0.17320  0.42070  Biso   1.000  H
  C414     1.0000 0.74248  0.10769  0.50281  Biso   1.000  C
  H414     1.0000 0.76090  0.10080  0.50030  Biso   1.000  H
  C415     1.0000 0.75334  0.14464  0.56645  Biso   1.000  C
  H415     1.0000 0.75030  0.16300  0.55980  Biso   1.000  H
  C416     1.0000 0.69479  0.21810  0.38009  Biso   1.000  C
  H416     1.0000 0.70370  0.22610  0.39580  Biso   1.000  H
  N624     1.0000 0.73185  0.11856  0.52729  Biso   1.000  N
  Cu105    1.0000 0.08720  0.12331  0.97050  Biso   1.000  Cu
  Cu106    1.0000 0.02457  0.14996  0.94205  Biso   1.000  Cu
  N625     1.0000 0.02719  0.14154  0.98353  Biso   1.000  N
  N626     1.0000 0.05120  0.12914  0.99548  Biso   1.000  N
  N627     1.0000 0.07193  0.10658  0.93459  Biso   1.000  N
  N628     1.0000 0.04486  0.11409  0.92447  Biso   1.000  N
  N629     1.0000 0.98323  0.14161  0.09201  Biso   1.000  N
  N630     1.0000 0.98427  0.11205  0.09033  Biso   1.000  N
  C417     1.0000 0.99564  0.15180  0.06936  Biso   1.000  C
  H417     1.0000 0.99810  0.17100  0.06520  Biso   1.000  H
  N631     1.0000 0.00431  0.12960  0.05296  Biso   1.000  N
  C418     1.0000 0.04550  0.12321  0.02194  Biso   1.000  C
  H418     1.0000 0.05790  0.11480  0.03490  Biso   1.000  H
  N632     1.0000 0.06178  0.01847  0.85676  Biso   1.000  N
  N633     1.0000 0.06348  0.05954  0.87768  Biso   1.000  N
  N634     1.0000 0.07428  0.03825  0.83835  Biso   1.000  N
  N635     1.0000 0.06123  0.07989  0.89859  Biso   1.000  N
  C419     1.0000 0.03908  0.09811  0.90275  Biso   1.000  C
  H419     1.0000 0.02260  0.09890  0.89180  Biso   1.000  H
  C420     1.0000 0.07490  0.06267  0.85136  Biso   1.000  C
  H420     1.0000 0.08200  0.07950  0.84380  Biso   1.000  H
  C421     1.0000 0.08128  0.08595  0.91867  Biso   1.000  C
  H421     1.0000 0.09870  0.07680  0.92070  Biso   1.000  H
  C422     1.0000 0.00752  0.14231  0.00281  Biso   1.000  C
  H422     1.0000 0.98910  0.14920  0.00030  Biso   1.000  H
  C423     1.0000 0.99666  0.10536  0.06645  Biso   1.000  C
  H423     1.0000 0.99970  0.08700  0.05980  Biso   1.000  H
  C424     1.0000 0.05521  0.03190  0.88009  Biso   1.000  C
  H424     1.0000 0.04630  0.02390  0.89580  Biso   1.000  H
  N636     1.0000 0.01815  0.13144  0.02729  Biso   1.000  N
  Cu107    1.0000 0.08720  0.62331  0.47050  Biso   1.000  Cu
  Cu108    1.0000 0.02457  0.64996  0.44205  Biso   1.000  Cu
  N637     1.0000 0.02719  0.64154  0.48353  Biso   1.000  N
  N638     1.0000 0.05120  0.62914  0.49548  Biso   1.000  N
  N639     1.0000 0.07193  0.60658  0.43459  Biso   1.000  N
  N640     1.0000 0.04486  0.61409  0.42447  Biso   1.000  N
  N641     1.0000 0.98323  0.64161  0.59201  Biso   1.000  N
  N642     1.0000 0.98427  0.61205  0.59033  Biso   1.000  N
  C425     1.0000 0.99564  0.65180  0.56936  Biso   1.000  C
  H425     1.0000 0.99810  0.67100  0.56520  Biso   1.000  H
  N643     1.0000 0.00431  0.62960  0.55296  Biso   1.000  N
  C426     1.0000 0.04550  0.62321  0.52194  Biso   1.000  C
  H426     1.0000 0.05790  0.61480  0.53490  Biso   1.000  H
  N644     1.0000 0.06178  0.51847  0.35676  Biso   1.000  N
  N645     1.0000 0.06348  0.55954  0.37768  Biso   1.000  N
  N646     1.0000 0.07428  0.53825  0.33835  Biso   1.000  N
  N647     1.0000 0.06123  0.57989  0.39859  Biso   1.000  N
  C427     1.0000 0.03908  0.59811  0.40275  Biso   1.000  C
  H427     1.0000 0.02260  0.59890  0.39180  Biso   1.000  H
  C428     1.0000 0.07490  0.56267  0.35136  Biso   1.000  C
  H428     1.0000 0.08200  0.57950  0.34380  Biso   1.000  H
  C429     1.0000 0.08128  0.58595  0.41867  Biso   1.000  C
  H429     1.0000 0.09870  0.57680  0.42070  Biso   1.000  H
  C430     1.0000 0.00752  0.64231  0.50281  Biso   1.000  C
  H430     1.0000 0.98910  0.64920  0.50030  Biso   1.000  H
  C431     1.0000 0.99666  0.60536  0.56645  Biso   1.000  C
  H431     1.0000 0.99970  0.58700  0.55980  Biso   1.000  H
  C432     1.0000 0.05521  0.53190  0.38009  Biso   1.000  C
  H432     1.0000 0.04630  0.52390  0.39580  Biso   1.000  H
  N648     1.0000 0.01815  0.63144  0.52729  Biso   1.000  N
  Cu109    1.0000 0.58720  0.12331  0.47050  Biso   1.000  Cu
  Cu110    1.0000 0.52457  0.14996  0.44205  Biso   1.000  Cu
  N649     1.0000 0.52719  0.14154  0.48353  Biso   1.000  N
  N650     1.0000 0.55120  0.12914  0.49548  Biso   1.000  N
  N651     1.0000 0.57193  0.10658  0.43459  Biso   1.000  N
  N652     1.0000 0.54486  0.11409  0.42447  Biso   1.000  N
  N653     1.0000 0.48323  0.14161  0.59201  Biso   1.000  N
  N654     1.0000 0.48427  0.11205  0.59033  Biso   1.000  N
  C433     1.0000 0.49564  0.15180  0.56936  Biso   1.000  C
  H433     1.0000 0.49810  0.17100  0.56520  Biso   1.000  H
  N655     1.0000 0.50431  0.12960  0.55296  Biso   1.000  N
  C434     1.0000 0.54550  0.12321  0.52194  Biso   1.000  C
  H434     1.0000 0.55790  0.11480  0.53490  Biso   1.000  H
  N656     1.0000 0.56178  0.01847  0.35676  Biso   1.000  N
  N657     1.0000 0.56348  0.05954  0.37768  Biso   1.000  N
  N658     1.0000 0.57428  0.03825  0.33835  Biso   1.000  N
  N659     1.0000 0.56123  0.07989  0.39859  Biso   1.000  N
  C435     1.0000 0.53908  0.09811  0.40275  Biso   1.000  C
  H435     1.0000 0.52260  0.09890  0.39180  Biso   1.000  H
  C436     1.0000 0.57490  0.06267  0.35136  Biso   1.000  C
  H436     1.0000 0.58200  0.07950  0.34380  Biso   1.000  H
  C437     1.0000 0.58128  0.08595  0.41867  Biso   1.000  C
  H437     1.0000 0.59870  0.07680  0.42070  Biso   1.000  H
  C438     1.0000 0.50752  0.14231  0.50281  Biso   1.000  C
  H438     1.0000 0.48910  0.14920  0.50030  Biso   1.000  H
  C439     1.0000 0.49666  0.10536  0.56645  Biso   1.000  C
  H439     1.0000 0.49970  0.08700  0.55980  Biso   1.000  H
  C440     1.0000 0.55521  0.03190  0.38009  Biso   1.000  C
  H440     1.0000 0.54630  0.02390  0.39580  Biso   1.000  H
  N660     1.0000 0.51815  0.13144  0.52729  Biso   1.000  N
  Cu111    1.0000 0.58720  0.62331  0.97050  Biso   1.000  Cu
  Cu112    1.0000 0.52457  0.64996  0.94205  Biso   1.000  Cu
  N661     1.0000 0.52719  0.64154  0.98353  Biso   1.000  N
  N662     1.0000 0.55120  0.62914  0.99548  Biso   1.000  N
  N663     1.0000 0.57193  0.60658  0.93459  Biso   1.000  N
  N664     1.0000 0.54486  0.61409  0.92447  Biso   1.000  N
  N665     1.0000 0.48323  0.64161  0.09201  Biso   1.000  N
  N666     1.0000 0.48427  0.61205  0.09033  Biso   1.000  N
  C441     1.0000 0.49564  0.65180  0.06936  Biso   1.000  C
  H441     1.0000 0.49810  0.67100  0.06520  Biso   1.000  H
  N667     1.0000 0.50431  0.62960  0.05296  Biso   1.000  N
  C442     1.0000 0.54550  0.62321  0.02194  Biso   1.000  C
  H442     1.0000 0.55790  0.61480  0.03490  Biso   1.000  H
  N668     1.0000 0.56178  0.51847  0.85676  Biso   1.000  N
  N669     1.0000 0.56348  0.55954  0.87768  Biso   1.000  N
  N670     1.0000 0.57428  0.53825  0.83835  Biso   1.000  N
  N671     1.0000 0.56123  0.57989  0.89859  Biso   1.000  N
  C443     1.0000 0.53908  0.59811  0.90275  Biso   1.000  C
  H443     1.0000 0.52260  0.59890  0.89180  Biso   1.000  H
  C444     1.0000 0.57490  0.56267  0.85136  Biso   1.000  C
  H444     1.0000 0.58200  0.57950  0.84380  Biso   1.000  H
  C445     1.0000 0.58128  0.58595  0.91867  Biso   1.000  C
  H445     1.0000 0.59870  0.57680  0.92070  Biso   1.000  H
  C446     1.0000 0.50752  0.64231  0.00281  Biso   1.000  C
  H446     1.0000 0.48910  0.64920  0.00030  Biso   1.000  H
  C447     1.0000 0.49666  0.60536  0.06645  Biso   1.000  C
  H447     1.0000 0.49970  0.58700  0.05980  Biso   1.000  H
  C448     1.0000 0.55521  0.53190  0.88009  Biso   1.000  C
  H448     1.0000 0.54630  0.52390  0.89580  Biso   1.000  H
  N672     1.0000 0.51815  0.63144  0.02729  Biso   1.000  N
  Cu113    1.0000 0.66280  0.62331  0.27951  Biso   1.000  Cu
  Cu114    1.0000 0.72543  0.64996  0.30795  Biso   1.000  Cu
  N673     1.0000 0.72281  0.64154  0.26647  Biso   1.000  N
  N674     1.0000 0.69880  0.62914  0.25452  Biso   1.000  N
  N675     1.0000 0.67807  0.60658  0.31541  Biso   1.000  N
  N676     1.0000 0.70514  0.61409  0.32553  Biso   1.000  N
  N677     1.0000 0.76677  0.64161  0.15799  Biso   1.000  N
  N678     1.0000 0.76573  0.61205  0.15967  Biso   1.000  N
  C449     1.0000 0.75436  0.65180  0.18064  Biso   1.000  C
  H449     1.0000 0.75190  0.67100  0.18480  Biso   1.000  H
  N679     1.0000 0.74569  0.62960  0.19704  Biso   1.000  N
  C450     1.0000 0.70450  0.62321  0.22806  Biso   1.000  C
  H450     1.0000 0.69210  0.61480  0.21510  Biso   1.000  H
  N680     1.0000 0.68822  0.51847  0.39324  Biso   1.000  N
  N681     1.0000 0.68652  0.55954  0.37232  Biso   1.000  N
  N682     1.0000 0.67572  0.53825  0.41165  Biso   1.000  N
  N683     1.0000 0.68877  0.57989  0.35141  Biso   1.000  N
  C451     1.0000 0.71092  0.59811  0.34725  Biso   1.000  C
  H451     1.0000 0.72740  0.59890  0.35820  Biso   1.000  H
  C452     1.0000 0.67510  0.56267  0.39864  Biso   1.000  C
  H452     1.0000 0.66800  0.57950  0.40620  Biso   1.000  H
  C453     1.0000 0.66872  0.58595  0.33133  Biso   1.000  C
  H453     1.0000 0.65130  0.57680  0.32930  Biso   1.000  H
  C454     1.0000 0.74248  0.64231  0.24719  Biso   1.000  C
  H454     1.0000 0.76090  0.64920  0.24970  Biso   1.000  H
  C455     1.0000 0.75334  0.60536  0.18355  Biso   1.000  C
  H455     1.0000 0.75030  0.58700  0.19020  Biso   1.000  H
  C456     1.0000 0.69479  0.53190  0.36991  Biso   1.000  C
  H456     1.0000 0.70370  0.52390  0.35420  Biso   1.000  H
  N684     1.0000 0.73185  0.63144  0.22271  Biso   1.000  N
  Cu115    1.0000 0.66280  0.12331  0.77951  Biso   1.000  Cu
  Cu116    1.0000 0.72543  0.14996  0.80795  Biso   1.000  Cu
  N685     1.0000 0.72281  0.14154  0.76647  Biso   1.000  N
  N686     1.0000 0.69880  0.12914  0.75452  Biso   1.000  N
  N687     1.0000 0.67807  0.10658  0.81541  Biso   1.000  N
  N688     1.0000 0.70514  0.11409  0.82553  Biso   1.000  N
  N689     1.0000 0.76677  0.14161  0.65799  Biso   1.000  N
  N690     1.0000 0.76573  0.11205  0.65967  Biso   1.000  N
  C457     1.0000 0.75436  0.15180  0.68064  Biso   1.000  C
  H457     1.0000 0.75190  0.17100  0.68480  Biso   1.000  H
  N691     1.0000 0.74569  0.12960  0.69704  Biso   1.000  N
  C458     1.0000 0.70450  0.12321  0.72806  Biso   1.000  C
  H458     1.0000 0.69210  0.11480  0.71510  Biso   1.000  H
  N692     1.0000 0.68822  0.01847  0.89324  Biso   1.000  N
  N693     1.0000 0.68652  0.05954  0.87232  Biso   1.000  N
  N694     1.0000 0.67572  0.03825  0.91165  Biso   1.000  N
  N695     1.0000 0.68877  0.07989  0.85141  Biso   1.000  N
  C459     1.0000 0.71092  0.09811  0.84725  Biso   1.000  C
  H459     1.0000 0.72740  0.09890  0.85820  Biso   1.000  H
  C460     1.0000 0.67510  0.06267  0.89864  Biso   1.000  C
  H460     1.0000 0.66800  0.07950  0.90620  Biso   1.000  H
  C461     1.0000 0.66872  0.08595  0.83133  Biso   1.000  C
  H461     1.0000 0.65130  0.07680  0.82930  Biso   1.000  H
  C462     1.0000 0.74248  0.14231  0.74719  Biso   1.000  C
  H462     1.0000 0.76090  0.14920  0.74970  Biso   1.000  H
  C463     1.0000 0.75334  0.10536  0.68355  Biso   1.000  C
  H463     1.0000 0.75030  0.08700  0.69020  Biso   1.000  H
  C464     1.0000 0.69479  0.03190  0.86991  Biso   1.000  C
  H464     1.0000 0.70370  0.02390  0.85420  Biso   1.000  H
  N696     1.0000 0.73185  0.13144  0.72271  Biso   1.000  N
  Cu117    1.0000 0.16280  0.62331  0.77951  Biso   1.000  Cu
  Cu118    1.0000 0.22543  0.64996  0.80795  Biso   1.000  Cu
  N697     1.0000 0.22281  0.64154  0.76647  Biso   1.000  N
  N698     1.0000 0.19880  0.62914  0.75452  Biso   1.000  N
  N699     1.0000 0.17807  0.60658  0.81541  Biso   1.000  N
  N700     1.0000 0.20514  0.61409  0.82553  Biso   1.000  N
  N701     1.0000 0.26677  0.64161  0.65799  Biso   1.000  N
  N702     1.0000 0.26573  0.61205  0.65967  Biso   1.000  N
  C465     1.0000 0.25436  0.65180  0.68064  Biso   1.000  C
  H465     1.0000 0.25190  0.67100  0.68480  Biso   1.000  H
  N703     1.0000 0.24569  0.62960  0.69704  Biso   1.000  N
  C466     1.0000 0.20450  0.62321  0.72806  Biso   1.000  C
  H466     1.0000 0.19210  0.61480  0.71510  Biso   1.000  H
  N704     1.0000 0.18822  0.51847  0.89324  Biso   1.000  N
  N705     1.0000 0.18652  0.55954  0.87232  Biso   1.000  N
  N706     1.0000 0.17572  0.53825  0.91165  Biso   1.000  N
  N707     1.0000 0.18877  0.57989  0.85141  Biso   1.000  N
  C467     1.0000 0.21092  0.59811  0.84725  Biso   1.000  C
  H467     1.0000 0.22740  0.59890  0.85820  Biso   1.000  H
  C468     1.0000 0.17510  0.56267  0.89864  Biso   1.000  C
  H468     1.0000 0.16800  0.57950  0.90620  Biso   1.000  H
  C469     1.0000 0.16872  0.58595  0.83133  Biso   1.000  C
  H469     1.0000 0.15130  0.57680  0.82930  Biso   1.000  H
  C470     1.0000 0.24248  0.64231  0.74719  Biso   1.000  C
  H470     1.0000 0.26090  0.64920  0.74970  Biso   1.000  H
  C471     1.0000 0.25334  0.60536  0.68355  Biso   1.000  C
  H471     1.0000 0.25030  0.58700  0.69020  Biso   1.000  H
  C472     1.0000 0.19479  0.53190  0.86991  Biso   1.000  C
  H472     1.0000 0.20370  0.52390  0.85420  Biso   1.000  H
  N708     1.0000 0.23185  0.63144  0.72271  Biso   1.000  N
  Cu119    1.0000 0.16280  0.12331  0.27951  Biso   1.000  Cu
  Cu120    1.0000 0.22543  0.14996  0.30795  Biso   1.000  Cu
  N709     1.0000 0.22281  0.14154  0.26647  Biso   1.000  N
  N710     1.0000 0.19880  0.12914  0.25452  Biso   1.000  N
  N711     1.0000 0.17807  0.10658  0.31541  Biso   1.000  N
  N712     1.0000 0.20514  0.11409  0.32553  Biso   1.000  N
  N713     1.0000 0.26677  0.14161  0.15799  Biso   1.000  N
  N714     1.0000 0.26573  0.11205  0.15967  Biso   1.000  N
  C473     1.0000 0.25436  0.15180  0.18064  Biso   1.000  C
  H473     1.0000 0.25190  0.17100  0.18480  Biso   1.000  H
  N715     1.0000 0.24569  0.12960  0.19704  Biso   1.000  N
  C474     1.0000 0.20450  0.12321  0.22806  Biso   1.000  C
  H474     1.0000 0.19210  0.11480  0.21510  Biso   1.000  H
  N716     1.0000 0.18822  0.01847  0.39324  Biso   1.000  N
  N717     1.0000 0.18652  0.05954  0.37232  Biso   1.000  N
  N718     1.0000 0.17572  0.03825  0.41165  Biso   1.000  N
  N719     1.0000 0.18877  0.07989  0.35141  Biso   1.000  N
  C475     1.0000 0.21092  0.09811  0.34725  Biso   1.000  C
  H475     1.0000 0.22740  0.09890  0.35820  Biso   1.000  H
  C476     1.0000 0.17510  0.06267  0.39864  Biso   1.000  C
  H476     1.0000 0.16800  0.07950  0.40620  Biso   1.000  H
  C477     1.0000 0.16872  0.08595  0.33133  Biso   1.000  C
  H477     1.0000 0.15130  0.07680  0.32930  Biso   1.000  H
  C478     1.0000 0.24248  0.14231  0.24719  Biso   1.000  C
  H478     1.0000 0.26090  0.14920  0.24970  Biso   1.000  H
  C479     1.0000 0.25334  0.10536  0.18355  Biso   1.000  C
  H479     1.0000 0.25030  0.08700  0.19020  Biso   1.000  H
  C480     1.0000 0.19479  0.03190  0.36991  Biso   1.000  C
  H480     1.0000 0.20370  0.02390  0.35420  Biso   1.000  H
  N720     1.0000 0.23185  0.13144  0.22271  Biso   1.000  N
  Cu121    1.0000 0.58720  0.12669  0.77951  Biso   1.000  Cu
  Cu122    1.0000 0.52457  0.10004  0.80795  Biso   1.000  Cu
  N721     1.0000 0.52719  0.10846  0.76647  Biso   1.000  N
  N722     1.0000 0.55120  0.12086  0.75452  Biso   1.000  N
  N723     1.0000 0.57193  0.14342  0.81541  Biso   1.000  N
  N724     1.0000 0.54486  0.13591  0.82553  Biso   1.000  N
  N725     1.0000 0.48323  0.10839  0.65799  Biso   1.000  N
  N726     1.0000 0.48427  0.13795  0.65967  Biso   1.000  N
  C481     1.0000 0.49564  0.09820  0.68064  Biso   1.000  C
  H481     1.0000 0.49810  0.07900  0.68480  Biso   1.000  H
  N727     1.0000 0.50431  0.12040  0.69704  Biso   1.000  N
  C482     1.0000 0.54550  0.12679  0.72806  Biso   1.000  C
  H482     1.0000 0.55790  0.13520  0.71510  Biso   1.000  H
  N728     1.0000 0.56178  0.23153  0.89324  Biso   1.000  N
  N729     1.0000 0.56348  0.19046  0.87232  Biso   1.000  N
  N730     1.0000 0.57428  0.21175  0.91165  Biso   1.000  N
  N731     1.0000 0.56123  0.17011  0.85141  Biso   1.000  N
  C483     1.0000 0.53908  0.15189  0.84725  Biso   1.000  C
  H483     1.0000 0.52260  0.15110  0.85820  Biso   1.000  H
  C484     1.0000 0.57490  0.18733  0.89864  Biso   1.000  C
  H484     1.0000 0.58200  0.17050  0.90620  Biso   1.000  H
  C485     1.0000 0.58128  0.16405  0.83133  Biso   1.000  C
  H485     1.0000 0.59870  0.17320  0.82930  Biso   1.000  H
  C486     1.0000 0.50752  0.10769  0.74719  Biso   1.000  C
  H486     1.0000 0.48910  0.10080  0.74970  Biso   1.000  H
  C487     1.0000 0.49666  0.14464  0.68355  Biso   1.000  C
  H487     1.0000 0.49970  0.16300  0.69020  Biso   1.000  H
  C488     1.0000 0.55521  0.21810  0.86991  Biso   1.000  C
  H488     1.0000 0.54630  0.22610  0.85420  Biso   1.000  H
  N732     1.0000 0.51815  0.11856  0.72271  Biso   1.000  N
  Cu123    1.0000 0.58720  0.62669  0.27951  Biso   1.000  Cu
  Cu124    1.0000 0.52457  0.60004  0.30795  Biso   1.000  Cu
  N733     1.0000 0.52719  0.60846  0.26647  Biso   1.000  N
  N734     1.0000 0.55120  0.62086  0.25452  Biso   1.000  N
  N735     1.0000 0.57193  0.64342  0.31541  Biso   1.000  N
  N736     1.0000 0.54486  0.63591  0.32553  Biso   1.000  N
  N737     1.0000 0.48323  0.60839  0.15799  Biso   1.000  N
  N738     1.0000 0.48427  0.63795  0.15967  Biso   1.000  N
  C489     1.0000 0.49564  0.59820  0.18064  Biso   1.000  C
  H489     1.0000 0.49810  0.57900  0.18480  Biso   1.000  H
  N739     1.0000 0.50431  0.62040  0.19704  Biso   1.000  N
  C490     1.0000 0.54550  0.62679  0.22806  Biso   1.000  C
  H490     1.0000 0.55790  0.63520  0.21510  Biso   1.000  H
  N740     1.0000 0.56178  0.73153  0.39324  Biso   1.000  N
  N741     1.0000 0.56348  0.69046  0.37232  Biso   1.000  N
  N742     1.0000 0.57428  0.71175  0.41165  Biso   1.000  N
  N743     1.0000 0.56123  0.67011  0.35141  Biso   1.000  N
  C491     1.0000 0.53908  0.65189  0.34725  Biso   1.000  C
  H491     1.0000 0.52260  0.65110  0.35820  Biso   1.000  H
  C492     1.0000 0.57490  0.68733  0.39864  Biso   1.000  C
  H492     1.0000 0.58200  0.67050  0.40620  Biso   1.000  H
  C493     1.0000 0.58128  0.66405  0.33133  Biso   1.000  C
  H493     1.0000 0.59870  0.67320  0.32930  Biso   1.000  H
  C494     1.0000 0.50752  0.60769  0.24719  Biso   1.000  C
  H494     1.0000 0.48910  0.60080  0.24970  Biso   1.000  H
  C495     1.0000 0.49666  0.64464  0.18355  Biso   1.000  C
  H495     1.0000 0.49970  0.66300  0.19020  Biso   1.000  H
  C496     1.0000 0.55521  0.71810  0.36991  Biso   1.000  C
  H496     1.0000 0.54630  0.72610  0.35420  Biso   1.000  H
  N744     1.0000 0.51815  0.61856  0.22271  Biso   1.000  N
  Cu125    1.0000 0.08720  0.12669  0.27951  Biso   1.000  Cu
  Cu126    1.0000 0.02457  0.10004  0.30795  Biso   1.000  Cu
  N745     1.0000 0.02719  0.10846  0.26647  Biso   1.000  N
  N746     1.0000 0.05120  0.12086  0.25452  Biso   1.000  N
  N747     1.0000 0.07193  0.14342  0.31541  Biso   1.000  N
  N748     1.0000 0.04486  0.13591  0.32553  Biso   1.000  N
  N749     1.0000 0.98323  0.10839  0.15799  Biso   1.000  N
  N750     1.0000 0.98427  0.13795  0.15967  Biso   1.000  N
  C497     1.0000 0.99564  0.09820  0.18064  Biso   1.000  C
  H497     1.0000 0.99810  0.07900  0.18480  Biso   1.000  H
  N751     1.0000 0.00431  0.12040  0.19704  Biso   1.000  N
  C498     1.0000 0.04550  0.12679  0.22806  Biso   1.000  C
  H498     1.0000 0.05790  0.13520  0.21510  Biso   1.000  H
  N752     1.0000 0.06178  0.23153  0.39324  Biso   1.000  N
  N753     1.0000 0.06348  0.19046  0.37232  Biso   1.000  N
  N754     1.0000 0.07428  0.21175  0.41165  Biso   1.000  N
  N755     1.0000 0.06123  0.17011  0.35141  Biso   1.000  N
  C499     1.0000 0.03908  0.15189  0.34725  Biso   1.000  C
  H499     1.0000 0.02260  0.15110  0.35820  Biso   1.000  H
  C500     1.0000 0.07490  0.18733  0.39864  Biso   1.000  C
  H500     1.0000 0.08200  0.17050  0.40620  Biso   1.000  H
  C501     1.0000 0.08128  0.16405  0.33133  Biso   1.000  C
  H501     1.0000 0.09870  0.17320  0.32930  Biso   1.000  H
  C502     1.0000 0.00752  0.10769  0.24719  Biso   1.000  C
  H502     1.0000 0.98910  0.10080  0.24970  Biso   1.000  H
  C503     1.0000 0.99666  0.14464  0.18355  Biso   1.000  C
  H503     1.0000 0.99970  0.16300  0.19020  Biso   1.000  H
  C504     1.0000 0.05521  0.21810  0.36991  Biso   1.000  C
  H504     1.0000 0.04630  0.22610  0.35420  Biso   1.000  H
  N756     1.0000 0.01815  0.11856  0.22271  Biso   1.000  N
  Cu127    1.0000 0.08720  0.62669  0.77951  Biso   1.000  Cu
  Cu128    1.0000 0.02457  0.60004  0.80795  Biso   1.000  Cu
  N757     1.0000 0.02719  0.60846  0.76647  Biso   1.000  N
  N758     1.0000 0.05120  0.62086  0.75452  Biso   1.000  N
  N759     1.0000 0.07193  0.64342  0.81541  Biso   1.000  N
  N760     1.0000 0.04486  0.63591  0.82553  Biso   1.000  N
  N761     1.0000 0.98323  0.60839  0.65799  Biso   1.000  N
  N762     1.0000 0.98427  0.63795  0.65967  Biso   1.000  N
  C505     1.0000 0.99564  0.59820  0.68064  Biso   1.000  C
  H505     1.0000 0.99810  0.57900  0.68480  Biso   1.000  H
  N763     1.0000 0.00431  0.62040  0.69704  Biso   1.000  N
  C506     1.0000 0.04550  0.62679  0.72806  Biso   1.000  C
  H506     1.0000 0.05790  0.63520  0.71510  Biso   1.000  H
  N764     1.0000 0.06178  0.73153  0.89324  Biso   1.000  N
  N765     1.0000 0.06348  0.69046  0.87232  Biso   1.000  N
  N766     1.0000 0.07428  0.71175  0.91165  Biso   1.000  N
  N767     1.0000 0.06123  0.67011  0.85141  Biso   1.000  N
  C507     1.0000 0.03908  0.65189  0.84725  Biso   1.000  C
  H507     1.0000 0.02260  0.65110  0.85820  Biso   1.000  H
  C508     1.0000 0.07490  0.68733  0.89864  Biso   1.000  C
  H508     1.0000 0.08200  0.67050  0.90620  Biso   1.000  H
  C509     1.0000 0.08128  0.66405  0.83133  Biso   1.000  C
  H509     1.0000 0.09870  0.67320  0.82930  Biso   1.000  H
  C510     1.0000 0.00752  0.60769  0.74719  Biso   1.000  C
  H510     1.0000 0.98910  0.60080  0.74970  Biso   1.000  H
  C511     1.0000 0.99666  0.64464  0.68355  Biso   1.000  C
  H511     1.0000 0.99970  0.66300  0.69020  Biso   1.000  H
  C512     1.0000 0.05521  0.71810  0.86991  Biso   1.000  C
  H512     1.0000 0.04630  0.72610  0.85420  Biso   1.000  H
  N768     1.0000 0.01815  0.61856  0.72271  Biso   1.000  N
  Cu129    1.0000 0.12669  0.77951  0.58720  Biso   1.000  Cu
  Cu130    1.0000 0.10004  0.80795  0.52457  Biso   1.000  Cu
  N769     1.0000 0.10846  0.76647  0.52719  Biso   1.000  N
  N770     1.0000 0.12086  0.75452  0.55120  Biso   1.000  N
  N771     1.0000 0.14342  0.81541  0.57193  Biso   1.000  N
  N772     1.0000 0.13591  0.82553  0.54486  Biso   1.000  N
  N773     1.0000 0.10839  0.65799  0.48323  Biso   1.000  N
  N774     1.0000 0.13795  0.65967  0.48427  Biso   1.000  N
  C513     1.0000 0.09820  0.68064  0.49564  Biso   1.000  C
  H513     1.0000 0.07900  0.68480  0.49810  Biso   1.000  H
  N775     1.0000 0.12040  0.69704  0.50431  Biso   1.000  N
  C514     1.0000 0.12679  0.72806  0.54550  Biso   1.000  C
  H514     1.0000 0.13520  0.71510  0.55790  Biso   1.000  H
  N776     1.0000 0.23153  0.89324  0.56178  Biso   1.000  N
  N777     1.0000 0.19046  0.87232  0.56348  Biso   1.000  N
  N778     1.0000 0.21175  0.91165  0.57428  Biso   1.000  N
  N779     1.0000 0.17011  0.85141  0.56123  Biso   1.000  N
  C515     1.0000 0.15189  0.84725  0.53908  Biso   1.000  C
  H515     1.0000 0.15110  0.85820  0.52260  Biso   1.000  H
  C516     1.0000 0.18733  0.89864  0.57490  Biso   1.000  C
  H516     1.0000 0.17050  0.90620  0.58200  Biso   1.000  H
  C517     1.0000 0.16405  0.83133  0.58128  Biso   1.000  C
  H517     1.0000 0.17320  0.82930  0.59870  Biso   1.000  H
  C518     1.0000 0.10769  0.74719  0.50752  Biso   1.000  C
  H518     1.0000 0.10080  0.74970  0.48910  Biso   1.000  H
  C519     1.0000 0.14464  0.68355  0.49666  Biso   1.000  C
  H519     1.0000 0.16300  0.69020  0.49970  Biso   1.000  H
  C520     1.0000 0.21810  0.86991  0.55521  Biso   1.000  C
  H520     1.0000 0.22610  0.85420  0.54630  Biso   1.000  H
  N780     1.0000 0.11856  0.72271  0.51815  Biso   1.000  N
  Cu131    1.0000 0.12669  0.27951  0.08720  Biso   1.000  Cu
  Cu132    1.0000 0.10004  0.30795  0.02457  Biso   1.000  Cu
  N781     1.0000 0.10846  0.26647  0.02719  Biso   1.000  N
  N782     1.0000 0.12086  0.25452  0.05120  Biso   1.000  N
  N783     1.0000 0.14342  0.31541  0.07193  Biso   1.000  N
  N784     1.0000 0.13591  0.32553  0.04486  Biso   1.000  N
  N785     1.0000 0.10839  0.15799  0.98323  Biso   1.000  N
  N786     1.0000 0.13795  0.15967  0.98427  Biso   1.000  N
  C521     1.0000 0.09820  0.18064  0.99564  Biso   1.000  C
  H521     1.0000 0.07900  0.18480  0.99810  Biso   1.000  H
  N787     1.0000 0.12040  0.19704  0.00431  Biso   1.000  N
  C522     1.0000 0.12679  0.22806  0.04550  Biso   1.000  C
  H522     1.0000 0.13520  0.21510  0.05790  Biso   1.000  H
  N788     1.0000 0.23153  0.39324  0.06178  Biso   1.000  N
  N789     1.0000 0.19046  0.37232  0.06348  Biso   1.000  N
  N790     1.0000 0.21175  0.41165  0.07428  Biso   1.000  N
  N791     1.0000 0.17011  0.35141  0.06123  Biso   1.000  N
  C523     1.0000 0.15189  0.34725  0.03908  Biso   1.000  C
  H523     1.0000 0.15110  0.35820  0.02260  Biso   1.000  H
  C524     1.0000 0.18733  0.39864  0.07490  Biso   1.000  C
  H524     1.0000 0.17050  0.40620  0.08200  Biso   1.000  H
  C525     1.0000 0.16405  0.33133  0.08128  Biso   1.000  C
  H525     1.0000 0.17320  0.32930  0.09870  Biso   1.000  H
  C526     1.0000 0.10769  0.24719  0.00752  Biso   1.000  C
  H526     1.0000 0.10080  0.24970  0.98910  Biso   1.000  H
  C527     1.0000 0.14464  0.18355  0.99666  Biso   1.000  C
  H527     1.0000 0.16300  0.19020  0.99970  Biso   1.000  H
  C528     1.0000 0.21810  0.36991  0.05521  Biso   1.000  C
  H528     1.0000 0.22610  0.35420  0.04630  Biso   1.000  H
  N792     1.0000 0.11856  0.22271  0.01815  Biso   1.000  N
  Cu133    1.0000 0.62669  0.77951  0.08720  Biso   1.000  Cu
  Cu134    1.0000 0.60004  0.80795  0.02457  Biso   1.000  Cu
  N793     1.0000 0.60846  0.76647  0.02719  Biso   1.000  N
  N794     1.0000 0.62086  0.75452  0.05120  Biso   1.000  N
  N795     1.0000 0.64342  0.81541  0.07193  Biso   1.000  N
  N796     1.0000 0.63591  0.82553  0.04486  Biso   1.000  N
  N797     1.0000 0.60839  0.65799  0.98323  Biso   1.000  N
  N798     1.0000 0.63795  0.65967  0.98427  Biso   1.000  N
  C529     1.0000 0.59820  0.68064  0.99564  Biso   1.000  C
  H529     1.0000 0.57900  0.68480  0.99810  Biso   1.000  H
  N799     1.0000 0.62040  0.69704  0.00431  Biso   1.000  N
  C530     1.0000 0.62679  0.72806  0.04550  Biso   1.000  C
  H530     1.0000 0.63520  0.71510  0.05790  Biso   1.000  H
  N800     1.0000 0.73153  0.89324  0.06178  Biso   1.000  N
  N801     1.0000 0.69046  0.87232  0.06348  Biso   1.000  N
  N802     1.0000 0.71175  0.91165  0.07428  Biso   1.000  N
  N803     1.0000 0.67011  0.85141  0.06123  Biso   1.000  N
  C531     1.0000 0.65189  0.84725  0.03908  Biso   1.000  C
  H531     1.0000 0.65110  0.85820  0.02260  Biso   1.000  H
  C532     1.0000 0.68733  0.89864  0.07490  Biso   1.000  C
  H532     1.0000 0.67050  0.90620  0.08200  Biso   1.000  H
  C533     1.0000 0.66405  0.83133  0.08128  Biso   1.000  C
  H533     1.0000 0.67320  0.82930  0.09870  Biso   1.000  H
  C534     1.0000 0.60769  0.74719  0.00752  Biso   1.000  C
  H534     1.0000 0.60080  0.74970  0.98910  Biso   1.000  H
  C535     1.0000 0.64464  0.68355  0.99666  Biso   1.000  C
  H535     1.0000 0.66300  0.69020  0.99970  Biso   1.000  H
  C536     1.0000 0.71810  0.86991  0.05521  Biso   1.000  C
  H536     1.0000 0.72610  0.85420  0.04630  Biso   1.000  H
  N804     1.0000 0.61856  0.72271  0.01815  Biso   1.000  N
  Cu135    1.0000 0.62669  0.27951  0.58720  Biso   1.000  Cu
  Cu136    1.0000 0.60004  0.30795  0.52457  Biso   1.000  Cu
  N805     1.0000 0.60846  0.26647  0.52719  Biso   1.000  N
  N806     1.0000 0.62086  0.25452  0.55120  Biso   1.000  N
  N807     1.0000 0.64342  0.31541  0.57193  Biso   1.000  N
  N808     1.0000 0.63591  0.32553  0.54486  Biso   1.000  N
  N809     1.0000 0.60839  0.15799  0.48323  Biso   1.000  N
  N810     1.0000 0.63795  0.15967  0.48427  Biso   1.000  N
  C537     1.0000 0.59820  0.18064  0.49564  Biso   1.000  C
  H537     1.0000 0.57900  0.18480  0.49810  Biso   1.000  H
  N811     1.0000 0.62040  0.19704  0.50431  Biso   1.000  N
  C538     1.0000 0.62679  0.22806  0.54550  Biso   1.000  C
  H538     1.0000 0.63520  0.21510  0.55790  Biso   1.000  H
  N812     1.0000 0.73153  0.39324  0.56178  Biso   1.000  N
  N813     1.0000 0.69046  0.37232  0.56348  Biso   1.000  N
  N814     1.0000 0.71175  0.41165  0.57428  Biso   1.000  N
  N815     1.0000 0.67011  0.35141  0.56123  Biso   1.000  N
  C539     1.0000 0.65189  0.34725  0.53908  Biso   1.000  C
  H539     1.0000 0.65110  0.35820  0.52260  Biso   1.000  H
  C540     1.0000 0.68733  0.39864  0.57490  Biso   1.000  C
  H540     1.0000 0.67050  0.40620  0.58200  Biso   1.000  H
  C541     1.0000 0.66405  0.33133  0.58128  Biso   1.000  C
  H541     1.0000 0.67320  0.32930  0.59870  Biso   1.000  H
  C542     1.0000 0.60769  0.24719  0.50752  Biso   1.000  C
  H542     1.0000 0.60080  0.24970  0.48910  Biso   1.000  H
  C543     1.0000 0.64464  0.18355  0.49666  Biso   1.000  C
  H543     1.0000 0.66300  0.19020  0.49970  Biso   1.000  H
  C544     1.0000 0.71810  0.36991  0.55521  Biso   1.000  C
  H544     1.0000 0.72610  0.35420  0.54630  Biso   1.000  H
  N816     1.0000 0.61856  0.22271  0.51815  Biso   1.000  N
  Cu137    1.0000 0.62331  0.27951  0.66280  Biso   1.000  Cu
  Cu138    1.0000 0.64996  0.30795  0.72543  Biso   1.000  Cu
  N817     1.0000 0.64154  0.26647  0.72281  Biso   1.000  N
  N818     1.0000 0.62914  0.25452  0.69880  Biso   1.000  N
  N819     1.0000 0.60658  0.31541  0.67807  Biso   1.000  N
  N820     1.0000 0.61409  0.32553  0.70514  Biso   1.000  N
  N821     1.0000 0.64161  0.15799  0.76677  Biso   1.000  N
  N822     1.0000 0.61205  0.15967  0.76573  Biso   1.000  N
  C545     1.0000 0.65180  0.18064  0.75436  Biso   1.000  C
  H545     1.0000 0.67100  0.18480  0.75190  Biso   1.000  H
  N823     1.0000 0.62960  0.19704  0.74569  Biso   1.000  N
  C546     1.0000 0.62321  0.22806  0.70450  Biso   1.000  C
  H546     1.0000 0.61480  0.21510  0.69210  Biso   1.000  H
  N824     1.0000 0.51847  0.39324  0.68822  Biso   1.000  N
  N825     1.0000 0.55954  0.37232  0.68652  Biso   1.000  N
  N826     1.0000 0.53825  0.41165  0.67572  Biso   1.000  N
  N827     1.0000 0.57989  0.35141  0.68877  Biso   1.000  N
  C547     1.0000 0.59811  0.34725  0.71092  Biso   1.000  C
  H547     1.0000 0.59890  0.35820  0.72740  Biso   1.000  H
  C548     1.0000 0.56267  0.39864  0.67510  Biso   1.000  C
  H548     1.0000 0.57950  0.40620  0.66800  Biso   1.000  H
  C549     1.0000 0.58595  0.33133  0.66872  Biso   1.000  C
  H549     1.0000 0.57680  0.32930  0.65130  Biso   1.000  H
  C550     1.0000 0.64231  0.24719  0.74248  Biso   1.000  C
  H550     1.0000 0.64920  0.24970  0.76090  Biso   1.000  H
  C551     1.0000 0.60536  0.18355  0.75334  Biso   1.000  C
  H551     1.0000 0.58700  0.19020  0.75030  Biso   1.000  H
  C552     1.0000 0.53190  0.36991  0.69479  Biso   1.000  C
  H552     1.0000 0.52390  0.35420  0.70370  Biso   1.000  H
  N828     1.0000 0.63144  0.22271  0.73185  Biso   1.000  N
  Cu139    1.0000 0.62331  0.77951  0.16280  Biso   1.000  Cu
  Cu140    1.0000 0.64996  0.80795  0.22543  Biso   1.000  Cu
  N829     1.0000 0.64154  0.76647  0.22281  Biso   1.000  N
  N830     1.0000 0.62914  0.75452  0.19880  Biso   1.000  N
  N831     1.0000 0.60658  0.81541  0.17807  Biso   1.000  N
  N832     1.0000 0.61409  0.82553  0.20514  Biso   1.000  N
  N833     1.0000 0.64161  0.65799  0.26677  Biso   1.000  N
  N834     1.0000 0.61205  0.65967  0.26573  Biso   1.000  N
  C553     1.0000 0.65180  0.68064  0.25436  Biso   1.000  C
  H553     1.0000 0.67100  0.68480  0.25190  Biso   1.000  H
  N835     1.0000 0.62960  0.69704  0.24569  Biso   1.000  N
  C554     1.0000 0.62321  0.72806  0.20450  Biso   1.000  C
  H554     1.0000 0.61480  0.71510  0.19210  Biso   1.000  H
  N836     1.0000 0.51847  0.89324  0.18822  Biso   1.000  N
  N837     1.0000 0.55954  0.87232  0.18652  Biso   1.000  N
  N838     1.0000 0.53825  0.91165  0.17572  Biso   1.000  N
  N839     1.0000 0.57989  0.85141  0.18877  Biso   1.000  N
  C555     1.0000 0.59811  0.84725  0.21092  Biso   1.000  C
  H555     1.0000 0.59890  0.85820  0.22740  Biso   1.000  H
  C556     1.0000 0.56267  0.89864  0.17510  Biso   1.000  C
  H556     1.0000 0.57950  0.90620  0.16800  Biso   1.000  H
  C557     1.0000 0.58595  0.83133  0.16872  Biso   1.000  C
  H557     1.0000 0.57680  0.82930  0.15130  Biso   1.000  H
  C558     1.0000 0.64231  0.74719  0.24248  Biso   1.000  C
  H558     1.0000 0.64920  0.74970  0.26090  Biso   1.000  H
  C559     1.0000 0.60536  0.68355  0.25334  Biso   1.000  C
  H559     1.0000 0.58700  0.69020  0.25030  Biso   1.000  H
  C560     1.0000 0.53190  0.86991  0.19479  Biso   1.000  C
  H560     1.0000 0.52390  0.85420  0.20370  Biso   1.000  H
  N840     1.0000 0.63144  0.72271  0.23185  Biso   1.000  N
  Cu141    1.0000 0.12331  0.27951  0.16280  Biso   1.000  Cu
  Cu142    1.0000 0.14996  0.30795  0.22543  Biso   1.000  Cu
  N841     1.0000 0.14154  0.26647  0.22281  Biso   1.000  N
  N842     1.0000 0.12914  0.25452  0.19880  Biso   1.000  N
  N843     1.0000 0.10658  0.31541  0.17807  Biso   1.000  N
  N844     1.0000 0.11409  0.32553  0.20514  Biso   1.000  N
  N845     1.0000 0.14161  0.15799  0.26677  Biso   1.000  N
  N846     1.0000 0.11205  0.15967  0.26573  Biso   1.000  N
  C561     1.0000 0.15180  0.18064  0.25436  Biso   1.000  C
  H561     1.0000 0.17100  0.18480  0.25190  Biso   1.000  H
  N847     1.0000 0.12960  0.19704  0.24569  Biso   1.000  N
  C562     1.0000 0.12321  0.22806  0.20450  Biso   1.000  C
  H562     1.0000 0.11480  0.21510  0.19210  Biso   1.000  H
  N848     1.0000 0.01847  0.39324  0.18822  Biso   1.000  N
  N849     1.0000 0.05954  0.37232  0.18652  Biso   1.000  N
  N850     1.0000 0.03825  0.41165  0.17572  Biso   1.000  N
  N851     1.0000 0.07989  0.35141  0.18877  Biso   1.000  N
  C563     1.0000 0.09811  0.34725  0.21092  Biso   1.000  C
  H563     1.0000 0.09890  0.35820  0.22740  Biso   1.000  H
  C564     1.0000 0.06267  0.39864  0.17510  Biso   1.000  C
  H564     1.0000 0.07950  0.40620  0.16800  Biso   1.000  H
  C565     1.0000 0.08595  0.33133  0.16872  Biso   1.000  C
  H565     1.0000 0.07680  0.32930  0.15130  Biso   1.000  H
  C566     1.0000 0.14231  0.24719  0.24248  Biso   1.000  C
  H566     1.0000 0.14920  0.24970  0.26090  Biso   1.000  H
  C567     1.0000 0.10536  0.18355  0.25334  Biso   1.000  C
  H567     1.0000 0.08700  0.19020  0.25030  Biso   1.000  H
  C568     1.0000 0.03190  0.36991  0.19479  Biso   1.000  C
  H568     1.0000 0.02390  0.35420  0.20370  Biso   1.000  H
  N852     1.0000 0.13144  0.22271  0.23185  Biso   1.000  N
  Cu143    1.0000 0.12331  0.77951  0.66280  Biso   1.000  Cu
  Cu144    1.0000 0.14996  0.80795  0.72543  Biso   1.000  Cu
  N853     1.0000 0.14154  0.76647  0.72281  Biso   1.000  N
  N854     1.0000 0.12914  0.75452  0.69880  Biso   1.000  N
  N855     1.0000 0.10658  0.81541  0.67807  Biso   1.000  N
  N856     1.0000 0.11409  0.82553  0.70514  Biso   1.000  N
  N857     1.0000 0.14161  0.65799  0.76677  Biso   1.000  N
  N858     1.0000 0.11205  0.65967  0.76573  Biso   1.000  N
  C569     1.0000 0.15180  0.68064  0.75436  Biso   1.000  C
  H569     1.0000 0.17100  0.68480  0.75190  Biso   1.000  H
  N859     1.0000 0.12960  0.69704  0.74569  Biso   1.000  N
  C570     1.0000 0.12321  0.72806  0.70450  Biso   1.000  C
  H570     1.0000 0.11480  0.71510  0.69210  Biso   1.000  H
  N860     1.0000 0.01847  0.89324  0.68822  Biso   1.000  N
  N861     1.0000 0.05954  0.87232  0.68652  Biso   1.000  N
  N862     1.0000 0.03825  0.91165  0.67572  Biso   1.000  N
  N863     1.0000 0.07989  0.85141  0.68877  Biso   1.000  N
  C571     1.0000 0.09811  0.84725  0.71092  Biso   1.000  C
  H571     1.0000 0.09890  0.85820  0.72740  Biso   1.000  H
  C572     1.0000 0.06267  0.89864  0.67510  Biso   1.000  C
  H572     1.0000 0.07950  0.90620  0.66800  Biso   1.000  H
  C573     1.0000 0.08595  0.83133  0.66872  Biso   1.000  C
  H573     1.0000 0.07680  0.82930  0.65130  Biso   1.000  H
  C574     1.0000 0.14231  0.74719  0.74248  Biso   1.000  C
  H574     1.0000 0.14920  0.74970  0.76090  Biso   1.000  H
  C575     1.0000 0.10536  0.68355  0.75334  Biso   1.000  C
  H575     1.0000 0.08700  0.69020  0.75030  Biso   1.000  H
  C576     1.0000 0.03190  0.86991  0.69479  Biso   1.000  C
  H576     1.0000 0.02390  0.85420  0.70370  Biso   1.000  H
  N864     1.0000 0.13144  0.72271  0.73185  Biso   1.000  N
  Cu145    1.0000 0.12331  0.97050  0.08720  Biso   1.000  Cu
  Cu146    1.0000 0.14996  0.94205  0.02457  Biso   1.000  Cu
  N865     1.0000 0.14154  0.98353  0.02719  Biso   1.000  N
  N866     1.0000 0.12914  0.99548  0.05120  Biso   1.000  N
  N867     1.0000 0.10658  0.93459  0.07193  Biso   1.000  N
  N868     1.0000 0.11409  0.92447  0.04486  Biso   1.000  N
  N869     1.0000 0.14161  0.09201  0.98323  Biso   1.000  N
  N870     1.0000 0.11205  0.09033  0.98427  Biso   1.000  N
  C577     1.0000 0.15180  0.06936  0.99564  Biso   1.000  C
  H577     1.0000 0.17100  0.06520  0.99810  Biso   1.000  H
  N871     1.0000 0.12960  0.05296  0.00431  Biso   1.000  N
  C578     1.0000 0.12321  0.02194  0.04550  Biso   1.000  C
  H578     1.0000 0.11480  0.03490  0.05790  Biso   1.000  H
  N872     1.0000 0.01847  0.85676  0.06178  Biso   1.000  N
  N873     1.0000 0.05954  0.87768  0.06348  Biso   1.000  N
  N874     1.0000 0.03825  0.83835  0.07428  Biso   1.000  N
  N875     1.0000 0.07989  0.89859  0.06123  Biso   1.000  N
  C579     1.0000 0.09811  0.90275  0.03908  Biso   1.000  C
  H579     1.0000 0.09890  0.89180  0.02260  Biso   1.000  H
  C580     1.0000 0.06267  0.85136  0.07490  Biso   1.000  C
  H580     1.0000 0.07950  0.84380  0.08200  Biso   1.000  H
  C581     1.0000 0.08595  0.91867  0.08128  Biso   1.000  C
  H581     1.0000 0.07680  0.92070  0.09870  Biso   1.000  H
  C582     1.0000 0.14231  0.00281  0.00752  Biso   1.000  C
  H582     1.0000 0.14920  0.00030  0.98910  Biso   1.000  H
  C583     1.0000 0.10536  0.06645  0.99666  Biso   1.000  C
  H583     1.0000 0.08700  0.05980  0.99970  Biso   1.000  H
  C584     1.0000 0.03190  0.88009  0.05521  Biso   1.000  C
  H584     1.0000 0.02390  0.89580  0.04630  Biso   1.000  H
  N876     1.0000 0.13144  0.02729  0.01815  Biso   1.000  N
  Cu147    1.0000 0.12331  0.47050  0.58720  Biso   1.000  Cu
  Cu148    1.0000 0.14996  0.44205  0.52457  Biso   1.000  Cu
  N877     1.0000 0.14154  0.48353  0.52719  Biso   1.000  N
  N878     1.0000 0.12914  0.49548  0.55120  Biso   1.000  N
  N879     1.0000 0.10658  0.43459  0.57193  Biso   1.000  N
  N880     1.0000 0.11409  0.42447  0.54486  Biso   1.000  N
  N881     1.0000 0.14161  0.59201  0.48323  Biso   1.000  N
  N882     1.0000 0.11205  0.59033  0.48427  Biso   1.000  N
  C585     1.0000 0.15180  0.56936  0.49564  Biso   1.000  C
  H585     1.0000 0.17100  0.56520  0.49810  Biso   1.000  H
  N883     1.0000 0.12960  0.55296  0.50431  Biso   1.000  N
  C586     1.0000 0.12321  0.52194  0.54550  Biso   1.000  C
  H586     1.0000 0.11480  0.53490  0.55790  Biso   1.000  H
  N884     1.0000 0.01847  0.35676  0.56178  Biso   1.000  N
  N885     1.0000 0.05954  0.37768  0.56348  Biso   1.000  N
  N886     1.0000 0.03825  0.33835  0.57428  Biso   1.000  N
  N887     1.0000 0.07989  0.39859  0.56123  Biso   1.000  N
  C587     1.0000 0.09811  0.40275  0.53908  Biso   1.000  C
  H587     1.0000 0.09890  0.39180  0.52260  Biso   1.000  H
  C588     1.0000 0.06267  0.35136  0.57490  Biso   1.000  C
  H588     1.0000 0.07950  0.34380  0.58200  Biso   1.000  H
  C589     1.0000 0.08595  0.41867  0.58128  Biso   1.000  C
  H589     1.0000 0.07680  0.42070  0.59870  Biso   1.000  H
  C590     1.0000 0.14231  0.50281  0.50752  Biso   1.000  C
  H590     1.0000 0.14920  0.50030  0.48910  Biso   1.000  H
  C591     1.0000 0.10536  0.56645  0.49666  Biso   1.000  C
  H591     1.0000 0.08700  0.55980  0.49970  Biso   1.000  H
  C592     1.0000 0.03190  0.38009  0.55521  Biso   1.000  C
  H592     1.0000 0.02390  0.39580  0.54630  Biso   1.000  H
  N888     1.0000 0.13144  0.52729  0.51815  Biso   1.000  N
  Cu149    1.0000 0.62331  0.97050  0.58720  Biso   1.000  Cu
  Cu150    1.0000 0.64996  0.94205  0.52457  Biso   1.000  Cu
  N889     1.0000 0.64154  0.98353  0.52719  Biso   1.000  N
  N890     1.0000 0.62914  0.99548  0.55120  Biso   1.000  N
  N891     1.0000 0.60658  0.93459  0.57193  Biso   1.000  N
  N892     1.0000 0.61409  0.92447  0.54486  Biso   1.000  N
  N893     1.0000 0.64161  0.09201  0.48323  Biso   1.000  N
  N894     1.0000 0.61205  0.09033  0.48427  Biso   1.000  N
  C593     1.0000 0.65180  0.06936  0.49564  Biso   1.000  C
  H593     1.0000 0.67100  0.06520  0.49810  Biso   1.000  H
  N895     1.0000 0.62960  0.05296  0.50431  Biso   1.000  N
  C594     1.0000 0.62321  0.02194  0.54550  Biso   1.000  C
  H594     1.0000 0.61480  0.03490  0.55790  Biso   1.000  H
  N896     1.0000 0.51847  0.85676  0.56178  Biso   1.000  N
  N897     1.0000 0.55954  0.87768  0.56348  Biso   1.000  N
  N898     1.0000 0.53825  0.83835  0.57428  Biso   1.000  N
  N899     1.0000 0.57989  0.89859  0.56123  Biso   1.000  N
  C595     1.0000 0.59811  0.90275  0.53908  Biso   1.000  C
  H595     1.0000 0.59890  0.89180  0.52260  Biso   1.000  H
  C596     1.0000 0.56267  0.85136  0.57490  Biso   1.000  C
  H596     1.0000 0.57950  0.84380  0.58200  Biso   1.000  H
  C597     1.0000 0.58595  0.91867  0.58128  Biso   1.000  C
  H597     1.0000 0.57680  0.92070  0.59870  Biso   1.000  H
  C598     1.0000 0.64231  0.00281  0.50752  Biso   1.000  C
  H598     1.0000 0.64920  0.00030  0.48910  Biso   1.000  H
  C599     1.0000 0.60536  0.06645  0.49666  Biso   1.000  C
  H599     1.0000 0.58700  0.05980  0.49970  Biso   1.000  H
  C600     1.0000 0.53190  0.88009  0.55521  Biso   1.000  C
  H600     1.0000 0.52390  0.89580  0.54630  Biso   1.000  H
  N900     1.0000 0.63144  0.02729  0.51815  Biso   1.000  N
  Cu151    1.0000 0.62331  0.47050  0.08720  Biso   1.000  Cu
  Cu152    1.0000 0.64996  0.44205  0.02457  Biso   1.000  Cu
  N901     1.0000 0.64154  0.48353  0.02719  Biso   1.000  N
  N902     1.0000 0.62914  0.49548  0.05120  Biso   1.000  N
  N903     1.0000 0.60658  0.43459  0.07193  Biso   1.000  N
  N904     1.0000 0.61409  0.42447  0.04486  Biso   1.000  N
  N905     1.0000 0.64161  0.59201  0.98323  Biso   1.000  N
  N906     1.0000 0.61205  0.59033  0.98427  Biso   1.000  N
  C601     1.0000 0.65180  0.56936  0.99564  Biso   1.000  C
  H601     1.0000 0.67100  0.56520  0.99810  Biso   1.000  H
  N907     1.0000 0.62960  0.55296  0.00431  Biso   1.000  N
  C602     1.0000 0.62321  0.52194  0.04550  Biso   1.000  C
  H602     1.0000 0.61480  0.53490  0.05790  Biso   1.000  H
  N908     1.0000 0.51847  0.35676  0.06178  Biso   1.000  N
  N909     1.0000 0.55954  0.37768  0.06348  Biso   1.000  N
  N910     1.0000 0.53825  0.33835  0.07428  Biso   1.000  N
  N911     1.0000 0.57989  0.39859  0.06123  Biso   1.000  N
  C603     1.0000 0.59811  0.40275  0.03908  Biso   1.000  C
  H603     1.0000 0.59890  0.39180  0.02260  Biso   1.000  H
  C604     1.0000 0.56267  0.35136  0.07490  Biso   1.000  C
  H604     1.0000 0.57950  0.34380  0.08200  Biso   1.000  H
  C605     1.0000 0.58595  0.41867  0.08128  Biso   1.000  C
  H605     1.0000 0.57680  0.42070  0.09870  Biso   1.000  H
  C606     1.0000 0.64231  0.50281  0.00752  Biso   1.000  C
  H606     1.0000 0.64920  0.50030  0.98910  Biso   1.000  H
  C607     1.0000 0.60536  0.56645  0.99666  Biso   1.000  C
  H607     1.0000 0.58700  0.55980  0.99970  Biso   1.000  H
  C608     1.0000 0.53190  0.38009  0.05521  Biso   1.000  C
  H608     1.0000 0.52390  0.39580  0.04630  Biso   1.000  H
  N912     1.0000 0.63144  0.52729  0.01815  Biso   1.000  N
  Cu153    1.0000 0.62669  0.47050  0.16280  Biso   1.000  Cu
  Cu154    1.0000 0.60004  0.44205  0.22543  Biso   1.000  Cu
  N913     1.0000 0.60846  0.48353  0.22281  Biso   1.000  N
  N914     1.0000 0.62086  0.49548  0.19880  Biso   1.000  N
  N915     1.0000 0.64342  0.43459  0.17807  Biso   1.000  N
  N916     1.0000 0.63591  0.42447  0.20514  Biso   1.000  N
  N917     1.0000 0.60839  0.59201  0.26677  Biso   1.000  N
  N918     1.0000 0.63795  0.59033  0.26573  Biso   1.000  N
  C609     1.0000 0.59820  0.56936  0.25436  Biso   1.000  C
  H609     1.0000 0.57900  0.56520  0.25190  Biso   1.000  H
  N919     1.0000 0.62040  0.55296  0.24569  Biso   1.000  N
  C610     1.0000 0.62679  0.52194  0.20450  Biso   1.000  C
  H610     1.0000 0.63520  0.53490  0.19210  Biso   1.000  H
  N920     1.0000 0.73153  0.35676  0.18822  Biso   1.000  N
  N921     1.0000 0.69046  0.37768  0.18652  Biso   1.000  N
  N922     1.0000 0.71175  0.33835  0.17572  Biso   1.000  N
  N923     1.0000 0.67011  0.39859  0.18877  Biso   1.000  N
  C611     1.0000 0.65189  0.40275  0.21092  Biso   1.000  C
  H611     1.0000 0.65110  0.39180  0.22740  Biso   1.000  H
  C612     1.0000 0.68733  0.35136  0.17510  Biso   1.000  C
  H612     1.0000 0.67050  0.34380  0.16800  Biso   1.000  H
  C613     1.0000 0.66405  0.41867  0.16872  Biso   1.000  C
  H613     1.0000 0.67320  0.42070  0.15130  Biso   1.000  H
  C614     1.0000 0.60769  0.50281  0.24248  Biso   1.000  C
  H614     1.0000 0.60080  0.50030  0.26090  Biso   1.000  H
  C615     1.0000 0.64464  0.56645  0.25334  Biso   1.000  C
  H615     1.0000 0.66300  0.55980  0.25030  Biso   1.000  H
  C616     1.0000 0.71810  0.38009  0.19479  Biso   1.000  C
  H616     1.0000 0.72610  0.39580  0.20370  Biso   1.000  H
  N924     1.0000 0.61856  0.52729  0.23185  Biso   1.000  N
  Cu155    1.0000 0.62669  0.97050  0.66280  Biso   1.000  Cu
  Cu156    1.0000 0.60004  0.94205  0.72543  Biso   1.000  Cu
  N925     1.0000 0.60846  0.98353  0.72281  Biso   1.000  N
  N926     1.0000 0.62086  0.99548  0.69880  Biso   1.000  N
  N927     1.0000 0.64342  0.93459  0.67807  Biso   1.000  N
  N928     1.0000 0.63591  0.92447  0.70514  Biso   1.000  N
  N929     1.0000 0.60839  0.09201  0.76677  Biso   1.000  N
  N930     1.0000 0.63795  0.09033  0.76573  Biso   1.000  N
  C617     1.0000 0.59820  0.06936  0.75436  Biso   1.000  C
  H617     1.0000 0.57900  0.06520  0.75190  Biso   1.000  H
  N931     1.0000 0.62040  0.05296  0.74569  Biso   1.000  N
  C618     1.0000 0.62679  0.02194  0.70450  Biso   1.000  C
  H618     1.0000 0.63520  0.03490  0.69210  Biso   1.000  H
  N932     1.0000 0.73153  0.85676  0.68822  Biso   1.000  N
  N933     1.0000 0.69046  0.87768  0.68652  Biso   1.000  N
  N934     1.0000 0.71175  0.83835  0.67572  Biso   1.000  N
  N935     1.0000 0.67011  0.89859  0.68877  Biso   1.000  N
  C619     1.0000 0.65189  0.90275  0.71092  Biso   1.000  C
  H619     1.0000 0.65110  0.89180  0.72740  Biso   1.000  H
  C620     1.0000 0.68733  0.85136  0.67510  Biso   1.000  C
  H620     1.0000 0.67050  0.84380  0.66800  Biso   1.000  H
  C621     1.0000 0.66405  0.91867  0.66872  Biso   1.000  C
  H621     1.0000 0.67320  0.92070  0.65130  Biso   1.000  H
  C622     1.0000 0.60769  0.00281  0.74248  Biso   1.000  C
  H622     1.0000 0.60080  0.00030  0.76090  Biso   1.000  H
  C623     1.0000 0.64464  0.06645  0.75334  Biso   1.000  C
  H623     1.0000 0.66300  0.05980  0.75030  Biso   1.000  H
  C624     1.0000 0.71810  0.88009  0.69479  Biso   1.000  C
  H624     1.0000 0.72610  0.89580  0.70370  Biso   1.000  H
  N936     1.0000 0.61856  0.02729  0.73185  Biso   1.000  N
  Cu157    1.0000 0.12669  0.47050  0.66280  Biso   1.000  Cu
  Cu158    1.0000 0.10004  0.44205  0.72543  Biso   1.000  Cu
  N937     1.0000 0.10846  0.48353  0.72281  Biso   1.000  N
  N938     1.0000 0.12086  0.49548  0.69880  Biso   1.000  N
  N939     1.0000 0.14342  0.43459  0.67807  Biso   1.000  N
  N940     1.0000 0.13591  0.42447  0.70514  Biso   1.000  N
  N941     1.0000 0.10839  0.59201  0.76677  Biso   1.000  N
  N942     1.0000 0.13795  0.59033  0.76573  Biso   1.000  N
  C625     1.0000 0.09820  0.56936  0.75436  Biso   1.000  C
  H625     1.0000 0.07900  0.56520  0.75190  Biso   1.000  H
  N943     1.0000 0.12040  0.55296  0.74569  Biso   1.000  N
  C626     1.0000 0.12679  0.52194  0.70450  Biso   1.000  C
  H626     1.0000 0.13520  0.53490  0.69210  Biso   1.000  H
  N944     1.0000 0.23153  0.35676  0.68822  Biso   1.000  N
  N945     1.0000 0.19046  0.37768  0.68652  Biso   1.000  N
  N946     1.0000 0.21175  0.33835  0.67572  Biso   1.000  N
  N947     1.0000 0.17011  0.39859  0.68877  Biso   1.000  N
  C627     1.0000 0.15189  0.40275  0.71092  Biso   1.000  C
  H627     1.0000 0.15110  0.39180  0.72740  Biso   1.000  H
  C628     1.0000 0.18733  0.35136  0.67510  Biso   1.000  C
  H628     1.0000 0.17050  0.34380  0.66800  Biso   1.000  H
  C629     1.0000 0.16405  0.41867  0.66872  Biso   1.000  C
  H629     1.0000 0.17320  0.42070  0.65130  Biso   1.000  H
  C630     1.0000 0.10769  0.50281  0.74248  Biso   1.000  C
  H630     1.0000 0.10080  0.50030  0.76090  Biso   1.000  H
  C631     1.0000 0.14464  0.56645  0.75334  Biso   1.000  C
  H631     1.0000 0.16300  0.55980  0.75030  Biso   1.000  H
  C632     1.0000 0.21810  0.38009  0.69479  Biso   1.000  C
  H632     1.0000 0.22610  0.39580  0.70370  Biso   1.000  H
  N948     1.0000 0.11856  0.52729  0.73185  Biso   1.000  N
  Cu159    1.0000 0.12669  0.97050  0.16280  Biso   1.000  Cu
  Cu160    1.0000 0.10004  0.94205  0.22543  Biso   1.000  Cu
  N949     1.0000 0.10846  0.98353  0.22281  Biso   1.000  N
  N950     1.0000 0.12086  0.99548  0.19880  Biso   1.000  N
  N951     1.0000 0.14342  0.93459  0.17807  Biso   1.000  N
  N952     1.0000 0.13591  0.92447  0.20514  Biso   1.000  N
  N953     1.0000 0.10839  0.09201  0.26677  Biso   1.000  N
  N954     1.0000 0.13795  0.09033  0.26573  Biso   1.000  N
  C633     1.0000 0.09820  0.06936  0.25436  Biso   1.000  C
  H633     1.0000 0.07900  0.06520  0.25190  Biso   1.000  H
  N955     1.0000 0.12040  0.05296  0.24569  Biso   1.000  N
  C634     1.0000 0.12679  0.02194  0.20450  Biso   1.000  C
  H634     1.0000 0.13520  0.03490  0.19210  Biso   1.000  H
  N956     1.0000 0.23153  0.85676  0.18822  Biso   1.000  N
  N957     1.0000 0.19046  0.87768  0.18652  Biso   1.000  N
  N958     1.0000 0.21175  0.83835  0.17572  Biso   1.000  N
  N959     1.0000 0.17011  0.89859  0.18877  Biso   1.000  N
  C635     1.0000 0.15189  0.90275  0.21092  Biso   1.000  C
  H635     1.0000 0.15110  0.89180  0.22740  Biso   1.000  H
  C636     1.0000 0.18733  0.85136  0.17510  Biso   1.000  C
  H636     1.0000 0.17050  0.84380  0.16800  Biso   1.000  H
  C637     1.0000 0.16405  0.91867  0.16872  Biso   1.000  C
  H637     1.0000 0.17320  0.92070  0.15130  Biso   1.000  H
  C638     1.0000 0.10769  0.00281  0.24248  Biso   1.000  C
  H638     1.0000 0.10080  0.00030  0.26090  Biso   1.000  H
  C639     1.0000 0.14464  0.06645  0.25334  Biso   1.000  C
  H639     1.0000 0.16300  0.05980  0.25030  Biso   1.000  H
  C640     1.0000 0.21810  0.88009  0.19479  Biso   1.000  C
  H640     1.0000 0.22610  0.89580  0.20370  Biso   1.000  H
  N960     1.0000 0.11856  0.02729  0.23185  Biso   1.000  N
  Cu161    1.0000 0.27951  0.66280  0.62331  Biso   1.000  Cu
  Cu162    1.0000 0.30795  0.72543  0.64996  Biso   1.000  Cu
  N961     1.0000 0.26647  0.72281  0.64154  Biso   1.000  N
  N962     1.0000 0.25452  0.69880  0.62914  Biso   1.000  N
  N963     1.0000 0.31541  0.67807  0.60658  Biso   1.000  N
  N964     1.0000 0.32553  0.70514  0.61409  Biso   1.000  N
  N965     1.0000 0.15799  0.76677  0.64161  Biso   1.000  N
  N966     1.0000 0.15967  0.76573  0.61205  Biso   1.000  N
  C641     1.0000 0.18064  0.75436  0.65180  Biso   1.000  C
  H641     1.0000 0.18480  0.75190  0.67100  Biso   1.000  H
  N967     1.0000 0.19704  0.74569  0.62960  Biso   1.000  N
  C642     1.0000 0.22806  0.70450  0.62321  Biso   1.000  C
  H642     1.0000 0.21510  0.69210  0.61480  Biso   1.000  H
  N968     1.0000 0.39324  0.68822  0.51847  Biso   1.000  N
  N969     1.0000 0.37232  0.68652  0.55954  Biso   1.000  N
  N970     1.0000 0.41165  0.67572  0.53825  Biso   1.000  N
  N971     1.0000 0.35141  0.68877  0.57989  Biso   1.000  N
  C643     1.0000 0.34725  0.71092  0.59811  Biso   1.000  C
  H643     1.0000 0.35820  0.72740  0.59890  Biso   1.000  H
  C644     1.0000 0.39864  0.67510  0.56267  Biso   1.000  C
  H644     1.0000 0.40620  0.66800  0.57950  Biso   1.000  H
  C645     1.0000 0.33133  0.66872  0.58595  Biso   1.000  C
  H645     1.0000 0.32930  0.65130  0.57680  Biso   1.000  H
  C646     1.0000 0.24719  0.74248  0.64231  Biso   1.000  C
  H646     1.0000 0.24970  0.76090  0.64920  Biso   1.000  H
  C647     1.0000 0.18355  0.75334  0.60536  Biso   1.000  C
  H647     1.0000 0.19020  0.75030  0.58700  Biso   1.000  H
  C648     1.0000 0.36991  0.69479  0.53190  Biso   1.000  C
  H648     1.0000 0.35420  0.70370  0.52390  Biso   1.000  H
  N972     1.0000 0.22271  0.73185  0.63144  Biso   1.000  N
  Cu163    1.0000 0.27951  0.16280  0.12331  Biso   1.000  Cu
  Cu164    1.0000 0.30795  0.22543  0.14996  Biso   1.000  Cu
  N973     1.0000 0.26647  0.22281  0.14154  Biso   1.000  N
  N974     1.0000 0.25452  0.19880  0.12914  Biso   1.000  N
  N975     1.0000 0.31541  0.17807  0.10658  Biso   1.000  N
  N976     1.0000 0.32553  0.20514  0.11409  Biso   1.000  N
  N977     1.0000 0.15799  0.26677  0.14161  Biso   1.000  N
  N978     1.0000 0.15967  0.26573  0.11205  Biso   1.000  N
  C649     1.0000 0.18064  0.25436  0.15180  Biso   1.000  C
  H649     1.0000 0.18480  0.25190  0.17100  Biso   1.000  H
  N979     1.0000 0.19704  0.24569  0.12960  Biso   1.000  N
  C650     1.0000 0.22806  0.20450  0.12321  Biso   1.000  C
  H650     1.0000 0.21510  0.19210  0.11480  Biso   1.000  H
  N980     1.0000 0.39324  0.18822  0.01847  Biso   1.000  N
  N981     1.0000 0.37232  0.18652  0.05954  Biso   1.000  N
  N982     1.0000 0.41165  0.17572  0.03825  Biso   1.000  N
  N983     1.0000 0.35141  0.18877  0.07989  Biso   1.000  N
  C651     1.0000 0.34725  0.21092  0.09811  Biso   1.000  C
  H651     1.0000 0.35820  0.22740  0.09890  Biso   1.000  H
  C652     1.0000 0.39864  0.17510  0.06267  Biso   1.000  C
  H652     1.0000 0.40620  0.16800  0.07950  Biso   1.000  H
  C653     1.0000 0.33133  0.16872  0.08595  Biso   1.000  C
  H653     1.0000 0.32930  0.15130  0.07680  Biso   1.000  H
  C654     1.0000 0.24719  0.24248  0.14231  Biso   1.000  C
  H654     1.0000 0.24970  0.26090  0.14920  Biso   1.000  H
  C655     1.0000 0.18355  0.25334  0.10536  Biso   1.000  C
  H655     1.0000 0.19020  0.25030  0.08700  Biso   1.000  H
  C656     1.0000 0.36991  0.19479  0.03190  Biso   1.000  C
  H656     1.0000 0.35420  0.20370  0.02390  Biso   1.000  H
  N984     1.0000 0.22271  0.23185  0.13144  Biso   1.000  N
  Cu165    1.0000 0.77951  0.66280  0.12331  Biso   1.000  Cu
  Cu166    1.0000 0.80795  0.72543  0.14996  Biso   1.000  Cu
  N985     1.0000 0.76647  0.72281  0.14154  Biso   1.000  N
  N986     1.0000 0.75452  0.69880  0.12914  Biso   1.000  N
  N987     1.0000 0.81541  0.67807  0.10658  Biso   1.000  N
  N988     1.0000 0.82553  0.70514  0.11409  Biso   1.000  N
  N989     1.0000 0.65799  0.76677  0.14161  Biso   1.000  N
  N990     1.0000 0.65967  0.76573  0.11205  Biso   1.000  N
  C657     1.0000 0.68064  0.75436  0.15180  Biso   1.000  C
  H657     1.0000 0.68480  0.75190  0.17100  Biso   1.000  H
  N991     1.0000 0.69704  0.74569  0.12960  Biso   1.000  N
  C658     1.0000 0.72806  0.70450  0.12321  Biso   1.000  C
  H658     1.0000 0.71510  0.69210  0.11480  Biso   1.000  H
  N992     1.0000 0.89324  0.68822  0.01847  Biso   1.000  N
  N993     1.0000 0.87232  0.68652  0.05954  Biso   1.000  N
  N994     1.0000 0.91165  0.67572  0.03825  Biso   1.000  N
  N995     1.0000 0.85141  0.68877  0.07989  Biso   1.000  N
  C659     1.0000 0.84725  0.71092  0.09811  Biso   1.000  C
  H659     1.0000 0.85820  0.72740  0.09890  Biso   1.000  H
  C660     1.0000 0.89864  0.67510  0.06267  Biso   1.000  C
  H660     1.0000 0.90620  0.66800  0.07950  Biso   1.000  H
  C661     1.0000 0.83133  0.66872  0.08595  Biso   1.000  C
  H661     1.0000 0.82930  0.65130  0.07680  Biso   1.000  H
  C662     1.0000 0.74719  0.74248  0.14231  Biso   1.000  C
  H662     1.0000 0.74970  0.76090  0.14920  Biso   1.000  H
  C663     1.0000 0.68355  0.75334  0.10536  Biso   1.000  C
  H663     1.0000 0.69020  0.75030  0.08700  Biso   1.000  H
  C664     1.0000 0.86991  0.69479  0.03190  Biso   1.000  C
  H664     1.0000 0.85420  0.70370  0.02390  Biso   1.000  H
  N996     1.0000 0.72271  0.73185  0.13144  Biso   1.000  N
  Cu167    1.0000 0.77951  0.16280  0.62331  Biso   1.000  Cu
  Cu168    1.0000 0.80795  0.22543  0.64996  Biso   1.000  Cu
  N997     1.0000 0.76647  0.22281  0.64154  Biso   1.000  N
  N998     1.0000 0.75452  0.19880  0.62914  Biso   1.000  N
  N999     1.0000 0.81541  0.17807  0.60658  Biso   1.000  N
  N1000    1.0000 0.82553  0.20514  0.61409  Biso   1.000  N
  N1001    1.0000 0.65799  0.26677  0.64161  Biso   1.000  N
  N1002    1.0000 0.65967  0.26573  0.61205  Biso   1.000  N
  C665     1.0000 0.68064  0.25436  0.65180  Biso   1.000  C
  H665     1.0000 0.68480  0.25190  0.67100  Biso   1.000  H
  N1003    1.0000 0.69704  0.24569  0.62960  Biso   1.000  N
  C666     1.0000 0.72806  0.20450  0.62321  Biso   1.000  C
  H666     1.0000 0.71510  0.19210  0.61480  Biso   1.000  H
  N1004    1.0000 0.89324  0.18822  0.51847  Biso   1.000  N
  N1005    1.0000 0.87232  0.18652  0.55954  Biso   1.000  N
  N1006    1.0000 0.91165  0.17572  0.53825  Biso   1.000  N
  N1007    1.0000 0.85141  0.18877  0.57989  Biso   1.000  N
  C667     1.0000 0.84725  0.21092  0.59811  Biso   1.000  C
  H667     1.0000 0.85820  0.22740  0.59890  Biso   1.000  H
  C668     1.0000 0.89864  0.17510  0.56267  Biso   1.000  C
  H668     1.0000 0.90620  0.16800  0.57950  Biso   1.000  H
  C669     1.0000 0.83133  0.16872  0.58595  Biso   1.000  C
  H669     1.0000 0.82930  0.15130  0.57680  Biso   1.000  H
  C670     1.0000 0.74719  0.24248  0.64231  Biso   1.000  C
  H670     1.0000 0.74970  0.26090  0.64920  Biso   1.000  H
  C671     1.0000 0.68355  0.25334  0.60536  Biso   1.000  C
  H671     1.0000 0.69020  0.25030  0.58700  Biso   1.000  H
  C672     1.0000 0.86991  0.19479  0.53190  Biso   1.000  C
  H672     1.0000 0.85420  0.20370  0.52390  Biso   1.000  H
  N1008    1.0000 0.72271  0.23185  0.63144  Biso   1.000  N
  Cu169    1.0000 0.77951  0.58720  0.12669  Biso   1.000  Cu
  Cu170    1.0000 0.80795  0.52457  0.10004  Biso   1.000  Cu
  N1009    1.0000 0.76647  0.52719  0.10846  Biso   1.000  N
  N1010    1.0000 0.75452  0.55120  0.12086  Biso   1.000  N
  N1011    1.0000 0.81541  0.57193  0.14342  Biso   1.000  N
  N1012    1.0000 0.82553  0.54486  0.13591  Biso   1.000  N
  N1013    1.0000 0.65799  0.48323  0.10839  Biso   1.000  N
  N1014    1.0000 0.65967  0.48427  0.13795  Biso   1.000  N
  C673     1.0000 0.68064  0.49564  0.09820  Biso   1.000  C
  H673     1.0000 0.68480  0.49810  0.07900  Biso   1.000  H
  N1015    1.0000 0.69704  0.50431  0.12040  Biso   1.000  N
  C674     1.0000 0.72806  0.54550  0.12679  Biso   1.000  C
  H674     1.0000 0.71510  0.55790  0.13520  Biso   1.000  H
  N1016    1.0000 0.89324  0.56178  0.23153  Biso   1.000  N
  N1017    1.0000 0.87232  0.56348  0.19046  Biso   1.000  N
  N1018    1.0000 0.91165  0.57428  0.21175  Biso   1.000  N
  N1019    1.0000 0.85141  0.56123  0.17011  Biso   1.000  N
  C675     1.0000 0.84725  0.53908  0.15189  Biso   1.000  C
  H675     1.0000 0.85820  0.52260  0.15110  Biso   1.000  H
  C676     1.0000 0.89864  0.57490  0.18733  Biso   1.000  C
  H676     1.0000 0.90620  0.58200  0.17050  Biso   1.000  H
  C677     1.0000 0.83133  0.58128  0.16405  Biso   1.000  C
  H677     1.0000 0.82930  0.59870  0.17320  Biso   1.000  H
  C678     1.0000 0.74719  0.50752  0.10769  Biso   1.000  C
  H678     1.0000 0.74970  0.48910  0.10080  Biso   1.000  H
  C679     1.0000 0.68355  0.49666  0.14464  Biso   1.000  C
  H679     1.0000 0.69020  0.49970  0.16300  Biso   1.000  H
  C680     1.0000 0.86991  0.55521  0.21810  Biso   1.000  C
  H680     1.0000 0.85420  0.54630  0.22610  Biso   1.000  H
  N1020    1.0000 0.72271  0.51815  0.11856  Biso   1.000  N
  Cu171    1.0000 0.77951  0.08720  0.62669  Biso   1.000  Cu
  Cu172    1.0000 0.80795  0.02457  0.60004  Biso   1.000  Cu
  N1021    1.0000 0.76647  0.02719  0.60846  Biso   1.000  N
  N1022    1.0000 0.75452  0.05120  0.62086  Biso   1.000  N
  N1023    1.0000 0.81541  0.07193  0.64342  Biso   1.000  N
  N1024    1.0000 0.82553  0.04486  0.63591  Biso   1.000  N
  N1025    1.0000 0.65799  0.98323  0.60839  Biso   1.000  N
  N1026    1.0000 0.65967  0.98427  0.63795  Biso   1.000  N
  C681     1.0000 0.68064  0.99564  0.59820  Biso   1.000  C
  H681     1.0000 0.68480  0.99810  0.57900  Biso   1.000  H
  N1027    1.0000 0.69704  0.00431  0.62040  Biso   1.000  N
  C682     1.0000 0.72806  0.04550  0.62679  Biso   1.000  C
  H682     1.0000 0.71510  0.05790  0.63520  Biso   1.000  H
  N1028    1.0000 0.89324  0.06178  0.73153  Biso   1.000  N
  N1029    1.0000 0.87232  0.06348  0.69046  Biso   1.000  N
  N1030    1.0000 0.91165  0.07428  0.71175  Biso   1.000  N
  N1031    1.0000 0.85141  0.06123  0.67011  Biso   1.000  N
  C683     1.0000 0.84725  0.03908  0.65189  Biso   1.000  C
  H683     1.0000 0.85820  0.02260  0.65110  Biso   1.000  H
  C684     1.0000 0.89864  0.07490  0.68733  Biso   1.000  C
  H684     1.0000 0.90620  0.08200  0.67050  Biso   1.000  H
  C685     1.0000 0.83133  0.08128  0.66405  Biso   1.000  C
  H685     1.0000 0.82930  0.09870  0.67320  Biso   1.000  H
  C686     1.0000 0.74719  0.00752  0.60769  Biso   1.000  C
  H686     1.0000 0.74970  0.98910  0.60080  Biso   1.000  H
  C687     1.0000 0.68355  0.99666  0.64464  Biso   1.000  C
  H687     1.0000 0.69020  0.99970  0.66300  Biso   1.000  H
  C688     1.0000 0.86991  0.05521  0.71810  Biso   1.000  C
  H688     1.0000 0.85420  0.04630  0.72610  Biso   1.000  H
  N1032    1.0000 0.72271  0.01815  0.61856  Biso   1.000  N
  Cu173    1.0000 0.27951  0.58720  0.62669  Biso   1.000  Cu
  Cu174    1.0000 0.30795  0.52457  0.60004  Biso   1.000  Cu
  N1033    1.0000 0.26647  0.52719  0.60846  Biso   1.000  N
  N1034    1.0000 0.25452  0.55120  0.62086  Biso   1.000  N
  N1035    1.0000 0.31541  0.57193  0.64342  Biso   1.000  N
  N1036    1.0000 0.32553  0.54486  0.63591  Biso   1.000  N
  N1037    1.0000 0.15799  0.48323  0.60839  Biso   1.000  N
  N1038    1.0000 0.15967  0.48427  0.63795  Biso   1.000  N
  C689     1.0000 0.18064  0.49564  0.59820  Biso   1.000  C
  H689     1.0000 0.18480  0.49810  0.57900  Biso   1.000  H
  N1039    1.0000 0.19704  0.50431  0.62040  Biso   1.000  N
  C690     1.0000 0.22806  0.54550  0.62679  Biso   1.000  C
  H690     1.0000 0.21510  0.55790  0.63520  Biso   1.000  H
  N1040    1.0000 0.39324  0.56178  0.73153  Biso   1.000  N
  N1041    1.0000 0.37232  0.56348  0.69046  Biso   1.000  N
  N1042    1.0000 0.41165  0.57428  0.71175  Biso   1.000  N
  N1043    1.0000 0.35141  0.56123  0.67011  Biso   1.000  N
  C691     1.0000 0.34725  0.53908  0.65189  Biso   1.000  C
  H691     1.0000 0.35820  0.52260  0.65110  Biso   1.000  H
  C692     1.0000 0.39864  0.57490  0.68733  Biso   1.000  C
  H692     1.0000 0.40620  0.58200  0.67050  Biso   1.000  H
  C693     1.0000 0.33133  0.58128  0.66405  Biso   1.000  C
  H693     1.0000 0.32930  0.59870  0.67320  Biso   1.000  H
  C694     1.0000 0.24719  0.50752  0.60769  Biso   1.000  C
  H694     1.0000 0.24970  0.48910  0.60080  Biso   1.000  H
  C695     1.0000 0.18355  0.49666  0.64464  Biso   1.000  C
  H695     1.0000 0.19020  0.49970  0.66300  Biso   1.000  H
  C696     1.0000 0.36991  0.55521  0.71810  Biso   1.000  C
  H696     1.0000 0.35420  0.54630  0.72610  Biso   1.000  H
  N1044    1.0000 0.22271  0.51815  0.61856  Biso   1.000  N
  Cu175    1.0000 0.27951  0.08720  0.12669  Biso   1.000  Cu
  Cu176    1.0000 0.30795  0.02457  0.10004  Biso   1.000  Cu
  N1045    1.0000 0.26647  0.02719  0.10846  Biso   1.000  N
  N1046    1.0000 0.25452  0.05120  0.12086  Biso   1.000  N
  N1047    1.0000 0.31541  0.07193  0.14342  Biso   1.000  N
  N1048    1.0000 0.32553  0.04486  0.13591  Biso   1.000  N
  N1049    1.0000 0.15799  0.98323  0.10839  Biso   1.000  N
  N1050    1.0000 0.15967  0.98427  0.13795  Biso   1.000  N
  C697     1.0000 0.18064  0.99564  0.09820  Biso   1.000  C
  H697     1.0000 0.18480  0.99810  0.07900  Biso   1.000  H
  N1051    1.0000 0.19704  0.00431  0.12040  Biso   1.000  N
  C698     1.0000 0.22806  0.04550  0.12679  Biso   1.000  C
  H698     1.0000 0.21510  0.05790  0.13520  Biso   1.000  H
  N1052    1.0000 0.39324  0.06178  0.23153  Biso   1.000  N
  N1053    1.0000 0.37232  0.06348  0.19046  Biso   1.000  N
  N1054    1.0000 0.41165  0.07428  0.21175  Biso   1.000  N
  N1055    1.0000 0.35141  0.06123  0.17011  Biso   1.000  N
  C699     1.0000 0.34725  0.03908  0.15189  Biso   1.000  C
  H699     1.0000 0.35820  0.02260  0.15110  Biso   1.000  H
  C700     1.0000 0.39864  0.07490  0.18733  Biso   1.000  C
  H700     1.0000 0.40620  0.08200  0.17050  Biso   1.000  H
  C701     1.0000 0.33133  0.08128  0.16405  Biso   1.000  C
  H701     1.0000 0.32930  0.09870  0.17320  Biso   1.000  H
  C702     1.0000 0.24719  0.00752  0.10769  Biso   1.000  C
  H702     1.0000 0.24970  0.98910  0.10080  Biso   1.000  H
  C703     1.0000 0.18355  0.99666  0.14464  Biso   1.000  C
  H703     1.0000 0.19020  0.99970  0.16300  Biso   1.000  H
  C704     1.0000 0.36991  0.05521  0.21810  Biso   1.000  C
  H704     1.0000 0.35420  0.04630  0.22610  Biso   1.000  H
  N1056    1.0000 0.22271  0.01815  0.11856  Biso   1.000  N
  Cu177    1.0000 0.47050  0.16280  0.62669  Biso   1.000  Cu
  Cu178    1.0000 0.44205  0.22543  0.60004  Biso   1.000  Cu
  N1057    1.0000 0.48353  0.22281  0.60846  Biso   1.000  N
  N1058    1.0000 0.49548  0.19880  0.62086  Biso   1.000  N
  N1059    1.0000 0.43459  0.17807  0.64342  Biso   1.000  N
  N1060    1.0000 0.42447  0.20514  0.63591  Biso   1.000  N
  N1061    1.0000 0.59201  0.26677  0.60839  Biso   1.000  N
  N1062    1.0000 0.59033  0.26573  0.63795  Biso   1.000  N
  C705     1.0000 0.56936  0.25436  0.59820  Biso   1.000  C
  H705     1.0000 0.56520  0.25190  0.57900  Biso   1.000  H
  N1063    1.0000 0.55296  0.24569  0.62040  Biso   1.000  N
  C706     1.0000 0.52194  0.20450  0.62679  Biso   1.000  C
  H706     1.0000 0.53490  0.19210  0.63520  Biso   1.000  H
  N1064    1.0000 0.35676  0.18822  0.73153  Biso   1.000  N
  N1065    1.0000 0.37768  0.18652  0.69046  Biso   1.000  N
  N1066    1.0000 0.33835  0.17572  0.71175  Biso   1.000  N
  N1067    1.0000 0.39859  0.18877  0.67011  Biso   1.000  N
  C707     1.0000 0.40275  0.21092  0.65189  Biso   1.000  C
  H707     1.0000 0.39180  0.22740  0.65110  Biso   1.000  H
  C708     1.0000 0.35136  0.17510  0.68733  Biso   1.000  C
  H708     1.0000 0.34380  0.16800  0.67050  Biso   1.000  H
  C709     1.0000 0.41867  0.16872  0.66405  Biso   1.000  C
  H709     1.0000 0.42070  0.15130  0.67320  Biso   1.000  H
  C710     1.0000 0.50281  0.24248  0.60769  Biso   1.000  C
  H710     1.0000 0.50030  0.26090  0.60080  Biso   1.000  H
  C711     1.0000 0.56645  0.25334  0.64464  Biso   1.000  C
  H711     1.0000 0.55980  0.25030  0.66300  Biso   1.000  H
  C712     1.0000 0.38009  0.19479  0.71810  Biso   1.000  C
  H712     1.0000 0.39580  0.20370  0.72610  Biso   1.000  H
  N1068    1.0000 0.52729  0.23185  0.61856  Biso   1.000  N
  Cu179    1.0000 0.47050  0.66280  0.12669  Biso   1.000  Cu
  Cu180    1.0000 0.44205  0.72543  0.10004  Biso   1.000  Cu
  N1069    1.0000 0.48353  0.72281  0.10846  Biso   1.000  N
  N1070    1.0000 0.49548  0.69880  0.12086  Biso   1.000  N
  N1071    1.0000 0.43459  0.67807  0.14342  Biso   1.000  N
  N1072    1.0000 0.42447  0.70514  0.13591  Biso   1.000  N
  N1073    1.0000 0.59201  0.76677  0.10839  Biso   1.000  N
  N1074    1.0000 0.59033  0.76573  0.13795  Biso   1.000  N
  C713     1.0000 0.56936  0.75436  0.09820  Biso   1.000  C
  H713     1.0000 0.56520  0.75190  0.07900  Biso   1.000  H
  N1075    1.0000 0.55296  0.74569  0.12040  Biso   1.000  N
  C714     1.0000 0.52194  0.70450  0.12679  Biso   1.000  C
  H714     1.0000 0.53490  0.69210  0.13520  Biso   1.000  H
  N1076    1.0000 0.35676  0.68822  0.23153  Biso   1.000  N
  N1077    1.0000 0.37768  0.68652  0.19046  Biso   1.000  N
  N1078    1.0000 0.33835  0.67572  0.21175  Biso   1.000  N
  N1079    1.0000 0.39859  0.68877  0.17011  Biso   1.000  N
  C715     1.0000 0.40275  0.71092  0.15189  Biso   1.000  C
  H715     1.0000 0.39180  0.72740  0.15110  Biso   1.000  H
  C716     1.0000 0.35136  0.67510  0.18733  Biso   1.000  C
  H716     1.0000 0.34380  0.66800  0.17050  Biso   1.000  H
  C717     1.0000 0.41867  0.66872  0.16405  Biso   1.000  C
  H717     1.0000 0.42070  0.65130  0.17320  Biso   1.000  H
  C718     1.0000 0.50281  0.74248  0.10769  Biso   1.000  C
  H718     1.0000 0.50030  0.76090  0.10080  Biso   1.000  H
  C719     1.0000 0.56645  0.75334  0.14464  Biso   1.000  C
  H719     1.0000 0.55980  0.75030  0.16300  Biso   1.000  H
  C720     1.0000 0.38009  0.69479  0.21810  Biso   1.000  C
  H720     1.0000 0.39580  0.70370  0.22610  Biso   1.000  H
  N1080    1.0000 0.52729  0.73185  0.11856  Biso   1.000  N
  Cu181    1.0000 0.97050  0.16280  0.12669  Biso   1.000  Cu
  Cu182    1.0000 0.94205  0.22543  0.10004  Biso   1.000  Cu
  N1081    1.0000 0.98353  0.22281  0.10846  Biso   1.000  N
  N1082    1.0000 0.99548  0.19880  0.12086  Biso   1.000  N
  N1083    1.0000 0.93459  0.17807  0.14342  Biso   1.000  N
  N1084    1.0000 0.92447  0.20514  0.13591  Biso   1.000  N
  N1085    1.0000 0.09201  0.26677  0.10839  Biso   1.000  N
  N1086    1.0000 0.09033  0.26573  0.13795  Biso   1.000  N
  C721     1.0000 0.06936  0.25436  0.09820  Biso   1.000  C
  H721     1.0000 0.06520  0.25190  0.07900  Biso   1.000  H
  N1087    1.0000 0.05296  0.24569  0.12040  Biso   1.000  N
  C722     1.0000 0.02194  0.20450  0.12679  Biso   1.000  C
  H722     1.0000 0.03490  0.19210  0.13520  Biso   1.000  H
  N1088    1.0000 0.85676  0.18822  0.23153  Biso   1.000  N
  N1089    1.0000 0.87768  0.18652  0.19046  Biso   1.000  N
  N1090    1.0000 0.83835  0.17572  0.21175  Biso   1.000  N
  N1091    1.0000 0.89859  0.18877  0.17011  Biso   1.000  N
  C723     1.0000 0.90275  0.21092  0.15189  Biso   1.000  C
  H723     1.0000 0.89180  0.22740  0.15110  Biso   1.000  H
  C724     1.0000 0.85136  0.17510  0.18733  Biso   1.000  C
  H724     1.0000 0.84380  0.16800  0.17050  Biso   1.000  H
  C725     1.0000 0.91867  0.16872  0.16405  Biso   1.000  C
  H725     1.0000 0.92070  0.15130  0.17320  Biso   1.000  H
  C726     1.0000 0.00281  0.24248  0.10769  Biso   1.000  C
  H726     1.0000 0.00030  0.26090  0.10080  Biso   1.000  H
  C727     1.0000 0.06645  0.25334  0.14464  Biso   1.000  C
  H727     1.0000 0.05980  0.25030  0.16300  Biso   1.000  H
  C728     1.0000 0.88009  0.19479  0.21810  Biso   1.000  C
  H728     1.0000 0.89580  0.20370  0.22610  Biso   1.000  H
  N1092    1.0000 0.02729  0.23185  0.11856  Biso   1.000  N
  Cu183    1.0000 0.97050  0.66280  0.62669  Biso   1.000  Cu
  Cu184    1.0000 0.94205  0.72543  0.60004  Biso   1.000  Cu
  N1093    1.0000 0.98353  0.72281  0.60846  Biso   1.000  N
  N1094    1.0000 0.99548  0.69880  0.62086  Biso   1.000  N
  N1095    1.0000 0.93459  0.67807  0.64342  Biso   1.000  N
  N1096    1.0000 0.92447  0.70514  0.63591  Biso   1.000  N
  N1097    1.0000 0.09201  0.76677  0.60839  Biso   1.000  N
  N1098    1.0000 0.09033  0.76573  0.63795  Biso   1.000  N
  C729     1.0000 0.06936  0.75436  0.59820  Biso   1.000  C
  H729     1.0000 0.06520  0.75190  0.57900  Biso   1.000  H
  N1099    1.0000 0.05296  0.74569  0.62040  Biso   1.000  N
  C730     1.0000 0.02194  0.70450  0.62679  Biso   1.000  C
  H730     1.0000 0.03490  0.69210  0.63520  Biso   1.000  H
  N1100    1.0000 0.85676  0.68822  0.73153  Biso   1.000  N
  N1101    1.0000 0.87768  0.68652  0.69046  Biso   1.000  N
  N1102    1.0000 0.83835  0.67572  0.71175  Biso   1.000  N
  N1103    1.0000 0.89859  0.68877  0.67011  Biso   1.000  N
  C731     1.0000 0.90275  0.71092  0.65189  Biso   1.000  C
  H731     1.0000 0.89180  0.72740  0.65110  Biso   1.000  H
  C732     1.0000 0.85136  0.67510  0.68733  Biso   1.000  C
  H732     1.0000 0.84380  0.66800  0.67050  Biso   1.000  H
  C733     1.0000 0.91867  0.66872  0.66405  Biso   1.000  C
  H733     1.0000 0.92070  0.65130  0.67320  Biso   1.000  H
  C734     1.0000 0.00281  0.74248  0.60769  Biso   1.000  C
  H734     1.0000 0.00030  0.76090  0.60080  Biso   1.000  H
  C735     1.0000 0.06645  0.75334  0.64464  Biso   1.000  C
  H735     1.0000 0.05980  0.75030  0.66300  Biso   1.000  H
  C736     1.0000 0.88009  0.69479  0.71810  Biso   1.000  C
  H736     1.0000 0.89580  0.70370  0.72610  Biso   1.000  H
  N1104    1.0000 0.02729  0.73185  0.61856  Biso   1.000  N
  Cu185    1.0000 0.97050  0.08720  0.12331  Biso   1.000  Cu
  Cu186    1.0000 0.94205  0.02457  0.14996  Biso   1.000  Cu
  N1105    1.0000 0.98353  0.02719  0.14154  Biso   1.000  N
  N1106    1.0000 0.99548  0.05120  0.12914  Biso   1.000  N
  N1107    1.0000 0.93459  0.07193  0.10658  Biso   1.000  N
  N1108    1.0000 0.92447  0.04486  0.11409  Biso   1.000  N
  N1109    1.0000 0.09201  0.98323  0.14161  Biso   1.000  N
  N1110    1.0000 0.09033  0.98427  0.11205  Biso   1.000  N
  C737     1.0000 0.06936  0.99564  0.15180  Biso   1.000  C
  H737     1.0000 0.06520  0.99810  0.17100  Biso   1.000  H
  N1111    1.0000 0.05296  0.00431  0.12960  Biso   1.000  N
  C738     1.0000 0.02194  0.04550  0.12321  Biso   1.000  C
  H738     1.0000 0.03490  0.05790  0.11480  Biso   1.000  H
  N1112    1.0000 0.85676  0.06178  0.01847  Biso   1.000  N
  N1113    1.0000 0.87768  0.06348  0.05954  Biso   1.000  N
  N1114    1.0000 0.83835  0.07428  0.03825  Biso   1.000  N
  N1115    1.0000 0.89859  0.06123  0.07989  Biso   1.000  N
  C739     1.0000 0.90275  0.03908  0.09811  Biso   1.000  C
  H739     1.0000 0.89180  0.02260  0.09890  Biso   1.000  H
  C740     1.0000 0.85136  0.07490  0.06267  Biso   1.000  C
  H740     1.0000 0.84380  0.08200  0.07950  Biso   1.000  H
  C741     1.0000 0.91867  0.08128  0.08595  Biso   1.000  C
  H741     1.0000 0.92070  0.09870  0.07680  Biso   1.000  H
  C742     1.0000 0.00281  0.00752  0.14231  Biso   1.000  C
  H742     1.0000 0.00030  0.98910  0.14920  Biso   1.000  H
  C743     1.0000 0.06645  0.99666  0.10536  Biso   1.000  C
  H743     1.0000 0.05980  0.99970  0.08700  Biso   1.000  H
  C744     1.0000 0.88009  0.05521  0.03190  Biso   1.000  C
  H744     1.0000 0.89580  0.04630  0.02390  Biso   1.000  H
  N1116    1.0000 0.02729  0.01815  0.13144  Biso   1.000  N
  Cu187    1.0000 0.97050  0.58720  0.62331  Biso   1.000  Cu
  Cu188    1.0000 0.94205  0.52457  0.64996  Biso   1.000  Cu
  N1117    1.0000 0.98353  0.52719  0.64154  Biso   1.000  N
  N1118    1.0000 0.99548  0.55120  0.62914  Biso   1.000  N
  N1119    1.0000 0.93459  0.57193  0.60658  Biso   1.000  N
  N1120    1.0000 0.92447  0.54486  0.61409  Biso   1.000  N
  N1121    1.0000 0.09201  0.48323  0.64161  Biso   1.000  N
  N1122    1.0000 0.09033  0.48427  0.61205  Biso   1.000  N
  C745     1.0000 0.06936  0.49564  0.65180  Biso   1.000  C
  H745     1.0000 0.06520  0.49810  0.67100  Biso   1.000  H
  N1123    1.0000 0.05296  0.50431  0.62960  Biso   1.000  N
  C746     1.0000 0.02194  0.54550  0.62321  Biso   1.000  C
  H746     1.0000 0.03490  0.55790  0.61480  Biso   1.000  H
  N1124    1.0000 0.85676  0.56178  0.51847  Biso   1.000  N
  N1125    1.0000 0.87768  0.56348  0.55954  Biso   1.000  N
  N1126    1.0000 0.83835  0.57428  0.53825  Biso   1.000  N
  N1127    1.0000 0.89859  0.56123  0.57989  Biso   1.000  N
  C747     1.0000 0.90275  0.53908  0.59811  Biso   1.000  C
  H747     1.0000 0.89180  0.52260  0.59890  Biso   1.000  H
  C748     1.0000 0.85136  0.57490  0.56267  Biso   1.000  C
  H748     1.0000 0.84380  0.58200  0.57950  Biso   1.000  H
  C749     1.0000 0.91867  0.58128  0.58595  Biso   1.000  C
  H749     1.0000 0.92070  0.59870  0.57680  Biso   1.000  H
  C750     1.0000 0.00281  0.50752  0.64231  Biso   1.000  C
  H750     1.0000 0.00030  0.48910  0.64920  Biso   1.000  H
  C751     1.0000 0.06645  0.49666  0.60536  Biso   1.000  C
  H751     1.0000 0.05980  0.49970  0.58700  Biso   1.000  H
  C752     1.0000 0.88009  0.55521  0.53190  Biso   1.000  C
  H752     1.0000 0.89580  0.54630  0.52390  Biso   1.000  H
  N1128    1.0000 0.02729  0.51815  0.63144  Biso   1.000  N
  Cu189    1.0000 0.47050  0.08720  0.62331  Biso   1.000  Cu
  Cu190    1.0000 0.44205  0.02457  0.64996  Biso   1.000  Cu
  N1129    1.0000 0.48353  0.02719  0.64154  Biso   1.000  N
  N1130    1.0000 0.49548  0.05120  0.62914  Biso   1.000  N
  N1131    1.0000 0.43459  0.07193  0.60658  Biso   1.000  N
  N1132    1.0000 0.42447  0.04486  0.61409  Biso   1.000  N
  N1133    1.0000 0.59201  0.98323  0.64161  Biso   1.000  N
  N1134    1.0000 0.59033  0.98427  0.61205  Biso   1.000  N
  C753     1.0000 0.56936  0.99564  0.65180  Biso   1.000  C
  H753     1.0000 0.56520  0.99810  0.67100  Biso   1.000  H
  N1135    1.0000 0.55296  0.00431  0.62960  Biso   1.000  N
  C754     1.0000 0.52194  0.04550  0.62321  Biso   1.000  C
  H754     1.0000 0.53490  0.05790  0.61480  Biso   1.000  H
  N1136    1.0000 0.35676  0.06178  0.51847  Biso   1.000  N
  N1137    1.0000 0.37768  0.06348  0.55954  Biso   1.000  N
  N1138    1.0000 0.33835  0.07428  0.53825  Biso   1.000  N
  N1139    1.0000 0.39859  0.06123  0.57989  Biso   1.000  N
  C755     1.0000 0.40275  0.03908  0.59811  Biso   1.000  C
  H755     1.0000 0.39180  0.02260  0.59890  Biso   1.000  H
  C756     1.0000 0.35136  0.07490  0.56267  Biso   1.000  C
  H756     1.0000 0.34380  0.08200  0.57950  Biso   1.000  H
  C757     1.0000 0.41867  0.08128  0.58595  Biso   1.000  C
  H757     1.0000 0.42070  0.09870  0.57680  Biso   1.000  H
  C758     1.0000 0.50281  0.00752  0.64231  Biso   1.000  C
  H758     1.0000 0.50030  0.98910  0.64920  Biso   1.000  H
  C759     1.0000 0.56645  0.99666  0.60536  Biso   1.000  C
  H759     1.0000 0.55980  0.99970  0.58700  Biso   1.000  H
  C760     1.0000 0.38009  0.05521  0.53190  Biso   1.000  C
  H760     1.0000 0.39580  0.04630  0.52390  Biso   1.000  H
  N1140    1.0000 0.52729  0.01815  0.63144  Biso   1.000  N
  Cu191    1.0000 0.47050  0.58720  0.12331  Biso   1.000  Cu
  Cu192    1.0000 0.44205  0.52457  0.14996  Biso   1.000  Cu
  N1141    1.0000 0.48353  0.52719  0.14154  Biso   1.000  N
  N1142    1.0000 0.49548  0.55120  0.12914  Biso   1.000  N
  N1143    1.0000 0.43459  0.57193  0.10658  Biso   1.000  N
  N1144    1.0000 0.42447  0.54486  0.11409  Biso   1.000  N
  N1145    1.0000 0.59201  0.48323  0.14161  Biso   1.000  N
  N1146    1.0000 0.59033  0.48427  0.11205  Biso   1.000  N
  C761     1.0000 0.56936  0.49564  0.15180  Biso   1.000  C
  H761     1.0000 0.56520  0.49810  0.17100  Biso   1.000  H
  N1147    1.0000 0.55296  0.50431  0.12960  Biso   1.000  N
  C762     1.0000 0.52194  0.54550  0.12321  Biso   1.000  C
  H762     1.0000 0.53490  0.55790  0.11480  Biso   1.000  H
  N1148    1.0000 0.35676  0.56178  0.01847  Biso   1.000  N
  N1149    1.0000 0.37768  0.56348  0.05954  Biso   1.000  N
  N1150    1.0000 0.33835  0.57428  0.03825  Biso   1.000  N
  N1151    1.0000 0.39859  0.56123  0.07989  Biso   1.000  N
  C763     1.0000 0.40275  0.53908  0.09811  Biso   1.000  C
  H763     1.0000 0.39180  0.52260  0.09890  Biso   1.000  H
  C764     1.0000 0.35136  0.57490  0.06267  Biso   1.000  C
  H764     1.0000 0.34380  0.58200  0.07950  Biso   1.000  H
  C765     1.0000 0.41867  0.58128  0.08595  Biso   1.000  C
  H765     1.0000 0.42070  0.59870  0.07680  Biso   1.000  H
  C766     1.0000 0.50281  0.50752  0.14231  Biso   1.000  C
  H766     1.0000 0.50030  0.48910  0.14920  Biso   1.000  H
  C767     1.0000 0.56645  0.49666  0.10536  Biso   1.000  C
  H767     1.0000 0.55980  0.49970  0.08700  Biso   1.000  H
  C768     1.0000 0.38009  0.55521  0.03190  Biso   1.000  C
  H768     1.0000 0.39580  0.54630  0.02390  Biso   1.000  H
  N1152    1.0000 0.52729  0.51815  0.13144  Biso   1.000  N
  Cu193    1.0000 0.62331  0.58720  0.47050  Biso   1.000  Cu
  Cu194    1.0000 0.64996  0.52457  0.44205  Biso   1.000  Cu
  N1153    1.0000 0.64154  0.52719  0.48353  Biso   1.000  N
  N1154    1.0000 0.62914  0.55120  0.49548  Biso   1.000  N
  N1155    1.0000 0.60658  0.57193  0.43459  Biso   1.000  N
  N1156    1.0000 0.61409  0.54486  0.42447  Biso   1.000  N
  N1157    1.0000 0.64161  0.48323  0.59201  Biso   1.000  N
  N1158    1.0000 0.61205  0.48427  0.59033  Biso   1.000  N
  C769     1.0000 0.65180  0.49564  0.56936  Biso   1.000  C
  H769     1.0000 0.67100  0.49810  0.56520  Biso   1.000  H
  N1159    1.0000 0.62960  0.50431  0.55296  Biso   1.000  N
  C770     1.0000 0.62321  0.54550  0.52194  Biso   1.000  C
  H770     1.0000 0.61480  0.55790  0.53490  Biso   1.000  H
  N1160    1.0000 0.51847  0.56178  0.35676  Biso   1.000  N
  N1161    1.0000 0.55954  0.56348  0.37768  Biso   1.000  N
  N1162    1.0000 0.53825  0.57428  0.33835  Biso   1.000  N
  N1163    1.0000 0.57989  0.56123  0.39859  Biso   1.000  N
  C771     1.0000 0.59811  0.53908  0.40275  Biso   1.000  C
  H771     1.0000 0.59890  0.52260  0.39180  Biso   1.000  H
  C772     1.0000 0.56267  0.57490  0.35136  Biso   1.000  C
  H772     1.0000 0.57950  0.58200  0.34380  Biso   1.000  H
  C773     1.0000 0.58595  0.58128  0.41867  Biso   1.000  C
  H773     1.0000 0.57680  0.59870  0.42070  Biso   1.000  H
  C774     1.0000 0.64231  0.50752  0.50281  Biso   1.000  C
  H774     1.0000 0.64920  0.48910  0.50030  Biso   1.000  H
  C775     1.0000 0.60536  0.49666  0.56645  Biso   1.000  C
  H775     1.0000 0.58700  0.49970  0.55980  Biso   1.000  H
  C776     1.0000 0.53190  0.55521  0.38009  Biso   1.000  C
  H776     1.0000 0.52390  0.54630  0.39580  Biso   1.000  H
  N1164    1.0000 0.63144  0.51815  0.52729  Biso   1.000  N
  Cu195    1.0000 0.62331  0.08720  0.97050  Biso   1.000  Cu
  Cu196    1.0000 0.64996  0.02457  0.94205  Biso   1.000  Cu
  N1165    1.0000 0.64154  0.02719  0.98353  Biso   1.000  N
  N1166    1.0000 0.62914  0.05120  0.99548  Biso   1.000  N
  N1167    1.0000 0.60658  0.07193  0.93459  Biso   1.000  N
  N1168    1.0000 0.61409  0.04486  0.92447  Biso   1.000  N
  N1169    1.0000 0.64161  0.98323  0.09201  Biso   1.000  N
  N1170    1.0000 0.61205  0.98427  0.09033  Biso   1.000  N
  C777     1.0000 0.65180  0.99564  0.06936  Biso   1.000  C
  H777     1.0000 0.67100  0.99810  0.06520  Biso   1.000  H
  N1171    1.0000 0.62960  0.00431  0.05296  Biso   1.000  N
  C778     1.0000 0.62321  0.04550  0.02194  Biso   1.000  C
  H778     1.0000 0.61480  0.05790  0.03490  Biso   1.000  H
  N1172    1.0000 0.51847  0.06178  0.85676  Biso   1.000  N
  N1173    1.0000 0.55954  0.06348  0.87768  Biso   1.000  N
  N1174    1.0000 0.53825  0.07428  0.83835  Biso   1.000  N
  N1175    1.0000 0.57989  0.06123  0.89859  Biso   1.000  N
  C779     1.0000 0.59811  0.03908  0.90275  Biso   1.000  C
  H779     1.0000 0.59890  0.02260  0.89180  Biso   1.000  H
  C780     1.0000 0.56267  0.07490  0.85136  Biso   1.000  C
  H780     1.0000 0.57950  0.08200  0.84380  Biso   1.000  H
  C781     1.0000 0.58595  0.08128  0.91867  Biso   1.000  C
  H781     1.0000 0.57680  0.09870  0.92070  Biso   1.000  H
  C782     1.0000 0.64231  0.00752  0.00281  Biso   1.000  C
  H782     1.0000 0.64920  0.98910  0.00030  Biso   1.000  H
  C783     1.0000 0.60536  0.99666  0.06645  Biso   1.000  C
  H783     1.0000 0.58700  0.99970  0.05980  Biso   1.000  H
  C784     1.0000 0.53190  0.05521  0.88009  Biso   1.000  C
  H784     1.0000 0.52390  0.04630  0.89580  Biso   1.000  H
  N1176    1.0000 0.63144  0.01815  0.02729  Biso   1.000  N
  Cu197    1.0000 0.12331  0.58720  0.97050  Biso   1.000  Cu
  Cu198    1.0000 0.14996  0.52457  0.94205  Biso   1.000  Cu
  N1177    1.0000 0.14154  0.52719  0.98353  Biso   1.000  N
  N1178    1.0000 0.12914  0.55120  0.99548  Biso   1.000  N
  N1179    1.0000 0.10658  0.57193  0.93459  Biso   1.000  N
  N1180    1.0000 0.11409  0.54486  0.92447  Biso   1.000  N
  N1181    1.0000 0.14161  0.48323  0.09201  Biso   1.000  N
  N1182    1.0000 0.11205  0.48427  0.09033  Biso   1.000  N
  C785     1.0000 0.15180  0.49564  0.06936  Biso   1.000  C
  H785     1.0000 0.17100  0.49810  0.06520  Biso   1.000  H
  N1183    1.0000 0.12960  0.50431  0.05296  Biso   1.000  N
  C786     1.0000 0.12321  0.54550  0.02194  Biso   1.000  C
  H786     1.0000 0.11480  0.55790  0.03490  Biso   1.000  H
  N1184    1.0000 0.01847  0.56178  0.85676  Biso   1.000  N
  N1185    1.0000 0.05954  0.56348  0.87768  Biso   1.000  N
  N1186    1.0000 0.03825  0.57428  0.83835  Biso   1.000  N
  N1187    1.0000 0.07989  0.56123  0.89859  Biso   1.000  N
  C787     1.0000 0.09811  0.53908  0.90275  Biso   1.000  C
  H787     1.0000 0.09890  0.52260  0.89180  Biso   1.000  H
  C788     1.0000 0.06267  0.57490  0.85136  Biso   1.000  C
  H788     1.0000 0.07950  0.58200  0.84380  Biso   1.000  H
  C789     1.0000 0.08595  0.58128  0.91867  Biso   1.000  C
  H789     1.0000 0.07680  0.59870  0.92070  Biso   1.000  H
  C790     1.0000 0.14231  0.50752  0.00281  Biso   1.000  C
  H790     1.0000 0.14920  0.48910  0.00030  Biso   1.000  H
  C791     1.0000 0.10536  0.49666  0.06645  Biso   1.000  C
  H791     1.0000 0.08700  0.49970  0.05980  Biso   1.000  H
  C792     1.0000 0.03190  0.55521  0.88009  Biso   1.000  C
  H792     1.0000 0.02390  0.54630  0.89580  Biso   1.000  H
  N1188    1.0000 0.13144  0.51815  0.02729  Biso   1.000  N
  Cu199    1.0000 0.12331  0.08720  0.47050  Biso   1.000  Cu
  Cu200    1.0000 0.14996  0.02457  0.44205  Biso   1.000  Cu
  N1189    1.0000 0.14154  0.02719  0.48353  Biso   1.000  N
  N1190    1.0000 0.12914  0.05120  0.49548  Biso   1.000  N
  N1191    1.0000 0.10658  0.07193  0.43459  Biso   1.000  N
  N1192    1.0000 0.11409  0.04486  0.42447  Biso   1.000  N
  N1193    1.0000 0.14161  0.98323  0.59201  Biso   1.000  N
  N1194    1.0000 0.11205  0.98427  0.59033  Biso   1.000  N
  C793     1.0000 0.15180  0.99564  0.56936  Biso   1.000  C
  H793     1.0000 0.17100  0.99810  0.56520  Biso   1.000  H
  N1195    1.0000 0.12960  0.00431  0.55296  Biso   1.000  N
  C794     1.0000 0.12321  0.04550  0.52194  Biso   1.000  C
  H794     1.0000 0.11480  0.05790  0.53490  Biso   1.000  H
  N1196    1.0000 0.01847  0.06178  0.35676  Biso   1.000  N
  N1197    1.0000 0.05954  0.06348  0.37768  Biso   1.000  N
  N1198    1.0000 0.03825  0.07428  0.33835  Biso   1.000  N
  N1199    1.0000 0.07989  0.06123  0.39859  Biso   1.000  N
  C795     1.0000 0.09811  0.03908  0.40275  Biso   1.000  C
  H795     1.0000 0.09890  0.02260  0.39180  Biso   1.000  H
  C796     1.0000 0.06267  0.07490  0.35136  Biso   1.000  C
  H796     1.0000 0.07950  0.08200  0.34380  Biso   1.000  H
  C797     1.0000 0.08595  0.08128  0.41867  Biso   1.000  C
  H797     1.0000 0.07680  0.09870  0.42070  Biso   1.000  H
  C798     1.0000 0.14231  0.00752  0.50281  Biso   1.000  C
  H798     1.0000 0.14920  0.98910  0.50030  Biso   1.000  H
  C799     1.0000 0.10536  0.99666  0.56645  Biso   1.000  C
  H799     1.0000 0.08700  0.99970  0.55980  Biso   1.000  H
  C800     1.0000 0.03190  0.05521  0.38009  Biso   1.000  C
  H800     1.0000 0.02390  0.04630  0.39580  Biso   1.000  H
  N1200    1.0000 0.13144  0.01815  0.52729  Biso   1.000  N
  Cu201    1.0000 0.12669  0.66280  0.97050  Biso   1.000  Cu
  Cu202    1.0000 0.10004  0.72543  0.94205  Biso   1.000  Cu
  N1201    1.0000 0.10846  0.72281  0.98353  Biso   1.000  N
  N1202    1.0000 0.12086  0.69880  0.99548  Biso   1.000  N
  N1203    1.0000 0.14342  0.67807  0.93459  Biso   1.000  N
  N1204    1.0000 0.13591  0.70514  0.92447  Biso   1.000  N
  N1205    1.0000 0.10839  0.76677  0.09201  Biso   1.000  N
  N1206    1.0000 0.13795  0.76573  0.09033  Biso   1.000  N
  C801     1.0000 0.09820  0.75436  0.06936  Biso   1.000  C
  H801     1.0000 0.07900  0.75190  0.06520  Biso   1.000  H
  N1207    1.0000 0.12040  0.74569  0.05296  Biso   1.000  N
  C802     1.0000 0.12679  0.70450  0.02194  Biso   1.000  C
  H802     1.0000 0.13520  0.69210  0.03490  Biso   1.000  H
  N1208    1.0000 0.23153  0.68822  0.85676  Biso   1.000  N
  N1209    1.0000 0.19046  0.68652  0.87768  Biso   1.000  N
  N1210    1.0000 0.21175  0.67572  0.83835  Biso   1.000  N
  N1211    1.0000 0.17011  0.68877  0.89859  Biso   1.000  N
  C803     1.0000 0.15189  0.71092  0.90275  Biso   1.000  C
  H803     1.0000 0.15110  0.72740  0.89180  Biso   1.000  H
  C804     1.0000 0.18733  0.67510  0.85136  Biso   1.000  C
  H804     1.0000 0.17050  0.66800  0.84380  Biso   1.000  H
  C805     1.0000 0.16405  0.66872  0.91867  Biso   1.000  C
  H805     1.0000 0.17320  0.65130  0.92070  Biso   1.000  H
  C806     1.0000 0.10769  0.74248  0.00281  Biso   1.000  C
  H806     1.0000 0.10080  0.76090  0.00030  Biso   1.000  H
  C807     1.0000 0.14464  0.75334  0.06645  Biso   1.000  C
  H807     1.0000 0.16300  0.75030  0.05980  Biso   1.000  H
  C808     1.0000 0.21810  0.69479  0.88009  Biso   1.000  C
  H808     1.0000 0.22610  0.70370  0.89580  Biso   1.000  H
  N1212    1.0000 0.11856  0.73185  0.02729  Biso   1.000  N
  Cu203    1.0000 0.12669  0.16280  0.47050  Biso   1.000  Cu
  Cu204    1.0000 0.10004  0.22543  0.44205  Biso   1.000  Cu
  N1213    1.0000 0.10846  0.22281  0.48353  Biso   1.000  N
  N1214    1.0000 0.12086  0.19880  0.49548  Biso   1.000  N
  N1215    1.0000 0.14342  0.17807  0.43459  Biso   1.000  N
  N1216    1.0000 0.13591  0.20514  0.42447  Biso   1.000  N
  N1217    1.0000 0.10839  0.26677  0.59201  Biso   1.000  N
  N1218    1.0000 0.13795  0.26573  0.59033  Biso   1.000  N
  C809     1.0000 0.09820  0.25436  0.56936  Biso   1.000  C
  H809     1.0000 0.07900  0.25190  0.56520  Biso   1.000  H
  N1219    1.0000 0.12040  0.24569  0.55296  Biso   1.000  N
  C810     1.0000 0.12679  0.20450  0.52194  Biso   1.000  C
  H810     1.0000 0.13520  0.19210  0.53490  Biso   1.000  H
  N1220    1.0000 0.23153  0.18822  0.35676  Biso   1.000  N
  N1221    1.0000 0.19046  0.18652  0.37768  Biso   1.000  N
  N1222    1.0000 0.21175  0.17572  0.33835  Biso   1.000  N
  N1223    1.0000 0.17011  0.18877  0.39859  Biso   1.000  N
  C811     1.0000 0.15189  0.21092  0.40275  Biso   1.000  C
  H811     1.0000 0.15110  0.22740  0.39180  Biso   1.000  H
  C812     1.0000 0.18733  0.17510  0.35136  Biso   1.000  C
  H812     1.0000 0.17050  0.16800  0.34380  Biso   1.000  H
  C813     1.0000 0.16405  0.16872  0.41867  Biso   1.000  C
  H813     1.0000 0.17320  0.15130  0.42070  Biso   1.000  H
  C814     1.0000 0.10769  0.24248  0.50281  Biso   1.000  C
  H814     1.0000 0.10080  0.26090  0.50030  Biso   1.000  H
  C815     1.0000 0.14464  0.25334  0.56645  Biso   1.000  C
  H815     1.0000 0.16300  0.25030  0.55980  Biso   1.000  H
  C816     1.0000 0.21810  0.19479  0.38009  Biso   1.000  C
  H816     1.0000 0.22610  0.20370  0.39580  Biso   1.000  H
  N1224    1.0000 0.11856  0.23185  0.52729  Biso   1.000  N
  Cu205    1.0000 0.62669  0.66280  0.47050  Biso   1.000  Cu
  Cu206    1.0000 0.60004  0.72543  0.44205  Biso   1.000  Cu
  N1225    1.0000 0.60846  0.72281  0.48353  Biso   1.000  N
  N1226    1.0000 0.62086  0.69880  0.49548  Biso   1.000  N
  N1227    1.0000 0.64342  0.67807  0.43459  Biso   1.000  N
  N1228    1.0000 0.63591  0.70514  0.42447  Biso   1.000  N
  N1229    1.0000 0.60839  0.76677  0.59201  Biso   1.000  N
  N1230    1.0000 0.63795  0.76573  0.59033  Biso   1.000  N
  C817     1.0000 0.59820  0.75436  0.56936  Biso   1.000  C
  H817     1.0000 0.57900  0.75190  0.56520  Biso   1.000  H
  N1231    1.0000 0.62040  0.74569  0.55296  Biso   1.000  N
  C818     1.0000 0.62679  0.70450  0.52194  Biso   1.000  C
  H818     1.0000 0.63520  0.69210  0.53490  Biso   1.000  H
  N1232    1.0000 0.73153  0.68822  0.35676  Biso   1.000  N
  N1233    1.0000 0.69046  0.68652  0.37768  Biso   1.000  N
  N1234    1.0000 0.71175  0.67572  0.33835  Biso   1.000  N
  N1235    1.0000 0.67011  0.68877  0.39859  Biso   1.000  N
  C819     1.0000 0.65189  0.71092  0.40275  Biso   1.000  C
  H819     1.0000 0.65110  0.72740  0.39180  Biso   1.000  H
  C820     1.0000 0.68733  0.67510  0.35136  Biso   1.000  C
  H820     1.0000 0.67050  0.66800  0.34380  Biso   1.000  H
  C821     1.0000 0.66405  0.66872  0.41867  Biso   1.000  C
  H821     1.0000 0.67320  0.65130  0.42070  Biso   1.000  H
  C822     1.0000 0.60769  0.74248  0.50281  Biso   1.000  C
  H822     1.0000 0.60080  0.76090  0.50030  Biso   1.000  H
  C823     1.0000 0.64464  0.75334  0.56645  Biso   1.000  C
  H823     1.0000 0.66300  0.75030  0.55980  Biso   1.000  H
  C824     1.0000 0.71810  0.69479  0.38009  Biso   1.000  C
  H824     1.0000 0.72610  0.70370  0.39580  Biso   1.000  H
  N1236    1.0000 0.61856  0.73185  0.52729  Biso   1.000  N
  Cu207    1.0000 0.62669  0.16280  0.97050  Biso   1.000  Cu
  Cu208    1.0000 0.60004  0.22543  0.94205  Biso   1.000  Cu
  N1237    1.0000 0.60846  0.22281  0.98353  Biso   1.000  N
  N1238    1.0000 0.62086  0.19880  0.99548  Biso   1.000  N
  N1239    1.0000 0.64342  0.17807  0.93459  Biso   1.000  N
  N1240    1.0000 0.63591  0.20514  0.92447  Biso   1.000  N
  N1241    1.0000 0.60839  0.26677  0.09201  Biso   1.000  N
  N1242    1.0000 0.63795  0.26573  0.09033  Biso   1.000  N
  C825     1.0000 0.59820  0.25436  0.06936  Biso   1.000  C
  H825     1.0000 0.57900  0.25190  0.06520  Biso   1.000  H
  N1243    1.0000 0.62040  0.24569  0.05296  Biso   1.000  N
  C826     1.0000 0.62679  0.20450  0.02194  Biso   1.000  C
  H826     1.0000 0.63520  0.19210  0.03490  Biso   1.000  H
  N1244    1.0000 0.73153  0.18822  0.85676  Biso   1.000  N
  N1245    1.0000 0.69046  0.18652  0.87768  Biso   1.000  N
  N1246    1.0000 0.71175  0.17572  0.83835  Biso   1.000  N
  N1247    1.0000 0.67011  0.18877  0.89859  Biso   1.000  N
  C827     1.0000 0.65189  0.21092  0.90275  Biso   1.000  C
  H827     1.0000 0.65110  0.22740  0.89180  Biso   1.000  H
  C828     1.0000 0.68733  0.17510  0.85136  Biso   1.000  C
  H828     1.0000 0.67050  0.16800  0.84380  Biso   1.000  H
  C829     1.0000 0.66405  0.16872  0.91867  Biso   1.000  C
  H829     1.0000 0.67320  0.15130  0.92070  Biso   1.000  H
  C830     1.0000 0.60769  0.24248  0.00281  Biso   1.000  C
  H830     1.0000 0.60080  0.26090  0.00030  Biso   1.000  H
  C831     1.0000 0.64464  0.25334  0.06645  Biso   1.000  C
  H831     1.0000 0.66300  0.25030  0.05980  Biso   1.000  H
  C832     1.0000 0.71810  0.19479  0.88009  Biso   1.000  C
  H832     1.0000 0.72610  0.20370  0.89580  Biso   1.000  H
  N1248    1.0000 0.61856  0.23185  0.02729  Biso   1.000  N
  Cu209    1.0000 0.62669  0.08720  0.27951  Biso   1.000  Cu
  Cu210    1.0000 0.60004  0.02457  0.30795  Biso   1.000  Cu
  N1249    1.0000 0.60846  0.02719  0.26647  Biso   1.000  N
  N1250    1.0000 0.62086  0.05120  0.25452  Biso   1.000  N
  N1251    1.0000 0.64342  0.07193  0.31541  Biso   1.000  N
  N1252    1.0000 0.63591  0.04486  0.32553  Biso   1.000  N
  N1253    1.0000 0.60839  0.98323  0.15799  Biso   1.000  N
  N1254    1.0000 0.63795  0.98427  0.15967  Biso   1.000  N
  C833     1.0000 0.59820  0.99564  0.18064  Biso   1.000  C
  H833     1.0000 0.57900  0.99810  0.18480  Biso   1.000  H
  N1255    1.0000 0.62040  0.00431  0.19704  Biso   1.000  N
  C834     1.0000 0.62679  0.04550  0.22806  Biso   1.000  C
  H834     1.0000 0.63520  0.05790  0.21510  Biso   1.000  H
  N1256    1.0000 0.73153  0.06178  0.39324  Biso   1.000  N
  N1257    1.0000 0.69046  0.06348  0.37232  Biso   1.000  N
  N1258    1.0000 0.71175  0.07428  0.41165  Biso   1.000  N
  N1259    1.0000 0.67011  0.06123  0.35141  Biso   1.000  N
  C835     1.0000 0.65189  0.03908  0.34725  Biso   1.000  C
  H835     1.0000 0.65110  0.02260  0.35820  Biso   1.000  H
  C836     1.0000 0.68733  0.07490  0.39864  Biso   1.000  C
  H836     1.0000 0.67050  0.08200  0.40620  Biso   1.000  H
  C837     1.0000 0.66405  0.08128  0.33133  Biso   1.000  C
  H837     1.0000 0.67320  0.09870  0.32930  Biso   1.000  H
  C838     1.0000 0.60769  0.00752  0.24719  Biso   1.000  C
  H838     1.0000 0.60080  0.98910  0.24970  Biso   1.000  H
  C839     1.0000 0.64464  0.99666  0.18355  Biso   1.000  C
  H839     1.0000 0.66300  0.99970  0.19020  Biso   1.000  H
  C840     1.0000 0.71810  0.05521  0.36991  Biso   1.000  C
  H840     1.0000 0.72610  0.04630  0.35420  Biso   1.000  H
  N1260    1.0000 0.61856  0.01815  0.22271  Biso   1.000  N
  Cu211    1.0000 0.62669  0.58720  0.77951  Biso   1.000  Cu
  Cu212    1.0000 0.60004  0.52457  0.80795  Biso   1.000  Cu
  N1261    1.0000 0.60846  0.52719  0.76647  Biso   1.000  N
  N1262    1.0000 0.62086  0.55120  0.75452  Biso   1.000  N
  N1263    1.0000 0.64342  0.57193  0.81541  Biso   1.000  N
  N1264    1.0000 0.63591  0.54486  0.82553  Biso   1.000  N
  N1265    1.0000 0.60839  0.48323  0.65799  Biso   1.000  N
  N1266    1.0000 0.63795  0.48427  0.65967  Biso   1.000  N
  C841     1.0000 0.59820  0.49564  0.68064  Biso   1.000  C
  H841     1.0000 0.57900  0.49810  0.68480  Biso   1.000  H
  N1267    1.0000 0.62040  0.50431  0.69704  Biso   1.000  N
  C842     1.0000 0.62679  0.54550  0.72806  Biso   1.000  C
  H842     1.0000 0.63520  0.55790  0.71510  Biso   1.000  H
  N1268    1.0000 0.73153  0.56178  0.89324  Biso   1.000  N
  N1269    1.0000 0.69046  0.56348  0.87232  Biso   1.000  N
  N1270    1.0000 0.71175  0.57428  0.91165  Biso   1.000  N
  N1271    1.0000 0.67011  0.56123  0.85141  Biso   1.000  N
  C843     1.0000 0.65189  0.53908  0.84725  Biso   1.000  C
  H843     1.0000 0.65110  0.52260  0.85820  Biso   1.000  H
  C844     1.0000 0.68733  0.57490  0.89864  Biso   1.000  C
  H844     1.0000 0.67050  0.58200  0.90620  Biso   1.000  H
  C845     1.0000 0.66405  0.58128  0.83133  Biso   1.000  C
  H845     1.0000 0.67320  0.59870  0.82930  Biso   1.000  H
  C846     1.0000 0.60769  0.50752  0.74719  Biso   1.000  C
  H846     1.0000 0.60080  0.48910  0.74970  Biso   1.000  H
  C847     1.0000 0.64464  0.49666  0.68355  Biso   1.000  C
  H847     1.0000 0.66300  0.49970  0.69020  Biso   1.000  H
  C848     1.0000 0.71810  0.55521  0.86991  Biso   1.000  C
  H848     1.0000 0.72610  0.54630  0.85420  Biso   1.000  H
  N1272    1.0000 0.61856  0.51815  0.72271  Biso   1.000  N
  Cu213    1.0000 0.12669  0.08720  0.77951  Biso   1.000  Cu
  Cu214    1.0000 0.10004  0.02457  0.80795  Biso   1.000  Cu
  N1273    1.0000 0.10846  0.02719  0.76647  Biso   1.000  N
  N1274    1.0000 0.12086  0.05120  0.75452  Biso   1.000  N
  N1275    1.0000 0.14342  0.07193  0.81541  Biso   1.000  N
  N1276    1.0000 0.13591  0.04486  0.82553  Biso   1.000  N
  N1277    1.0000 0.10839  0.98323  0.65799  Biso   1.000  N
  N1278    1.0000 0.13795  0.98427  0.65967  Biso   1.000  N
  C849     1.0000 0.09820  0.99564  0.68064  Biso   1.000  C
  H849     1.0000 0.07900  0.99810  0.68480  Biso   1.000  H
  N1279    1.0000 0.12040  0.00431  0.69704  Biso   1.000  N
  C850     1.0000 0.12679  0.04550  0.72806  Biso   1.000  C
  H850     1.0000 0.13520  0.05790  0.71510  Biso   1.000  H
  N1280    1.0000 0.23153  0.06178  0.89324  Biso   1.000  N
  N1281    1.0000 0.19046  0.06348  0.87232  Biso   1.000  N
  N1282    1.0000 0.21175  0.07428  0.91165  Biso   1.000  N
  N1283    1.0000 0.17011  0.06123  0.85141  Biso   1.000  N
  C851     1.0000 0.15189  0.03908  0.84725  Biso   1.000  C
  H851     1.0000 0.15110  0.02260  0.85820  Biso   1.000  H
  C852     1.0000 0.18733  0.07490  0.89864  Biso   1.000  C
  H852     1.0000 0.17050  0.08200  0.90620  Biso   1.000  H
  C853     1.0000 0.16405  0.08128  0.83133  Biso   1.000  C
  H853     1.0000 0.17320  0.09870  0.82930  Biso   1.000  H
  C854     1.0000 0.10769  0.00752  0.74719  Biso   1.000  C
  H854     1.0000 0.10080  0.98910  0.74970  Biso   1.000  H
  C855     1.0000 0.14464  0.99666  0.68355  Biso   1.000  C
  H855     1.0000 0.16300  0.99970  0.69020  Biso   1.000  H
  C856     1.0000 0.21810  0.05521  0.86991  Biso   1.000  C
  H856     1.0000 0.22610  0.04630  0.85420  Biso   1.000  H
  N1284    1.0000 0.11856  0.01815  0.72271  Biso   1.000  N
  Cu215    1.0000 0.12669  0.58720  0.27951  Biso   1.000  Cu
  Cu216    1.0000 0.10004  0.52457  0.30795  Biso   1.000  Cu
  N1285    1.0000 0.10846  0.52719  0.26647  Biso   1.000  N
  N1286    1.0000 0.12086  0.55120  0.25452  Biso   1.000  N
  N1287    1.0000 0.14342  0.57193  0.31541  Biso   1.000  N
  N1288    1.0000 0.13591  0.54486  0.32553  Biso   1.000  N
  N1289    1.0000 0.10839  0.48323  0.15799  Biso   1.000  N
  N1290    1.0000 0.13795  0.48427  0.15967  Biso   1.000  N
  C857     1.0000 0.09820  0.49564  0.18064  Biso   1.000  C
  H857     1.0000 0.07900  0.49810  0.18480  Biso   1.000  H
  N1291    1.0000 0.12040  0.50431  0.19704  Biso   1.000  N
  C858     1.0000 0.12679  0.54550  0.22806  Biso   1.000  C
  H858     1.0000 0.13520  0.55790  0.21510  Biso   1.000  H
  N1292    1.0000 0.23153  0.56178  0.39324  Biso   1.000  N
  N1293    1.0000 0.19046  0.56348  0.37232  Biso   1.000  N
  N1294    1.0000 0.21175  0.57428  0.41165  Biso   1.000  N
  N1295    1.0000 0.17011  0.56123  0.35141  Biso   1.000  N
  C859     1.0000 0.15189  0.53908  0.34725  Biso   1.000  C
  H859     1.0000 0.15110  0.52260  0.35820  Biso   1.000  H
  C860     1.0000 0.18733  0.57490  0.39864  Biso   1.000  C
  H860     1.0000 0.17050  0.58200  0.40620  Biso   1.000  H
  C861     1.0000 0.16405  0.58128  0.33133  Biso   1.000  C
  H861     1.0000 0.17320  0.59870  0.32930  Biso   1.000  H
  C862     1.0000 0.10769  0.50752  0.24719  Biso   1.000  C
  H862     1.0000 0.10080  0.48910  0.24970  Biso   1.000  H
  C863     1.0000 0.14464  0.49666  0.18355  Biso   1.000  C
  H863     1.0000 0.16300  0.49970  0.19020  Biso   1.000  H
  C864     1.0000 0.21810  0.55521  0.36991  Biso   1.000  C
  H864     1.0000 0.22610  0.54630  0.35420  Biso   1.000  H
  N1296    1.0000 0.11856  0.51815  0.22271  Biso   1.000  N
  Cu217    1.0000 0.12331  0.16280  0.77951  Biso   1.000  Cu
  Cu218    1.0000 0.14996  0.22543  0.80795  Biso   1.000  Cu
  N1297    1.0000 0.14154  0.22281  0.76647  Biso   1.000  N
  N1298    1.0000 0.12914  0.19880  0.75452  Biso   1.000  N
  N1299    1.0000 0.10658  0.17807  0.81541  Biso   1.000  N
  N1300    1.0000 0.11409  0.20514  0.82553  Biso   1.000  N
  N1301    1.0000 0.14161  0.26677  0.65799  Biso   1.000  N
  N1302    1.0000 0.11205  0.26573  0.65967  Biso   1.000  N
  C865     1.0000 0.15180  0.25436  0.68064  Biso   1.000  C
  H865     1.0000 0.17100  0.25190  0.68480  Biso   1.000  H
  N1303    1.0000 0.12960  0.24569  0.69704  Biso   1.000  N
  C866     1.0000 0.12321  0.20450  0.72806  Biso   1.000  C
  H866     1.0000 0.11480  0.19210  0.71510  Biso   1.000  H
  N1304    1.0000 0.01847  0.18822  0.89324  Biso   1.000  N
  N1305    1.0000 0.05954  0.18652  0.87232  Biso   1.000  N
  N1306    1.0000 0.03825  0.17572  0.91165  Biso   1.000  N
  N1307    1.0000 0.07989  0.18877  0.85141  Biso   1.000  N
  C867     1.0000 0.09811  0.21092  0.84725  Biso   1.000  C
  H867     1.0000 0.09890  0.22740  0.85820  Biso   1.000  H
  C868     1.0000 0.06267  0.17510  0.89864  Biso   1.000  C
  H868     1.0000 0.07950  0.16800  0.90620  Biso   1.000  H
  C869     1.0000 0.08595  0.16872  0.83133  Biso   1.000  C
  H869     1.0000 0.07680  0.15130  0.82930  Biso   1.000  H
  C870     1.0000 0.14231  0.24248  0.74719  Biso   1.000  C
  H870     1.0000 0.14920  0.26090  0.74970  Biso   1.000  H
  C871     1.0000 0.10536  0.25334  0.68355  Biso   1.000  C
  H871     1.0000 0.08700  0.25030  0.69020  Biso   1.000  H
  C872     1.0000 0.03190  0.19479  0.86991  Biso   1.000  C
  H872     1.0000 0.02390  0.20370  0.85420  Biso   1.000  H
  N1308    1.0000 0.13144  0.23185  0.72271  Biso   1.000  N
  Cu219    1.0000 0.12331  0.66280  0.27951  Biso   1.000  Cu
  Cu220    1.0000 0.14996  0.72543  0.30795  Biso   1.000  Cu
  N1309    1.0000 0.14154  0.72281  0.26647  Biso   1.000  N
  N1310    1.0000 0.12914  0.69880  0.25452  Biso   1.000  N
  N1311    1.0000 0.10658  0.67807  0.31541  Biso   1.000  N
  N1312    1.0000 0.11409  0.70514  0.32553  Biso   1.000  N
  N1313    1.0000 0.14161  0.76677  0.15799  Biso   1.000  N
  N1314    1.0000 0.11205  0.76573  0.15967  Biso   1.000  N
  C873     1.0000 0.15180  0.75436  0.18064  Biso   1.000  C
  H873     1.0000 0.17100  0.75190  0.18480  Biso   1.000  H
  N1315    1.0000 0.12960  0.74569  0.19704  Biso   1.000  N
  C874     1.0000 0.12321  0.70450  0.22806  Biso   1.000  C
  H874     1.0000 0.11480  0.69210  0.21510  Biso   1.000  H
  N1316    1.0000 0.01847  0.68822  0.39324  Biso   1.000  N
  N1317    1.0000 0.05954  0.68652  0.37232  Biso   1.000  N
  N1318    1.0000 0.03825  0.67572  0.41165  Biso   1.000  N
  N1319    1.0000 0.07989  0.68877  0.35141  Biso   1.000  N
  C875     1.0000 0.09811  0.71092  0.34725  Biso   1.000  C
  H875     1.0000 0.09890  0.72740  0.35820  Biso   1.000  H
  C876     1.0000 0.06267  0.67510  0.39864  Biso   1.000  C
  H876     1.0000 0.07950  0.66800  0.40620  Biso   1.000  H
  C877     1.0000 0.08595  0.66872  0.33133  Biso   1.000  C
  H877     1.0000 0.07680  0.65130  0.32930  Biso   1.000  H
  C878     1.0000 0.14231  0.74248  0.24719  Biso   1.000  C
  H878     1.0000 0.14920  0.76090  0.24970  Biso   1.000  H
  C879     1.0000 0.10536  0.75334  0.18355  Biso   1.000  C
  H879     1.0000 0.08700  0.75030  0.19020  Biso   1.000  H
  C880     1.0000 0.03190  0.69479  0.36991  Biso   1.000  C
  H880     1.0000 0.02390  0.70370  0.35420  Biso   1.000  H
  N1320    1.0000 0.13144  0.73185  0.22271  Biso   1.000  N
  Cu221    1.0000 0.62331  0.16280  0.27951  Biso   1.000  Cu
  Cu222    1.0000 0.64996  0.22543  0.30795  Biso   1.000  Cu
  N1321    1.0000 0.64154  0.22281  0.26647  Biso   1.000  N
  N1322    1.0000 0.62914  0.19880  0.25452  Biso   1.000  N
  N1323    1.0000 0.60658  0.17807  0.31541  Biso   1.000  N
  N1324    1.0000 0.61409  0.20514  0.32553  Biso   1.000  N
  N1325    1.0000 0.64161  0.26677  0.15799  Biso   1.000  N
  N1326    1.0000 0.61205  0.26573  0.15967  Biso   1.000  N
  C881     1.0000 0.65180  0.25436  0.18064  Biso   1.000  C
  H881     1.0000 0.67100  0.25190  0.18480  Biso   1.000  H
  N1327    1.0000 0.62960  0.24569  0.19704  Biso   1.000  N
  C882     1.0000 0.62321  0.20450  0.22806  Biso   1.000  C
  H882     1.0000 0.61480  0.19210  0.21510  Biso   1.000  H
  N1328    1.0000 0.51847  0.18822  0.39324  Biso   1.000  N
  N1329    1.0000 0.55954  0.18652  0.37232  Biso   1.000  N
  N1330    1.0000 0.53825  0.17572  0.41165  Biso   1.000  N
  N1331    1.0000 0.57989  0.18877  0.35141  Biso   1.000  N
  C883     1.0000 0.59811  0.21092  0.34725  Biso   1.000  C
  H883     1.0000 0.59890  0.22740  0.35820  Biso   1.000  H
  C884     1.0000 0.56267  0.17510  0.39864  Biso   1.000  C
  H884     1.0000 0.57950  0.16800  0.40620  Biso   1.000  H
  C885     1.0000 0.58595  0.16872  0.33133  Biso   1.000  C
  H885     1.0000 0.57680  0.15130  0.32930  Biso   1.000  H
  C886     1.0000 0.64231  0.24248  0.24719  Biso   1.000  C
  H886     1.0000 0.64920  0.26090  0.24970  Biso   1.000  H
  C887     1.0000 0.60536  0.25334  0.18355  Biso   1.000  C
  H887     1.0000 0.58700  0.25030  0.19020  Biso   1.000  H
  C888     1.0000 0.53190  0.19479  0.36991  Biso   1.000  C
  H888     1.0000 0.52390  0.20370  0.35420  Biso   1.000  H
  N1332    1.0000 0.63144  0.23185  0.22271  Biso   1.000  N
  Cu223    1.0000 0.62331  0.66280  0.77951  Biso   1.000  Cu
  Cu224    1.0000 0.64996  0.72543  0.80795  Biso   1.000  Cu
  N1333    1.0000 0.64154  0.72281  0.76647  Biso   1.000  N
  N1334    1.0000 0.62914  0.69880  0.75452  Biso   1.000  N
  N1335    1.0000 0.60658  0.67807  0.81541  Biso   1.000  N
  N1336    1.0000 0.61409  0.70514  0.82553  Biso   1.000  N
  N1337    1.0000 0.64161  0.76677  0.65799  Biso   1.000  N
  N1338    1.0000 0.61205  0.76573  0.65967  Biso   1.000  N
  C889     1.0000 0.65180  0.75436  0.68064  Biso   1.000  C
  H889     1.0000 0.67100  0.75190  0.68480  Biso   1.000  H
  N1339    1.0000 0.62960  0.74569  0.69704  Biso   1.000  N
  C890     1.0000 0.62321  0.70450  0.72806  Biso   1.000  C
  H890     1.0000 0.61480  0.69210  0.71510  Biso   1.000  H
  N1340    1.0000 0.51847  0.68822  0.89324  Biso   1.000  N
  N1341    1.0000 0.55954  0.68652  0.87232  Biso   1.000  N
  N1342    1.0000 0.53825  0.67572  0.91165  Biso   1.000  N
  N1343    1.0000 0.57989  0.68877  0.85141  Biso   1.000  N
  C891     1.0000 0.59811  0.71092  0.84725  Biso   1.000  C
  H891     1.0000 0.59890  0.72740  0.85820  Biso   1.000  H
  C892     1.0000 0.56267  0.67510  0.89864  Biso   1.000  C
  H892     1.0000 0.57950  0.66800  0.90620  Biso   1.000  H
  C893     1.0000 0.58595  0.66872  0.83133  Biso   1.000  C
  H893     1.0000 0.57680  0.65130  0.82930  Biso   1.000  H
  C894     1.0000 0.64231  0.74248  0.74719  Biso   1.000  C
  H894     1.0000 0.64920  0.76090  0.74970  Biso   1.000  H
  C895     1.0000 0.60536  0.75334  0.68355  Biso   1.000  C
  H895     1.0000 0.58700  0.75030  0.69020  Biso   1.000  H
  C896     1.0000 0.53190  0.69479  0.86991  Biso   1.000  C
  H896     1.0000 0.52390  0.70370  0.85420  Biso   1.000  H
  N1344    1.0000 0.63144  0.73185  0.72271  Biso   1.000  N
  Cu225    1.0000 0.47050  0.62331  0.58720  Biso   1.000  Cu
  Cu226    1.0000 0.44205  0.64996  0.52457  Biso   1.000  Cu
  N1345    1.0000 0.48353  0.64154  0.52719  Biso   1.000  N
  N1346    1.0000 0.49548  0.62914  0.55120  Biso   1.000  N
  N1347    1.0000 0.43459  0.60658  0.57193  Biso   1.000  N
  N1348    1.0000 0.42447  0.61409  0.54486  Biso   1.000  N
  N1349    1.0000 0.59201  0.64161  0.48323  Biso   1.000  N
  N1350    1.0000 0.59033  0.61205  0.48427  Biso   1.000  N
  C897     1.0000 0.56936  0.65180  0.49564  Biso   1.000  C
  H897     1.0000 0.56520  0.67100  0.49810  Biso   1.000  H
  N1351    1.0000 0.55296  0.62960  0.50431  Biso   1.000  N
  C898     1.0000 0.52194  0.62321  0.54550  Biso   1.000  C
  H898     1.0000 0.53490  0.61480  0.55790  Biso   1.000  H
  N1352    1.0000 0.35676  0.51847  0.56178  Biso   1.000  N
  N1353    1.0000 0.37768  0.55954  0.56348  Biso   1.000  N
  N1354    1.0000 0.33835  0.53825  0.57428  Biso   1.000  N
  N1355    1.0000 0.39859  0.57989  0.56123  Biso   1.000  N
  C899     1.0000 0.40275  0.59811  0.53908  Biso   1.000  C
  H899     1.0000 0.39180  0.59890  0.52260  Biso   1.000  H
  C900     1.0000 0.35136  0.56267  0.57490  Biso   1.000  C
  H900     1.0000 0.34380  0.57950  0.58200  Biso   1.000  H
  C901     1.0000 0.41867  0.58595  0.58128  Biso   1.000  C
  H901     1.0000 0.42070  0.57680  0.59870  Biso   1.000  H
  C902     1.0000 0.50281  0.64231  0.50752  Biso   1.000  C
  H902     1.0000 0.50030  0.64920  0.48910  Biso   1.000  H
  C903     1.0000 0.56645  0.60536  0.49666  Biso   1.000  C
  H903     1.0000 0.55980  0.58700  0.49970  Biso   1.000  H
  C904     1.0000 0.38009  0.53190  0.55521  Biso   1.000  C
  H904     1.0000 0.39580  0.52390  0.54630  Biso   1.000  H
  N1356    1.0000 0.52729  0.63144  0.51815  Biso   1.000  N
  Cu227    1.0000 0.47050  0.12331  0.08720  Biso   1.000  Cu
  Cu228    1.0000 0.44205  0.14996  0.02457  Biso   1.000  Cu
  N1357    1.0000 0.48353  0.14154  0.02719  Biso   1.000  N
  N1358    1.0000 0.49548  0.12914  0.05120  Biso   1.000  N
  N1359    1.0000 0.43459  0.10658  0.07193  Biso   1.000  N
  N1360    1.0000 0.42447  0.11409  0.04486  Biso   1.000  N
  N1361    1.0000 0.59201  0.14161  0.98323  Biso   1.000  N
  N1362    1.0000 0.59033  0.11205  0.98427  Biso   1.000  N
  C905     1.0000 0.56936  0.15180  0.99564  Biso   1.000  C
  H905     1.0000 0.56520  0.17100  0.99810  Biso   1.000  H
  N1363    1.0000 0.55296  0.12960  0.00431  Biso   1.000  N
  C906     1.0000 0.52194  0.12321  0.04550  Biso   1.000  C
  H906     1.0000 0.53490  0.11480  0.05790  Biso   1.000  H
  N1364    1.0000 0.35676  0.01847  0.06178  Biso   1.000  N
  N1365    1.0000 0.37768  0.05954  0.06348  Biso   1.000  N
  N1366    1.0000 0.33835  0.03825  0.07428  Biso   1.000  N
  N1367    1.0000 0.39859  0.07989  0.06123  Biso   1.000  N
  C907     1.0000 0.40275  0.09811  0.03908  Biso   1.000  C
  H907     1.0000 0.39180  0.09890  0.02260  Biso   1.000  H
  C908     1.0000 0.35136  0.06267  0.07490  Biso   1.000  C
  H908     1.0000 0.34380  0.07950  0.08200  Biso   1.000  H
  C909     1.0000 0.41867  0.08595  0.08128  Biso   1.000  C
  H909     1.0000 0.42070  0.07680  0.09870  Biso   1.000  H
  C910     1.0000 0.50281  0.14231  0.00752  Biso   1.000  C
  H910     1.0000 0.50030  0.14920  0.98910  Biso   1.000  H
  C911     1.0000 0.56645  0.10536  0.99666  Biso   1.000  C
  H911     1.0000 0.55980  0.08700  0.99970  Biso   1.000  H
  C912     1.0000 0.38009  0.03190  0.05521  Biso   1.000  C
  H912     1.0000 0.39580  0.02390  0.04630  Biso   1.000  H
  N1368    1.0000 0.52729  0.13144  0.01815  Biso   1.000  N
  Cu229    1.0000 0.97050  0.62331  0.08720  Biso   1.000  Cu
  Cu230    1.0000 0.94205  0.64996  0.02457  Biso   1.000  Cu
  N1369    1.0000 0.98353  0.64154  0.02719  Biso   1.000  N
  N1370    1.0000 0.99548  0.62914  0.05120  Biso   1.000  N
  N1371    1.0000 0.93459  0.60658  0.07193  Biso   1.000  N
  N1372    1.0000 0.92447  0.61409  0.04486  Biso   1.000  N
  N1373    1.0000 0.09201  0.64161  0.98323  Biso   1.000  N
  N1374    1.0000 0.09033  0.61205  0.98427  Biso   1.000  N
  C913     1.0000 0.06936  0.65180  0.99564  Biso   1.000  C
  H913     1.0000 0.06520  0.67100  0.99810  Biso   1.000  H
  N1375    1.0000 0.05296  0.62960  0.00431  Biso   1.000  N
  C914     1.0000 0.02194  0.62321  0.04550  Biso   1.000  C
  H914     1.0000 0.03490  0.61480  0.05790  Biso   1.000  H
  N1376    1.0000 0.85676  0.51847  0.06178  Biso   1.000  N
  N1377    1.0000 0.87768  0.55954  0.06348  Biso   1.000  N
  N1378    1.0000 0.83835  0.53825  0.07428  Biso   1.000  N
  N1379    1.0000 0.89859  0.57989  0.06123  Biso   1.000  N
  C915     1.0000 0.90275  0.59811  0.03908  Biso   1.000  C
  H915     1.0000 0.89180  0.59890  0.02260  Biso   1.000  H
  C916     1.0000 0.85136  0.56267  0.07490  Biso   1.000  C
  H916     1.0000 0.84380  0.57950  0.08200  Biso   1.000  H
  C917     1.0000 0.91867  0.58595  0.08128  Biso   1.000  C
  H917     1.0000 0.92070  0.57680  0.09870  Biso   1.000  H
  C918     1.0000 0.00281  0.64231  0.00752  Biso   1.000  C
  H918     1.0000 0.00030  0.64920  0.98910  Biso   1.000  H
  C919     1.0000 0.06645  0.60536  0.99666  Biso   1.000  C
  H919     1.0000 0.05980  0.58700  0.99970  Biso   1.000  H
  C920     1.0000 0.88009  0.53190  0.05521  Biso   1.000  C
  H920     1.0000 0.89580  0.52390  0.04630  Biso   1.000  H
  N1380    1.0000 0.02729  0.63144  0.01815  Biso   1.000  N
  Cu231    1.0000 0.97050  0.12331  0.58720  Biso   1.000  Cu
  Cu232    1.0000 0.94205  0.14996  0.52457  Biso   1.000  Cu
  N1381    1.0000 0.98353  0.14154  0.52719  Biso   1.000  N
  N1382    1.0000 0.99548  0.12914  0.55120  Biso   1.000  N
  N1383    1.0000 0.93459  0.10658  0.57193  Biso   1.000  N
  N1384    1.0000 0.92447  0.11409  0.54486  Biso   1.000  N
  N1385    1.0000 0.09201  0.14161  0.48323  Biso   1.000  N
  N1386    1.0000 0.09033  0.11205  0.48427  Biso   1.000  N
  C921     1.0000 0.06936  0.15180  0.49564  Biso   1.000  C
  H921     1.0000 0.06520  0.17100  0.49810  Biso   1.000  H
  N1387    1.0000 0.05296  0.12960  0.50431  Biso   1.000  N
  C922     1.0000 0.02194  0.12321  0.54550  Biso   1.000  C
  H922     1.0000 0.03490  0.11480  0.55790  Biso   1.000  H
  N1388    1.0000 0.85676  0.01847  0.56178  Biso   1.000  N
  N1389    1.0000 0.87768  0.05954  0.56348  Biso   1.000  N
  N1390    1.0000 0.83835  0.03825  0.57428  Biso   1.000  N
  N1391    1.0000 0.89859  0.07989  0.56123  Biso   1.000  N
  C923     1.0000 0.90275  0.09811  0.53908  Biso   1.000  C
  H923     1.0000 0.89180  0.09890  0.52260  Biso   1.000  H
  C924     1.0000 0.85136  0.06267  0.57490  Biso   1.000  C
  H924     1.0000 0.84380  0.07950  0.58200  Biso   1.000  H
  C925     1.0000 0.91867  0.08595  0.58128  Biso   1.000  C
  H925     1.0000 0.92070  0.07680  0.59870  Biso   1.000  H
  C926     1.0000 0.00281  0.14231  0.50752  Biso   1.000  C
  H926     1.0000 0.00030  0.14920  0.48910  Biso   1.000  H
  C927     1.0000 0.06645  0.10536  0.49666  Biso   1.000  C
  H927     1.0000 0.05980  0.08700  0.49970  Biso   1.000  H
  C928     1.0000 0.88009  0.03190  0.55521  Biso   1.000  C
  H928     1.0000 0.89580  0.02390  0.54630  Biso   1.000  H
  N1392    1.0000 0.02729  0.13144  0.51815  Biso   1.000  N
  Cu233    1.0000 0.97050  0.12669  0.66280  Biso   1.000  Cu
  Cu234    1.0000 0.94205  0.10004  0.72543  Biso   1.000  Cu
  N1393    1.0000 0.98353  0.10846  0.72281  Biso   1.000  N
  N1394    1.0000 0.99548  0.12086  0.69880  Biso   1.000  N
  N1395    1.0000 0.93459  0.14342  0.67807  Biso   1.000  N
  N1396    1.0000 0.92447  0.13591  0.70514  Biso   1.000  N
  N1397    1.0000 0.09201  0.10839  0.76677  Biso   1.000  N
  N1398    1.0000 0.09033  0.13795  0.76573  Biso   1.000  N
  C929     1.0000 0.06936  0.09820  0.75436  Biso   1.000  C
  H929     1.0000 0.06520  0.07900  0.75190  Biso   1.000  H
  N1399    1.0000 0.05296  0.12040  0.74569  Biso   1.000  N
  C930     1.0000 0.02194  0.12679  0.70450  Biso   1.000  C
  H930     1.0000 0.03490  0.13520  0.69210  Biso   1.000  H
  N1400    1.0000 0.85676  0.23153  0.68822  Biso   1.000  N
  N1401    1.0000 0.87768  0.19046  0.68652  Biso   1.000  N
  N1402    1.0000 0.83835  0.21175  0.67572  Biso   1.000  N
  N1403    1.0000 0.89859  0.17011  0.68877  Biso   1.000  N
  C931     1.0000 0.90275  0.15189  0.71092  Biso   1.000  C
  H931     1.0000 0.89180  0.15110  0.72740  Biso   1.000  H
  C932     1.0000 0.85136  0.18733  0.67510  Biso   1.000  C
  H932     1.0000 0.84380  0.17050  0.66800  Biso   1.000  H
  C933     1.0000 0.91867  0.16405  0.66872  Biso   1.000  C
  H933     1.0000 0.92070  0.17320  0.65130  Biso   1.000  H
  C934     1.0000 0.00281  0.10769  0.74248  Biso   1.000  C
  H934     1.0000 0.00030  0.10080  0.76090  Biso   1.000  H
  C935     1.0000 0.06645  0.14464  0.75334  Biso   1.000  C
  H935     1.0000 0.05980  0.16300  0.75030  Biso   1.000  H
  C936     1.0000 0.88009  0.21810  0.69479  Biso   1.000  C
  H936     1.0000 0.89580  0.22610  0.70370  Biso   1.000  H
  N1404    1.0000 0.02729  0.11856  0.73185  Biso   1.000  N
  Cu235    1.0000 0.97050  0.62669  0.16280  Biso   1.000  Cu
  Cu236    1.0000 0.94205  0.60004  0.22543  Biso   1.000  Cu
  N1405    1.0000 0.98353  0.60846  0.22281  Biso   1.000  N
  N1406    1.0000 0.99548  0.62086  0.19880  Biso   1.000  N
  N1407    1.0000 0.93459  0.64342  0.17807  Biso   1.000  N
  N1408    1.0000 0.92447  0.63591  0.20514  Biso   1.000  N
  N1409    1.0000 0.09201  0.60839  0.26677  Biso   1.000  N
  N1410    1.0000 0.09033  0.63795  0.26573  Biso   1.000  N
  C937     1.0000 0.06936  0.59820  0.25436  Biso   1.000  C
  H937     1.0000 0.06520  0.57900  0.25190  Biso   1.000  H
  N1411    1.0000 0.05296  0.62040  0.24569  Biso   1.000  N
  C938     1.0000 0.02194  0.62679  0.20450  Biso   1.000  C
  H938     1.0000 0.03490  0.63520  0.19210  Biso   1.000  H
  N1412    1.0000 0.85676  0.73153  0.18822  Biso   1.000  N
  N1413    1.0000 0.87768  0.69046  0.18652  Biso   1.000  N
  N1414    1.0000 0.83835  0.71175  0.17572  Biso   1.000  N
  N1415    1.0000 0.89859  0.67011  0.18877  Biso   1.000  N
  C939     1.0000 0.90275  0.65189  0.21092  Biso   1.000  C
  H939     1.0000 0.89180  0.65110  0.22740  Biso   1.000  H
  C940     1.0000 0.85136  0.68733  0.17510  Biso   1.000  C
  H940     1.0000 0.84380  0.67050  0.16800  Biso   1.000  H
  C941     1.0000 0.91867  0.66405  0.16872  Biso   1.000  C
  H941     1.0000 0.92070  0.67320  0.15130  Biso   1.000  H
  C942     1.0000 0.00281  0.60769  0.24248  Biso   1.000  C
  H942     1.0000 0.00030  0.60080  0.26090  Biso   1.000  H
  C943     1.0000 0.06645  0.64464  0.25334  Biso   1.000  C
  H943     1.0000 0.05980  0.66300  0.25030  Biso   1.000  H
  C944     1.0000 0.88009  0.71810  0.19479  Biso   1.000  C
  H944     1.0000 0.89580  0.72610  0.20370  Biso   1.000  H
  N1416    1.0000 0.02729  0.61856  0.23185  Biso   1.000  N
  Cu237    1.0000 0.47050  0.12669  0.16280  Biso   1.000  Cu
  Cu238    1.0000 0.44205  0.10004  0.22543  Biso   1.000  Cu
  N1417    1.0000 0.48353  0.10846  0.22281  Biso   1.000  N
  N1418    1.0000 0.49548  0.12086  0.19880  Biso   1.000  N
  N1419    1.0000 0.43459  0.14342  0.17807  Biso   1.000  N
  N1420    1.0000 0.42447  0.13591  0.20514  Biso   1.000  N
  N1421    1.0000 0.59201  0.10839  0.26677  Biso   1.000  N
  N1422    1.0000 0.59033  0.13795  0.26573  Biso   1.000  N
  C945     1.0000 0.56936  0.09820  0.25436  Biso   1.000  C
  H945     1.0000 0.56520  0.07900  0.25190  Biso   1.000  H
  N1423    1.0000 0.55296  0.12040  0.24569  Biso   1.000  N
  C946     1.0000 0.52194  0.12679  0.20450  Biso   1.000  C
  H946     1.0000 0.53490  0.13520  0.19210  Biso   1.000  H
  N1424    1.0000 0.35676  0.23153  0.18822  Biso   1.000  N
  N1425    1.0000 0.37768  0.19046  0.18652  Biso   1.000  N
  N1426    1.0000 0.33835  0.21175  0.17572  Biso   1.000  N
  N1427    1.0000 0.39859  0.17011  0.18877  Biso   1.000  N
  C947     1.0000 0.40275  0.15189  0.21092  Biso   1.000  C
  H947     1.0000 0.39180  0.15110  0.22740  Biso   1.000  H
  C948     1.0000 0.35136  0.18733  0.17510  Biso   1.000  C
  H948     1.0000 0.34380  0.17050  0.16800  Biso   1.000  H
  C949     1.0000 0.41867  0.16405  0.16872  Biso   1.000  C
  H949     1.0000 0.42070  0.17320  0.15130  Biso   1.000  H
  C950     1.0000 0.50281  0.10769  0.24248  Biso   1.000  C
  H950     1.0000 0.50030  0.10080  0.26090  Biso   1.000  H
  C951     1.0000 0.56645  0.14464  0.25334  Biso   1.000  C
  H951     1.0000 0.55980  0.16300  0.25030  Biso   1.000  H
  C952     1.0000 0.38009  0.21810  0.19479  Biso   1.000  C
  H952     1.0000 0.39580  0.22610  0.20370  Biso   1.000  H
  N1428    1.0000 0.52729  0.11856  0.23185  Biso   1.000  N
  Cu239    1.0000 0.47050  0.62669  0.66280  Biso   1.000  Cu
  Cu240    1.0000 0.44205  0.60004  0.72543  Biso   1.000  Cu
  N1429    1.0000 0.48353  0.60846  0.72281  Biso   1.000  N
  N1430    1.0000 0.49548  0.62086  0.69880  Biso   1.000  N
  N1431    1.0000 0.43459  0.64342  0.67807  Biso   1.000  N
  N1432    1.0000 0.42447  0.63591  0.70514  Biso   1.000  N
  N1433    1.0000 0.59201  0.60839  0.76677  Biso   1.000  N
  N1434    1.0000 0.59033  0.63795  0.76573  Biso   1.000  N
  C953     1.0000 0.56936  0.59820  0.75436  Biso   1.000  C
  H953     1.0000 0.56520  0.57900  0.75190  Biso   1.000  H
  N1435    1.0000 0.55296  0.62040  0.74569  Biso   1.000  N
  C954     1.0000 0.52194  0.62679  0.70450  Biso   1.000  C
  H954     1.0000 0.53490  0.63520  0.69210  Biso   1.000  H
  N1436    1.0000 0.35676  0.73153  0.68822  Biso   1.000  N
  N1437    1.0000 0.37768  0.69046  0.68652  Biso   1.000  N
  N1438    1.0000 0.33835  0.71175  0.67572  Biso   1.000  N
  N1439    1.0000 0.39859  0.67011  0.68877  Biso   1.000  N
  C955     1.0000 0.40275  0.65189  0.71092  Biso   1.000  C
  H955     1.0000 0.39180  0.65110  0.72740  Biso   1.000  H
  C956     1.0000 0.35136  0.68733  0.67510  Biso   1.000  C
  H956     1.0000 0.34380  0.67050  0.66800  Biso   1.000  H
  C957     1.0000 0.41867  0.66405  0.66872  Biso   1.000  C
  H957     1.0000 0.42070  0.67320  0.65130  Biso   1.000  H
  C958     1.0000 0.50281  0.60769  0.74248  Biso   1.000  C
  H958     1.0000 0.50030  0.60080  0.76090  Biso   1.000  H
  C959     1.0000 0.56645  0.64464  0.75334  Biso   1.000  C
  H959     1.0000 0.55980  0.66300  0.75030  Biso   1.000  H
  C960     1.0000 0.38009  0.71810  0.69479  Biso   1.000  C
  H960     1.0000 0.39580  0.72610  0.70370  Biso   1.000  H
  N1440    1.0000 0.52729  0.61856  0.73185  Biso   1.000  N
  Cu241    1.0000 0.27951  0.62669  0.08720  Biso   1.000  Cu
  Cu242    1.0000 0.30795  0.60004  0.02457  Biso   1.000  Cu
  N1441    1.0000 0.26647  0.60846  0.02719  Biso   1.000  N
  N1442    1.0000 0.25452  0.62086  0.05120  Biso   1.000  N
  N1443    1.0000 0.31541  0.64342  0.07193  Biso   1.000  N
  N1444    1.0000 0.32553  0.63591  0.04486  Biso   1.000  N
  N1445    1.0000 0.15799  0.60839  0.98323  Biso   1.000  N
  N1446    1.0000 0.15967  0.63795  0.98427  Biso   1.000  N
  C961     1.0000 0.18064  0.59820  0.99564  Biso   1.000  C
  H961     1.0000 0.18480  0.57900  0.99810  Biso   1.000  H
  N1447    1.0000 0.19704  0.62040  0.00431  Biso   1.000  N
  C962     1.0000 0.22806  0.62679  0.04550  Biso   1.000  C
  H962     1.0000 0.21510  0.63520  0.05790  Biso   1.000  H
  N1448    1.0000 0.39324  0.73153  0.06178  Biso   1.000  N
  N1449    1.0000 0.37232  0.69046  0.06348  Biso   1.000  N
  N1450    1.0000 0.41165  0.71175  0.07428  Biso   1.000  N
  N1451    1.0000 0.35141  0.67011  0.06123  Biso   1.000  N
  C963     1.0000 0.34725  0.65189  0.03908  Biso   1.000  C
  H963     1.0000 0.35820  0.65110  0.02260  Biso   1.000  H
  C964     1.0000 0.39864  0.68733  0.07490  Biso   1.000  C
  H964     1.0000 0.40620  0.67050  0.08200  Biso   1.000  H
  C965     1.0000 0.33133  0.66405  0.08128  Biso   1.000  C
  H965     1.0000 0.32930  0.67320  0.09870  Biso   1.000  H
  C966     1.0000 0.24719  0.60769  0.00752  Biso   1.000  C
  H966     1.0000 0.24970  0.60080  0.98910  Biso   1.000  H
  C967     1.0000 0.18355  0.64464  0.99666  Biso   1.000  C
  H967     1.0000 0.19020  0.66300  0.99970  Biso   1.000  H
  C968     1.0000 0.36991  0.71810  0.05521  Biso   1.000  C
  H968     1.0000 0.35420  0.72610  0.04630  Biso   1.000  H
  N1452    1.0000 0.22271  0.61856  0.01815  Biso   1.000  N
  Cu243    1.0000 0.27951  0.12669  0.58720  Biso   1.000  Cu
  Cu244    1.0000 0.30795  0.10004  0.52457  Biso   1.000  Cu
  N1453    1.0000 0.26647  0.10846  0.52719  Biso   1.000  N
  N1454    1.0000 0.25452  0.12086  0.55120  Biso   1.000  N
  N1455    1.0000 0.31541  0.14342  0.57193  Biso   1.000  N
  N1456    1.0000 0.32553  0.13591  0.54486  Biso   1.000  N
  N1457    1.0000 0.15799  0.10839  0.48323  Biso   1.000  N
  N1458    1.0000 0.15967  0.13795  0.48427  Biso   1.000  N
  C969     1.0000 0.18064  0.09820  0.49564  Biso   1.000  C
  H969     1.0000 0.18480  0.07900  0.49810  Biso   1.000  H
  N1459    1.0000 0.19704  0.12040  0.50431  Biso   1.000  N
  C970     1.0000 0.22806  0.12679  0.54550  Biso   1.000  C
  H970     1.0000 0.21510  0.13520  0.55790  Biso   1.000  H
  N1460    1.0000 0.39324  0.23153  0.56178  Biso   1.000  N
  N1461    1.0000 0.37232  0.19046  0.56348  Biso   1.000  N
  N1462    1.0000 0.41165  0.21175  0.57428  Biso   1.000  N
  N1463    1.0000 0.35141  0.17011  0.56123  Biso   1.000  N
  C971     1.0000 0.34725  0.15189  0.53908  Biso   1.000  C
  H971     1.0000 0.35820  0.15110  0.52260  Biso   1.000  H
  C972     1.0000 0.39864  0.18733  0.57490  Biso   1.000  C
  H972     1.0000 0.40620  0.17050  0.58200  Biso   1.000  H
  C973     1.0000 0.33133  0.16405  0.58128  Biso   1.000  C
  H973     1.0000 0.32930  0.17320  0.59870  Biso   1.000  H
  C974     1.0000 0.24719  0.10769  0.50752  Biso   1.000  C
  H974     1.0000 0.24970  0.10080  0.48910  Biso   1.000  H
  C975     1.0000 0.18355  0.14464  0.49666  Biso   1.000  C
  H975     1.0000 0.19020  0.16300  0.49970  Biso   1.000  H
  C976     1.0000 0.36991  0.21810  0.55521  Biso   1.000  C
  H976     1.0000 0.35420  0.22610  0.54630  Biso   1.000  H
  N1464    1.0000 0.22271  0.11856  0.51815  Biso   1.000  N
  Cu245    1.0000 0.77951  0.62669  0.58720  Biso   1.000  Cu
  Cu246    1.0000 0.80795  0.60004  0.52457  Biso   1.000  Cu
  N1465    1.0000 0.76647  0.60846  0.52719  Biso   1.000  N
  N1466    1.0000 0.75452  0.62086  0.55120  Biso   1.000  N
  N1467    1.0000 0.81541  0.64342  0.57193  Biso   1.000  N
  N1468    1.0000 0.82553  0.63591  0.54486  Biso   1.000  N
  N1469    1.0000 0.65799  0.60839  0.48323  Biso   1.000  N
  N1470    1.0000 0.65967  0.63795  0.48427  Biso   1.000  N
  C977     1.0000 0.68064  0.59820  0.49564  Biso   1.000  C
  H977     1.0000 0.68480  0.57900  0.49810  Biso   1.000  H
  N1471    1.0000 0.69704  0.62040  0.50431  Biso   1.000  N
  C978     1.0000 0.72806  0.62679  0.54550  Biso   1.000  C
  H978     1.0000 0.71510  0.63520  0.55790  Biso   1.000  H
  N1472    1.0000 0.89324  0.73153  0.56178  Biso   1.000  N
  N1473    1.0000 0.87232  0.69046  0.56348  Biso   1.000  N
  N1474    1.0000 0.91165  0.71175  0.57428  Biso   1.000  N
  N1475    1.0000 0.85141  0.67011  0.56123  Biso   1.000  N
  C979     1.0000 0.84725  0.65189  0.53908  Biso   1.000  C
  H979     1.0000 0.85820  0.65110  0.52260  Biso   1.000  H
  C980     1.0000 0.89864  0.68733  0.57490  Biso   1.000  C
  H980     1.0000 0.90620  0.67050  0.58200  Biso   1.000  H
  C981     1.0000 0.83133  0.66405  0.58128  Biso   1.000  C
  H981     1.0000 0.82930  0.67320  0.59870  Biso   1.000  H
  C982     1.0000 0.74719  0.60769  0.50752  Biso   1.000  C
  H982     1.0000 0.74970  0.60080  0.48910  Biso   1.000  H
  C983     1.0000 0.68355  0.64464  0.49666  Biso   1.000  C
  H983     1.0000 0.69020  0.66300  0.49970  Biso   1.000  H
  C984     1.0000 0.86991  0.71810  0.55521  Biso   1.000  C
  H984     1.0000 0.85420  0.72610  0.54630  Biso   1.000  H
  N1476    1.0000 0.72271  0.61856  0.51815  Biso   1.000  N
  Cu247    1.0000 0.77951  0.12669  0.08720  Biso   1.000  Cu
  Cu248    1.0000 0.80795  0.10004  0.02457  Biso   1.000  Cu
  N1477    1.0000 0.76647  0.10846  0.02719  Biso   1.000  N
  N1478    1.0000 0.75452  0.12086  0.05120  Biso   1.000  N
  N1479    1.0000 0.81541  0.14342  0.07193  Biso   1.000  N
  N1480    1.0000 0.82553  0.13591  0.04486  Biso   1.000  N
  N1481    1.0000 0.65799  0.10839  0.98323  Biso   1.000  N
  N1482    1.0000 0.65967  0.13795  0.98427  Biso   1.000  N
  C985     1.0000 0.68064  0.09820  0.99564  Biso   1.000  C
  H985     1.0000 0.68480  0.07900  0.99810  Biso   1.000  H
  N1483    1.0000 0.69704  0.12040  0.00431  Biso   1.000  N
  C986     1.0000 0.72806  0.12679  0.04550  Biso   1.000  C
  H986     1.0000 0.71510  0.13520  0.05790  Biso   1.000  H
  N1484    1.0000 0.89324  0.23153  0.06178  Biso   1.000  N
  N1485    1.0000 0.87232  0.19046  0.06348  Biso   1.000  N
  N1486    1.0000 0.91165  0.21175  0.07428  Biso   1.000  N
  N1487    1.0000 0.85141  0.17011  0.06123  Biso   1.000  N
  C987     1.0000 0.84725  0.15189  0.03908  Biso   1.000  C
  H987     1.0000 0.85820  0.15110  0.02260  Biso   1.000  H
  C988     1.0000 0.89864  0.18733  0.07490  Biso   1.000  C
  H988     1.0000 0.90620  0.17050  0.08200  Biso   1.000  H
  C989     1.0000 0.83133  0.16405  0.08128  Biso   1.000  C
  H989     1.0000 0.82930  0.17320  0.09870  Biso   1.000  H
  C990     1.0000 0.74719  0.10769  0.00752  Biso   1.000  C
  H990     1.0000 0.74970  0.10080  0.98910  Biso   1.000  H
  C991     1.0000 0.68355  0.14464  0.99666  Biso   1.000  C
  H991     1.0000 0.69020  0.16300  0.99970  Biso   1.000  H
  C992     1.0000 0.86991  0.21810  0.05521  Biso   1.000  C
  H992     1.0000 0.85420  0.22610  0.04630  Biso   1.000  H
  N1488    1.0000 0.72271  0.11856  0.01815  Biso   1.000  N
  Cu249    1.0000 0.77951  0.12331  0.16280  Biso   1.000  Cu
  Cu250    1.0000 0.80795  0.14996  0.22543  Biso   1.000  Cu
  N1489    1.0000 0.76647  0.14154  0.22281  Biso   1.000  N
  N1490    1.0000 0.75452  0.12914  0.19880  Biso   1.000  N
  N1491    1.0000 0.81541  0.10658  0.17807  Biso   1.000  N
  N1492    1.0000 0.82553  0.11409  0.20514  Biso   1.000  N
  N1493    1.0000 0.65799  0.14161  0.26677  Biso   1.000  N
  N1494    1.0000 0.65967  0.11205  0.26573  Biso   1.000  N
  C993     1.0000 0.68064  0.15180  0.25436  Biso   1.000  C
  H993     1.0000 0.68480  0.17100  0.25190  Biso   1.000  H
  N1495    1.0000 0.69704  0.12960  0.24569  Biso   1.000  N
  C994     1.0000 0.72806  0.12321  0.20450  Biso   1.000  C
  H994     1.0000 0.71510  0.11480  0.19210  Biso   1.000  H
  N1496    1.0000 0.89324  0.01847  0.18822  Biso   1.000  N
  N1497    1.0000 0.87232  0.05954  0.18652  Biso   1.000  N
  N1498    1.0000 0.91165  0.03825  0.17572  Biso   1.000  N
  N1499    1.0000 0.85141  0.07989  0.18877  Biso   1.000  N
  C995     1.0000 0.84725  0.09811  0.21092  Biso   1.000  C
  H995     1.0000 0.85820  0.09890  0.22740  Biso   1.000  H
  C996     1.0000 0.89864  0.06267  0.17510  Biso   1.000  C
  H996     1.0000 0.90620  0.07950  0.16800  Biso   1.000  H
  C997     1.0000 0.83133  0.08595  0.16872  Biso   1.000  C
  H997     1.0000 0.82930  0.07680  0.15130  Biso   1.000  H
  C998     1.0000 0.74719  0.14231  0.24248  Biso   1.000  C
  H998     1.0000 0.74970  0.14920  0.26090  Biso   1.000  H
  C999     1.0000 0.68355  0.10536  0.25334  Biso   1.000  C
  H999     1.0000 0.69020  0.08700  0.25030  Biso   1.000  H
  C1000    1.0000 0.86991  0.03190  0.19479  Biso   1.000  C
  H1000    1.0000 0.85420  0.02390  0.20370  Biso   1.000  H
  N1500    1.0000 0.72271  0.13144  0.23185  Biso   1.000  N
  Cu251    1.0000 0.77951  0.62331  0.66280  Biso   1.000  Cu
  Cu252    1.0000 0.80795  0.64996  0.72543  Biso   1.000  Cu
  N1501    1.0000 0.76647  0.64154  0.72281  Biso   1.000  N
  N1502    1.0000 0.75452  0.62914  0.69880  Biso   1.000  N
  N1503    1.0000 0.81541  0.60658  0.67807  Biso   1.000  N
  N1504    1.0000 0.82553  0.61409  0.70514  Biso   1.000  N
  N1505    1.0000 0.65799  0.64161  0.76677  Biso   1.000  N
  N1506    1.0000 0.65967  0.61205  0.76573  Biso   1.000  N
  C1001    1.0000 0.68064  0.65180  0.75436  Biso   1.000  C
  H1001    1.0000 0.68480  0.67100  0.75190  Biso   1.000  H
  N1507    1.0000 0.69704  0.62960  0.74569  Biso   1.000  N
  C1002    1.0000 0.72806  0.62321  0.70450  Biso   1.000  C
  H1002    1.0000 0.71510  0.61480  0.69210  Biso   1.000  H
  N1508    1.0000 0.89324  0.51847  0.68822  Biso   1.000  N
  N1509    1.0000 0.87232  0.55954  0.68652  Biso   1.000  N
  N1510    1.0000 0.91165  0.53825  0.67572  Biso   1.000  N
  N1511    1.0000 0.85141  0.57989  0.68877  Biso   1.000  N
  C1003    1.0000 0.84725  0.59811  0.71092  Biso   1.000  C
  H1003    1.0000 0.85820  0.59890  0.72740  Biso   1.000  H
  C1004    1.0000 0.89864  0.56267  0.67510  Biso   1.000  C
  H1004    1.0000 0.90620  0.57950  0.66800  Biso   1.000  H
  C1005    1.0000 0.83133  0.58595  0.66872  Biso   1.000  C
  H1005    1.0000 0.82930  0.57680  0.65130  Biso   1.000  H
  C1006    1.0000 0.74719  0.64231  0.74248  Biso   1.000  C
  H1006    1.0000 0.74970  0.64920  0.76090  Biso   1.000  H
  C1007    1.0000 0.68355  0.60536  0.75334  Biso   1.000  C
  H1007    1.0000 0.69020  0.58700  0.75030  Biso   1.000  H
  C1008    1.0000 0.86991  0.53190  0.69479  Biso   1.000  C
  H1008    1.0000 0.85420  0.52390  0.70370  Biso   1.000  H
  N1512    1.0000 0.72271  0.63144  0.73185  Biso   1.000  N
  Cu253    1.0000 0.27951  0.12331  0.66280  Biso   1.000  Cu
  Cu254    1.0000 0.30795  0.14996  0.72543  Biso   1.000  Cu
  N1513    1.0000 0.26647  0.14154  0.72281  Biso   1.000  N
  N1514    1.0000 0.25452  0.12914  0.69880  Biso   1.000  N
  N1515    1.0000 0.31541  0.10658  0.67807  Biso   1.000  N
  N1516    1.0000 0.32553  0.11409  0.70514  Biso   1.000  N
  N1517    1.0000 0.15799  0.14161  0.76677  Biso   1.000  N
  N1518    1.0000 0.15967  0.11205  0.76573  Biso   1.000  N
  C1009    1.0000 0.18064  0.15180  0.75436  Biso   1.000  C
  H1009    1.0000 0.18480  0.17100  0.75190  Biso   1.000  H
  N1519    1.0000 0.19704  0.12960  0.74569  Biso   1.000  N
  C1010    1.0000 0.22806  0.12321  0.70450  Biso   1.000  C
  H1010    1.0000 0.21510  0.11480  0.69210  Biso   1.000  H
  N1520    1.0000 0.39324  0.01847  0.68822  Biso   1.000  N
  N1521    1.0000 0.37232  0.05954  0.68652  Biso   1.000  N
  N1522    1.0000 0.41165  0.03825  0.67572  Biso   1.000  N
  N1523    1.0000 0.35141  0.07989  0.68877  Biso   1.000  N
  C1011    1.0000 0.34725  0.09811  0.71092  Biso   1.000  C
  H1011    1.0000 0.35820  0.09890  0.72740  Biso   1.000  H
  C1012    1.0000 0.39864  0.06267  0.67510  Biso   1.000  C
  H1012    1.0000 0.40620  0.07950  0.66800  Biso   1.000  H
  C1013    1.0000 0.33133  0.08595  0.66872  Biso   1.000  C
  H1013    1.0000 0.32930  0.07680  0.65130  Biso   1.000  H
  C1014    1.0000 0.24719  0.14231  0.74248  Biso   1.000  C
  H1014    1.0000 0.24970  0.14920  0.76090  Biso   1.000  H
  C1015    1.0000 0.18355  0.10536  0.75334  Biso   1.000  C
  H1015    1.0000 0.19020  0.08700  0.75030  Biso   1.000  H
  C1016    1.0000 0.36991  0.03190  0.69479  Biso   1.000  C
  H1016    1.0000 0.35420  0.02390  0.70370  Biso   1.000  H
  N1524    1.0000 0.22271  0.13144  0.73185  Biso   1.000  N
  Cu255    1.0000 0.27951  0.62331  0.16280  Biso   1.000  Cu
  Cu256    1.0000 0.30795  0.64996  0.22543  Biso   1.000  Cu
  N1525    1.0000 0.26647  0.64154  0.22281  Biso   1.000  N
  N1526    1.0000 0.25452  0.62914  0.19880  Biso   1.000  N
  N1527    1.0000 0.31541  0.60658  0.17807  Biso   1.000  N
  N1528    1.0000 0.32553  0.61409  0.20514  Biso   1.000  N
  N1529    1.0000 0.15799  0.64161  0.26677  Biso   1.000  N
  N1530    1.0000 0.15967  0.61205  0.26573  Biso   1.000  N
  C1017    1.0000 0.18064  0.65180  0.25436  Biso   1.000  C
  H1017    1.0000 0.18480  0.67100  0.25190  Biso   1.000  H
  N1531    1.0000 0.19704  0.62960  0.24569  Biso   1.000  N
  C1018    1.0000 0.22806  0.62321  0.20450  Biso   1.000  C
  H1018    1.0000 0.21510  0.61480  0.19210  Biso   1.000  H
  N1532    1.0000 0.39324  0.51847  0.18822  Biso   1.000  N
  N1533    1.0000 0.37232  0.55954  0.18652  Biso   1.000  N
  N1534    1.0000 0.41165  0.53825  0.17572  Biso   1.000  N
  N1535    1.0000 0.35141  0.57989  0.18877  Biso   1.000  N
  C1019    1.0000 0.34725  0.59811  0.21092  Biso   1.000  C
  H1019    1.0000 0.35820  0.59890  0.22740  Biso   1.000  H
  C1020    1.0000 0.39864  0.56267  0.17510  Biso   1.000  C
  H1020    1.0000 0.40620  0.57950  0.16800  Biso   1.000  H
  C1021    1.0000 0.33133  0.58595  0.16872  Biso   1.000  C
  H1021    1.0000 0.32930  0.57680  0.15130  Biso   1.000  H
  C1022    1.0000 0.24719  0.64231  0.24248  Biso   1.000  C
  H1022    1.0000 0.24970  0.64920  0.26090  Biso   1.000  H
  C1023    1.0000 0.18355  0.60536  0.25334  Biso   1.000  C
  H1023    1.0000 0.19020  0.58700  0.25030  Biso   1.000  H
  C1024    1.0000 0.36991  0.53190  0.19479  Biso   1.000  C
  H1024    1.0000 0.35420  0.52390  0.20370  Biso   1.000  H
  N1536    1.0000 0.22271  0.63144  0.23185  Biso   1.000  N
  Cu257    1.0000 0.58720  0.47050  0.62331  Biso   1.000  Cu
  Cu258    1.0000 0.52457  0.44205  0.64996  Biso   1.000  Cu
  N1537    1.0000 0.52719  0.48353  0.64154  Biso   1.000  N
  N1538    1.0000 0.55120  0.49548  0.62914  Biso   1.000  N
  N1539    1.0000 0.57193  0.43459  0.60658  Biso   1.000  N
  N1540    1.0000 0.54486  0.42447  0.61409  Biso   1.000  N
  N1541    1.0000 0.48323  0.59201  0.64161  Biso   1.000  N
  N1542    1.0000 0.48427  0.59033  0.61205  Biso   1.000  N
  C1025    1.0000 0.49564  0.56936  0.65180  Biso   1.000  C
  H1025    1.0000 0.49810  0.56520  0.67100  Biso   1.000  H
  N1543    1.0000 0.50431  0.55296  0.62960  Biso   1.000  N
  C1026    1.0000 0.54550  0.52194  0.62321  Biso   1.000  C
  H1026    1.0000 0.55790  0.53490  0.61480  Biso   1.000  H
  N1544    1.0000 0.56178  0.35676  0.51847  Biso   1.000  N
  N1545    1.0000 0.56348  0.37768  0.55954  Biso   1.000  N
  N1546    1.0000 0.57428  0.33835  0.53825  Biso   1.000  N
  N1547    1.0000 0.56123  0.39859  0.57989  Biso   1.000  N
  C1027    1.0000 0.53908  0.40275  0.59811  Biso   1.000  C
  H1027    1.0000 0.52260  0.39180  0.59890  Biso   1.000  H
  C1028    1.0000 0.57490  0.35136  0.56267  Biso   1.000  C
  H1028    1.0000 0.58200  0.34380  0.57950  Biso   1.000  H
  C1029    1.0000 0.58128  0.41867  0.58595  Biso   1.000  C
  H1029    1.0000 0.59870  0.42070  0.57680  Biso   1.000  H
  C1030    1.0000 0.50752  0.50281  0.64231  Biso   1.000  C
  H1030    1.0000 0.48910  0.50030  0.64920  Biso   1.000  H
  C1031    1.0000 0.49666  0.56645  0.60536  Biso   1.000  C
  H1031    1.0000 0.49970  0.55980  0.58700  Biso   1.000  H
  C1032    1.0000 0.55521  0.38009  0.53190  Biso   1.000  C
  H1032    1.0000 0.54630  0.39580  0.52390  Biso   1.000  H
  N1548    1.0000 0.51815  0.52729  0.63144  Biso   1.000  N
  Cu259    1.0000 0.58720  0.97050  0.12331  Biso   1.000  Cu
  Cu260    1.0000 0.52457  0.94205  0.14996  Biso   1.000  Cu
  N1549    1.0000 0.52719  0.98353  0.14154  Biso   1.000  N
  N1550    1.0000 0.55120  0.99548  0.12914  Biso   1.000  N
  N1551    1.0000 0.57193  0.93459  0.10658  Biso   1.000  N
  N1552    1.0000 0.54486  0.92447  0.11409  Biso   1.000  N
  N1553    1.0000 0.48323  0.09201  0.14161  Biso   1.000  N
  N1554    1.0000 0.48427  0.09033  0.11205  Biso   1.000  N
  C1033    1.0000 0.49564  0.06936  0.15180  Biso   1.000  C
  H1033    1.0000 0.49810  0.06520  0.17100  Biso   1.000  H
  N1555    1.0000 0.50431  0.05296  0.12960  Biso   1.000  N
  C1034    1.0000 0.54550  0.02194  0.12321  Biso   1.000  C
  H1034    1.0000 0.55790  0.03490  0.11480  Biso   1.000  H
  N1556    1.0000 0.56178  0.85676  0.01847  Biso   1.000  N
  N1557    1.0000 0.56348  0.87768  0.05954  Biso   1.000  N
  N1558    1.0000 0.57428  0.83835  0.03825  Biso   1.000  N
  N1559    1.0000 0.56123  0.89859  0.07989  Biso   1.000  N
  C1035    1.0000 0.53908  0.90275  0.09811  Biso   1.000  C
  H1035    1.0000 0.52260  0.89180  0.09890  Biso   1.000  H
  C1036    1.0000 0.57490  0.85136  0.06267  Biso   1.000  C
  H1036    1.0000 0.58200  0.84380  0.07950  Biso   1.000  H
  C1037    1.0000 0.58128  0.91867  0.08595  Biso   1.000  C
  H1037    1.0000 0.59870  0.92070  0.07680  Biso   1.000  H
  C1038    1.0000 0.50752  0.00281  0.14231  Biso   1.000  C
  H1038    1.0000 0.48910  0.00030  0.14920  Biso   1.000  H
  C1039    1.0000 0.49666  0.06645  0.10536  Biso   1.000  C
  H1039    1.0000 0.49970  0.05980  0.08700  Biso   1.000  H
  C1040    1.0000 0.55521  0.88009  0.03190  Biso   1.000  C
  H1040    1.0000 0.54630  0.89580  0.02390  Biso   1.000  H
  N1560    1.0000 0.51815  0.02729  0.13144  Biso   1.000  N
  Cu261    1.0000 0.08720  0.47050  0.12331  Biso   1.000  Cu
  Cu262    1.0000 0.02457  0.44205  0.14996  Biso   1.000  Cu
  N1561    1.0000 0.02719  0.48353  0.14154  Biso   1.000  N
  N1562    1.0000 0.05120  0.49548  0.12914  Biso   1.000  N
  N1563    1.0000 0.07193  0.43459  0.10658  Biso   1.000  N
  N1564    1.0000 0.04486  0.42447  0.11409  Biso   1.000  N
  N1565    1.0000 0.98323  0.59201  0.14161  Biso   1.000  N
  N1566    1.0000 0.98427  0.59033  0.11205  Biso   1.000  N
  C1041    1.0000 0.99564  0.56936  0.15180  Biso   1.000  C
  H1041    1.0000 0.99810  0.56520  0.17100  Biso   1.000  H
  N1567    1.0000 0.00431  0.55296  0.12960  Biso   1.000  N
  C1042    1.0000 0.04550  0.52194  0.12321  Biso   1.000  C
  H1042    1.0000 0.05790  0.53490  0.11480  Biso   1.000  H
  N1568    1.0000 0.06178  0.35676  0.01847  Biso   1.000  N
  N1569    1.0000 0.06348  0.37768  0.05954  Biso   1.000  N
  N1570    1.0000 0.07428  0.33835  0.03825  Biso   1.000  N
  N1571    1.0000 0.06123  0.39859  0.07989  Biso   1.000  N
  C1043    1.0000 0.03908  0.40275  0.09811  Biso   1.000  C
  H1043    1.0000 0.02260  0.39180  0.09890  Biso   1.000  H
  C1044    1.0000 0.07490  0.35136  0.06267  Biso   1.000  C
  H1044    1.0000 0.08200  0.34380  0.07950  Biso   1.000  H
  C1045    1.0000 0.08128  0.41867  0.08595  Biso   1.000  C
  H1045    1.0000 0.09870  0.42070  0.07680  Biso   1.000  H
  C1046    1.0000 0.00752  0.50281  0.14231  Biso   1.000  C
  H1046    1.0000 0.98910  0.50030  0.14920  Biso   1.000  H
  C1047    1.0000 0.99666  0.56645  0.10536  Biso   1.000  C
  H1047    1.0000 0.99970  0.55980  0.08700  Biso   1.000  H
  C1048    1.0000 0.05521  0.38009  0.03190  Biso   1.000  C
  H1048    1.0000 0.04630  0.39580  0.02390  Biso   1.000  H
  N1572    1.0000 0.01815  0.52729  0.13144  Biso   1.000  N
  Cu263    1.0000 0.08720  0.97050  0.62331  Biso   1.000  Cu
  Cu264    1.0000 0.02457  0.94205  0.64996  Biso   1.000  Cu
  N1573    1.0000 0.02719  0.98353  0.64154  Biso   1.000  N
  N1574    1.0000 0.05120  0.99548  0.62914  Biso   1.000  N
  N1575    1.0000 0.07193  0.93459  0.60658  Biso   1.000  N
  N1576    1.0000 0.04486  0.92447  0.61409  Biso   1.000  N
  N1577    1.0000 0.98323  0.09201  0.64161  Biso   1.000  N
  N1578    1.0000 0.98427  0.09033  0.61205  Biso   1.000  N
  C1049    1.0000 0.99564  0.06936  0.65180  Biso   1.000  C
  H1049    1.0000 0.99810  0.06520  0.67100  Biso   1.000  H
  N1579    1.0000 0.00431  0.05296  0.62960  Biso   1.000  N
  C1050    1.0000 0.04550  0.02194  0.62321  Biso   1.000  C
  H1050    1.0000 0.05790  0.03490  0.61480  Biso   1.000  H
  N1580    1.0000 0.06178  0.85676  0.51847  Biso   1.000  N
  N1581    1.0000 0.06348  0.87768  0.55954  Biso   1.000  N
  N1582    1.0000 0.07428  0.83835  0.53825  Biso   1.000  N
  N1583    1.0000 0.06123  0.89859  0.57989  Biso   1.000  N
  C1051    1.0000 0.03908  0.90275  0.59811  Biso   1.000  C
  H1051    1.0000 0.02260  0.89180  0.59890  Biso   1.000  H
  C1052    1.0000 0.07490  0.85136  0.56267  Biso   1.000  C
  H1052    1.0000 0.08200  0.84380  0.57950  Biso   1.000  H
  C1053    1.0000 0.08128  0.91867  0.58595  Biso   1.000  C
  H1053    1.0000 0.09870  0.92070  0.57680  Biso   1.000  H
  C1054    1.0000 0.00752  0.00281  0.64231  Biso   1.000  C
  H1054    1.0000 0.98910  0.00030  0.64920  Biso   1.000  H
  C1055    1.0000 0.99666  0.06645  0.60536  Biso   1.000  C
  H1055    1.0000 0.99970  0.05980  0.58700  Biso   1.000  H
  C1056    1.0000 0.05521  0.88009  0.53190  Biso   1.000  C
  H1056    1.0000 0.04630  0.89580  0.52390  Biso   1.000  H
  N1584    1.0000 0.01815  0.02729  0.63144  Biso   1.000  N
  Cu265    1.0000 0.66280  0.97050  0.12669  Biso   1.000  Cu
  Cu266    1.0000 0.72543  0.94205  0.10004  Biso   1.000  Cu
  N1585    1.0000 0.72281  0.98353  0.10846  Biso   1.000  N
  N1586    1.0000 0.69880  0.99548  0.12086  Biso   1.000  N
  N1587    1.0000 0.67807  0.93459  0.14342  Biso   1.000  N
  N1588    1.0000 0.70514  0.92447  0.13591  Biso   1.000  N
  N1589    1.0000 0.76677  0.09201  0.10839  Biso   1.000  N
  N1590    1.0000 0.76573  0.09033  0.13795  Biso   1.000  N
  C1057    1.0000 0.75436  0.06936  0.09820  Biso   1.000  C
  H1057    1.0000 0.75190  0.06520  0.07900  Biso   1.000  H
  N1591    1.0000 0.74569  0.05296  0.12040  Biso   1.000  N
  C1058    1.0000 0.70450  0.02194  0.12679  Biso   1.000  C
  H1058    1.0000 0.69210  0.03490  0.13520  Biso   1.000  H
  N1592    1.0000 0.68822  0.85676  0.23153  Biso   1.000  N
  N1593    1.0000 0.68652  0.87768  0.19046  Biso   1.000  N
  N1594    1.0000 0.67572  0.83835  0.21175  Biso   1.000  N
  N1595    1.0000 0.68877  0.89859  0.17011  Biso   1.000  N
  C1059    1.0000 0.71092  0.90275  0.15189  Biso   1.000  C
  H1059    1.0000 0.72740  0.89180  0.15110  Biso   1.000  H
  C1060    1.0000 0.67510  0.85136  0.18733  Biso   1.000  C
  H1060    1.0000 0.66800  0.84380  0.17050  Biso   1.000  H
  C1061    1.0000 0.66872  0.91867  0.16405  Biso   1.000  C
  H1061    1.0000 0.65130  0.92070  0.17320  Biso   1.000  H
  C1062    1.0000 0.74248  0.00281  0.10769  Biso   1.000  C
  H1062    1.0000 0.76090  0.00030  0.10080  Biso   1.000  H
  C1063    1.0000 0.75334  0.06645  0.14464  Biso   1.000  C
  H1063    1.0000 0.75030  0.05980  0.16300  Biso   1.000  H
  C1064    1.0000 0.69479  0.88009  0.21810  Biso   1.000  C
  H1064    1.0000 0.70370  0.89580  0.22610  Biso   1.000  H
  N1596    1.0000 0.73185  0.02729  0.11856  Biso   1.000  N
  Cu267    1.0000 0.66280  0.47050  0.62669  Biso   1.000  Cu
  Cu268    1.0000 0.72543  0.44205  0.60004  Biso   1.000  Cu
  N1597    1.0000 0.72281  0.48353  0.60846  Biso   1.000  N
  N1598    1.0000 0.69880  0.49548  0.62086  Biso   1.000  N
  N1599    1.0000 0.67807  0.43459  0.64342  Biso   1.000  N
  N1600    1.0000 0.70514  0.42447  0.63591  Biso   1.000  N
  N1601    1.0000 0.76677  0.59201  0.60839  Biso   1.000  N
  N1602    1.0000 0.76573  0.59033  0.63795  Biso   1.000  N
  C1065    1.0000 0.75436  0.56936  0.59820  Biso   1.000  C
  H1065    1.0000 0.75190  0.56520  0.57900  Biso   1.000  H
  N1603    1.0000 0.74569  0.55296  0.62040  Biso   1.000  N
  C1066    1.0000 0.70450  0.52194  0.62679  Biso   1.000  C
  H1066    1.0000 0.69210  0.53490  0.63520  Biso   1.000  H
  N1604    1.0000 0.68822  0.35676  0.73153  Biso   1.000  N
  N1605    1.0000 0.68652  0.37768  0.69046  Biso   1.000  N
  N1606    1.0000 0.67572  0.33835  0.71175  Biso   1.000  N
  N1607    1.0000 0.68877  0.39859  0.67011  Biso   1.000  N
  C1067    1.0000 0.71092  0.40275  0.65189  Biso   1.000  C
  H1067    1.0000 0.72740  0.39180  0.65110  Biso   1.000  H
  C1068    1.0000 0.67510  0.35136  0.68733  Biso   1.000  C
  H1068    1.0000 0.66800  0.34380  0.67050  Biso   1.000  H
  C1069    1.0000 0.66872  0.41867  0.66405  Biso   1.000  C
  H1069    1.0000 0.65130  0.42070  0.67320  Biso   1.000  H
  C1070    1.0000 0.74248  0.50281  0.60769  Biso   1.000  C
  H1070    1.0000 0.76090  0.50030  0.60080  Biso   1.000  H
  C1071    1.0000 0.75334  0.56645  0.64464  Biso   1.000  C
  H1071    1.0000 0.75030  0.55980  0.66300  Biso   1.000  H
  C1072    1.0000 0.69479  0.38009  0.71810  Biso   1.000  C
  H1072    1.0000 0.70370  0.39580  0.72610  Biso   1.000  H
  N1608    1.0000 0.73185  0.52729  0.61856  Biso   1.000  N
  Cu269    1.0000 0.16280  0.97050  0.62669  Biso   1.000  Cu
  Cu270    1.0000 0.22543  0.94205  0.60004  Biso   1.000  Cu
  N1609    1.0000 0.22281  0.98353  0.60846  Biso   1.000  N
  N1610    1.0000 0.19880  0.99548  0.62086  Biso   1.000  N
  N1611    1.0000 0.17807  0.93459  0.64342  Biso   1.000  N
  N1612    1.0000 0.20514  0.92447  0.63591  Biso   1.000  N
  N1613    1.0000 0.26677  0.09201  0.60839  Biso   1.000  N
  N1614    1.0000 0.26573  0.09033  0.63795  Biso   1.000  N
  C1073    1.0000 0.25436  0.06936  0.59820  Biso   1.000  C
  H1073    1.0000 0.25190  0.06520  0.57900  Biso   1.000  H
  N1615    1.0000 0.24569  0.05296  0.62040  Biso   1.000  N
  C1074    1.0000 0.20450  0.02194  0.62679  Biso   1.000  C
  H1074    1.0000 0.19210  0.03490  0.63520  Biso   1.000  H
  N1616    1.0000 0.18822  0.85676  0.73153  Biso   1.000  N
  N1617    1.0000 0.18652  0.87768  0.69046  Biso   1.000  N
  N1618    1.0000 0.17572  0.83835  0.71175  Biso   1.000  N
  N1619    1.0000 0.18877  0.89859  0.67011  Biso   1.000  N
  C1075    1.0000 0.21092  0.90275  0.65189  Biso   1.000  C
  H1075    1.0000 0.22740  0.89180  0.65110  Biso   1.000  H
  C1076    1.0000 0.17510  0.85136  0.68733  Biso   1.000  C
  H1076    1.0000 0.16800  0.84380  0.67050  Biso   1.000  H
  C1077    1.0000 0.16872  0.91867  0.66405  Biso   1.000  C
  H1077    1.0000 0.15130  0.92070  0.67320  Biso   1.000  H
  C1078    1.0000 0.24248  0.00281  0.60769  Biso   1.000  C
  H1078    1.0000 0.26090  0.00030  0.60080  Biso   1.000  H
  C1079    1.0000 0.25334  0.06645  0.64464  Biso   1.000  C
  H1079    1.0000 0.25030  0.05980  0.66300  Biso   1.000  H
  C1080    1.0000 0.19479  0.88009  0.71810  Biso   1.000  C
  H1080    1.0000 0.20370  0.89580  0.72610  Biso   1.000  H
  N1620    1.0000 0.23185  0.02729  0.61856  Biso   1.000  N
  Cu271    1.0000 0.16280  0.47050  0.12669  Biso   1.000  Cu
  Cu272    1.0000 0.22543  0.44205  0.10004  Biso   1.000  Cu
  N1621    1.0000 0.22281  0.48353  0.10846  Biso   1.000  N
  N1622    1.0000 0.19880  0.49548  0.12086  Biso   1.000  N
  N1623    1.0000 0.17807  0.43459  0.14342  Biso   1.000  N
  N1624    1.0000 0.20514  0.42447  0.13591  Biso   1.000  N
  N1625    1.0000 0.26677  0.59201  0.10839  Biso   1.000  N
  N1626    1.0000 0.26573  0.59033  0.13795  Biso   1.000  N
  C1081    1.0000 0.25436  0.56936  0.09820  Biso   1.000  C
  H1081    1.0000 0.25190  0.56520  0.07900  Biso   1.000  H
  N1627    1.0000 0.24569  0.55296  0.12040  Biso   1.000  N
  C1082    1.0000 0.20450  0.52194  0.12679  Biso   1.000  C
  H1082    1.0000 0.19210  0.53490  0.13520  Biso   1.000  H
  N1628    1.0000 0.18822  0.35676  0.23153  Biso   1.000  N
  N1629    1.0000 0.18652  0.37768  0.19046  Biso   1.000  N
  N1630    1.0000 0.17572  0.33835  0.21175  Biso   1.000  N
  N1631    1.0000 0.18877  0.39859  0.17011  Biso   1.000  N
  C1083    1.0000 0.21092  0.40275  0.15189  Biso   1.000  C
  H1083    1.0000 0.22740  0.39180  0.15110  Biso   1.000  H
  C1084    1.0000 0.17510  0.35136  0.18733  Biso   1.000  C
  H1084    1.0000 0.16800  0.34380  0.17050  Biso   1.000  H
  C1085    1.0000 0.16872  0.41867  0.16405  Biso   1.000  C
  H1085    1.0000 0.15130  0.42070  0.17320  Biso   1.000  H
  C1086    1.0000 0.24248  0.50281  0.10769  Biso   1.000  C
  H1086    1.0000 0.26090  0.50030  0.10080  Biso   1.000  H
  C1087    1.0000 0.25334  0.56645  0.14464  Biso   1.000  C
  H1087    1.0000 0.25030  0.55980  0.16300  Biso   1.000  H
  C1088    1.0000 0.19479  0.38009  0.21810  Biso   1.000  C
  H1088    1.0000 0.20370  0.39580  0.22610  Biso   1.000  H
  N1632    1.0000 0.23185  0.52729  0.11856  Biso   1.000  N
  Cu273    1.0000 0.08720  0.27951  0.62669  Biso   1.000  Cu
  Cu274    1.0000 0.02457  0.30795  0.60004  Biso   1.000  Cu
  N1633    1.0000 0.02719  0.26647  0.60846  Biso   1.000  N
  N1634    1.0000 0.05120  0.25452  0.62086  Biso   1.000  N
  N1635    1.0000 0.07193  0.31541  0.64342  Biso   1.000  N
  N1636    1.0000 0.04486  0.32553  0.63591  Biso   1.000  N
  N1637    1.0000 0.98323  0.15799  0.60839  Biso   1.000  N
  N1638    1.0000 0.98427  0.15967  0.63795  Biso   1.000  N
  C1089    1.0000 0.99564  0.18064  0.59820  Biso   1.000  C
  H1089    1.0000 0.99810  0.18480  0.57900  Biso   1.000  H
  N1639    1.0000 0.00431  0.19704  0.62040  Biso   1.000  N
  C1090    1.0000 0.04550  0.22806  0.62679  Biso   1.000  C
  H1090    1.0000 0.05790  0.21510  0.63520  Biso   1.000  H
  N1640    1.0000 0.06178  0.39324  0.73153  Biso   1.000  N
  N1641    1.0000 0.06348  0.37232  0.69046  Biso   1.000  N
  N1642    1.0000 0.07428  0.41165  0.71175  Biso   1.000  N
  N1643    1.0000 0.06123  0.35141  0.67011  Biso   1.000  N
  C1091    1.0000 0.03908  0.34725  0.65189  Biso   1.000  C
  H1091    1.0000 0.02260  0.35820  0.65110  Biso   1.000  H
  C1092    1.0000 0.07490  0.39864  0.68733  Biso   1.000  C
  H1092    1.0000 0.08200  0.40620  0.67050  Biso   1.000  H
  C1093    1.0000 0.08128  0.33133  0.66405  Biso   1.000  C
  H1093    1.0000 0.09870  0.32930  0.67320  Biso   1.000  H
  C1094    1.0000 0.00752  0.24719  0.60769  Biso   1.000  C
  H1094    1.0000 0.98910  0.24970  0.60080  Biso   1.000  H
  C1095    1.0000 0.99666  0.18355  0.64464  Biso   1.000  C
  H1095    1.0000 0.99970  0.19020  0.66300  Biso   1.000  H
  C1096    1.0000 0.05521  0.36991  0.71810  Biso   1.000  C
  H1096    1.0000 0.04630  0.35420  0.72610  Biso   1.000  H
  N1644    1.0000 0.01815  0.22271  0.61856  Biso   1.000  N
  Cu275    1.0000 0.08720  0.77951  0.12669  Biso   1.000  Cu
  Cu276    1.0000 0.02457  0.80795  0.10004  Biso   1.000  Cu
  N1645    1.0000 0.02719  0.76647  0.10846  Biso   1.000  N
  N1646    1.0000 0.05120  0.75452  0.12086  Biso   1.000  N
  N1647    1.0000 0.07193  0.81541  0.14342  Biso   1.000  N
  N1648    1.0000 0.04486  0.82553  0.13591  Biso   1.000  N
  N1649    1.0000 0.98323  0.65799  0.10839  Biso   1.000  N
  N1650    1.0000 0.98427  0.65967  0.13795  Biso   1.000  N
  C1097    1.0000 0.99564  0.68064  0.09820  Biso   1.000  C
  H1097    1.0000 0.99810  0.68480  0.07900  Biso   1.000  H
  N1651    1.0000 0.00431  0.69704  0.12040  Biso   1.000  N
  C1098    1.0000 0.04550  0.72806  0.12679  Biso   1.000  C
  H1098    1.0000 0.05790  0.71510  0.13520  Biso   1.000  H
  N1652    1.0000 0.06178  0.89324  0.23153  Biso   1.000  N
  N1653    1.0000 0.06348  0.87232  0.19046  Biso   1.000  N
  N1654    1.0000 0.07428  0.91165  0.21175  Biso   1.000  N
  N1655    1.0000 0.06123  0.85141  0.17011  Biso   1.000  N
  C1099    1.0000 0.03908  0.84725  0.15189  Biso   1.000  C
  H1099    1.0000 0.02260  0.85820  0.15110  Biso   1.000  H
  C1100    1.0000 0.07490  0.89864  0.18733  Biso   1.000  C
  H1100    1.0000 0.08200  0.90620  0.17050  Biso   1.000  H
  C1101    1.0000 0.08128  0.83133  0.16405  Biso   1.000  C
  H1101    1.0000 0.09870  0.82930  0.17320  Biso   1.000  H
  C1102    1.0000 0.00752  0.74719  0.10769  Biso   1.000  C
  H1102    1.0000 0.98910  0.74970  0.10080  Biso   1.000  H
  C1103    1.0000 0.99666  0.68355  0.14464  Biso   1.000  C
  H1103    1.0000 0.99970  0.69020  0.16300  Biso   1.000  H
  C1104    1.0000 0.05521  0.86991  0.21810  Biso   1.000  C
  H1104    1.0000 0.04630  0.85420  0.22610  Biso   1.000  H
  N1656    1.0000 0.01815  0.72271  0.11856  Biso   1.000  N
  Cu277    1.0000 0.58720  0.27951  0.12669  Biso   1.000  Cu
  Cu278    1.0000 0.52457  0.30795  0.10004  Biso   1.000  Cu
  N1657    1.0000 0.52719  0.26647  0.10846  Biso   1.000  N
  N1658    1.0000 0.55120  0.25452  0.12086  Biso   1.000  N
  N1659    1.0000 0.57193  0.31541  0.14342  Biso   1.000  N
  N1660    1.0000 0.54486  0.32553  0.13591  Biso   1.000  N
  N1661    1.0000 0.48323  0.15799  0.10839  Biso   1.000  N
  N1662    1.0000 0.48427  0.15967  0.13795  Biso   1.000  N
  C1105    1.0000 0.49564  0.18064  0.09820  Biso   1.000  C
  H1105    1.0000 0.49810  0.18480  0.07900  Biso   1.000  H
  N1663    1.0000 0.50431  0.19704  0.12040  Biso   1.000  N
  C1106    1.0000 0.54550  0.22806  0.12679  Biso   1.000  C
  H1106    1.0000 0.55790  0.21510  0.13520  Biso   1.000  H
  N1664    1.0000 0.56178  0.39324  0.23153  Biso   1.000  N
  N1665    1.0000 0.56348  0.37232  0.19046  Biso   1.000  N
  N1666    1.0000 0.57428  0.41165  0.21175  Biso   1.000  N
  N1667    1.0000 0.56123  0.35141  0.17011  Biso   1.000  N
  C1107    1.0000 0.53908  0.34725  0.15189  Biso   1.000  C
  H1107    1.0000 0.52260  0.35820  0.15110  Biso   1.000  H
  C1108    1.0000 0.57490  0.39864  0.18733  Biso   1.000  C
  H1108    1.0000 0.58200  0.40620  0.17050  Biso   1.000  H
  C1109    1.0000 0.58128  0.33133  0.16405  Biso   1.000  C
  H1109    1.0000 0.59870  0.32930  0.17320  Biso   1.000  H
  C1110    1.0000 0.50752  0.24719  0.10769  Biso   1.000  C
  H1110    1.0000 0.48910  0.24970  0.10080  Biso   1.000  H
  C1111    1.0000 0.49666  0.18355  0.14464  Biso   1.000  C
  H1111    1.0000 0.49970  0.19020  0.16300  Biso   1.000  H
  C1112    1.0000 0.55521  0.36991  0.21810  Biso   1.000  C
  H1112    1.0000 0.54630  0.35420  0.22610  Biso   1.000  H
  N1668    1.0000 0.51815  0.22271  0.11856  Biso   1.000  N
  Cu279    1.0000 0.58720  0.77951  0.62669  Biso   1.000  Cu
  Cu280    1.0000 0.52457  0.80795  0.60004  Biso   1.000  Cu
  N1669    1.0000 0.52719  0.76647  0.60846  Biso   1.000  N
  N1670    1.0000 0.55120  0.75452  0.62086  Biso   1.000  N
  N1671    1.0000 0.57193  0.81541  0.64342  Biso   1.000  N
  N1672    1.0000 0.54486  0.82553  0.63591  Biso   1.000  N
  N1673    1.0000 0.48323  0.65799  0.60839  Biso   1.000  N
  N1674    1.0000 0.48427  0.65967  0.63795  Biso   1.000  N
  C1113    1.0000 0.49564  0.68064  0.59820  Biso   1.000  C
  H1113    1.0000 0.49810  0.68480  0.57900  Biso   1.000  H
  N1675    1.0000 0.50431  0.69704  0.62040  Biso   1.000  N
  C1114    1.0000 0.54550  0.72806  0.62679  Biso   1.000  C
  H1114    1.0000 0.55790  0.71510  0.63520  Biso   1.000  H
  N1676    1.0000 0.56178  0.89324  0.73153  Biso   1.000  N
  N1677    1.0000 0.56348  0.87232  0.69046  Biso   1.000  N
  N1678    1.0000 0.57428  0.91165  0.71175  Biso   1.000  N
  N1679    1.0000 0.56123  0.85141  0.67011  Biso   1.000  N
  C1115    1.0000 0.53908  0.84725  0.65189  Biso   1.000  C
  H1115    1.0000 0.52260  0.85820  0.65110  Biso   1.000  H
  C1116    1.0000 0.57490  0.89864  0.68733  Biso   1.000  C
  H1116    1.0000 0.58200  0.90620  0.67050  Biso   1.000  H
  C1117    1.0000 0.58128  0.83133  0.66405  Biso   1.000  C
  H1117    1.0000 0.59870  0.82930  0.67320  Biso   1.000  H
  C1118    1.0000 0.50752  0.74719  0.60769  Biso   1.000  C
  H1118    1.0000 0.48910  0.74970  0.60080  Biso   1.000  H
  C1119    1.0000 0.49666  0.68355  0.64464  Biso   1.000  C
  H1119    1.0000 0.49970  0.69020  0.66300  Biso   1.000  H
  C1120    1.0000 0.55521  0.86991  0.71810  Biso   1.000  C
  H1120    1.0000 0.54630  0.85420  0.72610  Biso   1.000  H
  N1680    1.0000 0.51815  0.72271  0.61856  Biso   1.000  N
  Cu281    1.0000 0.16280  0.77951  0.12331  Biso   1.000  Cu
  Cu282    1.0000 0.22543  0.80795  0.14996  Biso   1.000  Cu
  N1681    1.0000 0.22281  0.76647  0.14154  Biso   1.000  N
  N1682    1.0000 0.19880  0.75452  0.12914  Biso   1.000  N
  N1683    1.0000 0.17807  0.81541  0.10658  Biso   1.000  N
  N1684    1.0000 0.20514  0.82553  0.11409  Biso   1.000  N
  N1685    1.0000 0.26677  0.65799  0.14161  Biso   1.000  N
  N1686    1.0000 0.26573  0.65967  0.11205  Biso   1.000  N
  C1121    1.0000 0.25436  0.68064  0.15180  Biso   1.000  C
  H1121    1.0000 0.25190  0.68480  0.17100  Biso   1.000  H
  N1687    1.0000 0.24569  0.69704  0.12960  Biso   1.000  N
  C1122    1.0000 0.20450  0.72806  0.12321  Biso   1.000  C
  H1122    1.0000 0.19210  0.71510  0.11480  Biso   1.000  H
  N1688    1.0000 0.18822  0.89324  0.01847  Biso   1.000  N
  N1689    1.0000 0.18652  0.87232  0.05954  Biso   1.000  N
  N1690    1.0000 0.17572  0.91165  0.03825  Biso   1.000  N
  N1691    1.0000 0.18877  0.85141  0.07989  Biso   1.000  N
  C1123    1.0000 0.21092  0.84725  0.09811  Biso   1.000  C
  H1123    1.0000 0.22740  0.85820  0.09890  Biso   1.000  H
  C1124    1.0000 0.17510  0.89864  0.06267  Biso   1.000  C
  H1124    1.0000 0.16800  0.90620  0.07950  Biso   1.000  H
  C1125    1.0000 0.16872  0.83133  0.08595  Biso   1.000  C
  H1125    1.0000 0.15130  0.82930  0.07680  Biso   1.000  H
  C1126    1.0000 0.24248  0.74719  0.14231  Biso   1.000  C
  H1126    1.0000 0.26090  0.74970  0.14920  Biso   1.000  H
  C1127    1.0000 0.25334  0.68355  0.10536  Biso   1.000  C
  H1127    1.0000 0.25030  0.69020  0.08700  Biso   1.000  H
  C1128    1.0000 0.19479  0.86991  0.03190  Biso   1.000  C
  H1128    1.0000 0.20370  0.85420  0.02390  Biso   1.000  H
  N1692    1.0000 0.23185  0.72271  0.13144  Biso   1.000  N
  Cu283    1.0000 0.16280  0.27951  0.62331  Biso   1.000  Cu
  Cu284    1.0000 0.22543  0.30795  0.64996  Biso   1.000  Cu
  N1693    1.0000 0.22281  0.26647  0.64154  Biso   1.000  N
  N1694    1.0000 0.19880  0.25452  0.62914  Biso   1.000  N
  N1695    1.0000 0.17807  0.31541  0.60658  Biso   1.000  N
  N1696    1.0000 0.20514  0.32553  0.61409  Biso   1.000  N
  N1697    1.0000 0.26677  0.15799  0.64161  Biso   1.000  N
  N1698    1.0000 0.26573  0.15967  0.61205  Biso   1.000  N
  C1129    1.0000 0.25436  0.18064  0.65180  Biso   1.000  C
  H1129    1.0000 0.25190  0.18480  0.67100  Biso   1.000  H
  N1699    1.0000 0.24569  0.19704  0.62960  Biso   1.000  N
  C1130    1.0000 0.20450  0.22806  0.62321  Biso   1.000  C
  H1130    1.0000 0.19210  0.21510  0.61480  Biso   1.000  H
  N1700    1.0000 0.18822  0.39324  0.51847  Biso   1.000  N
  N1701    1.0000 0.18652  0.37232  0.55954  Biso   1.000  N
  N1702    1.0000 0.17572  0.41165  0.53825  Biso   1.000  N
  N1703    1.0000 0.18877  0.35141  0.57989  Biso   1.000  N
  C1131    1.0000 0.21092  0.34725  0.59811  Biso   1.000  C
  H1131    1.0000 0.22740  0.35820  0.59890  Biso   1.000  H
  C1132    1.0000 0.17510  0.39864  0.56267  Biso   1.000  C
  H1132    1.0000 0.16800  0.40620  0.57950  Biso   1.000  H
  C1133    1.0000 0.16872  0.33133  0.58595  Biso   1.000  C
  H1133    1.0000 0.15130  0.32930  0.57680  Biso   1.000  H
  C1134    1.0000 0.24248  0.24719  0.64231  Biso   1.000  C
  H1134    1.0000 0.26090  0.24970  0.64920  Biso   1.000  H
  C1135    1.0000 0.25334  0.18355  0.60536  Biso   1.000  C
  H1135    1.0000 0.25030  0.19020  0.58700  Biso   1.000  H
  C1136    1.0000 0.19479  0.36991  0.53190  Biso   1.000  C
  H1136    1.0000 0.20370  0.35420  0.52390  Biso   1.000  H
  N1704    1.0000 0.23185  0.22271  0.63144  Biso   1.000  N
  Cu285    1.0000 0.66280  0.77951  0.62331  Biso   1.000  Cu
  Cu286    1.0000 0.72543  0.80795  0.64996  Biso   1.000  Cu
  N1705    1.0000 0.72281  0.76647  0.64154  Biso   1.000  N
  N1706    1.0000 0.69880  0.75452  0.62914  Biso   1.000  N
  N1707    1.0000 0.67807  0.81541  0.60658  Biso   1.000  N
  N1708    1.0000 0.70514  0.82553  0.61409  Biso   1.000  N
  N1709    1.0000 0.76677  0.65799  0.64161  Biso   1.000  N
  N1710    1.0000 0.76573  0.65967  0.61205  Biso   1.000  N
  C1137    1.0000 0.75436  0.68064  0.65180  Biso   1.000  C
  H1137    1.0000 0.75190  0.68480  0.67100  Biso   1.000  H
  N1711    1.0000 0.74569  0.69704  0.62960  Biso   1.000  N
  C1138    1.0000 0.70450  0.72806  0.62321  Biso   1.000  C
  H1138    1.0000 0.69210  0.71510  0.61480  Biso   1.000  H
  N1712    1.0000 0.68822  0.89324  0.51847  Biso   1.000  N
  N1713    1.0000 0.68652  0.87232  0.55954  Biso   1.000  N
  N1714    1.0000 0.67572  0.91165  0.53825  Biso   1.000  N
  N1715    1.0000 0.68877  0.85141  0.57989  Biso   1.000  N
  C1139    1.0000 0.71092  0.84725  0.59811  Biso   1.000  C
  H1139    1.0000 0.72740  0.85820  0.59890  Biso   1.000  H
  C1140    1.0000 0.67510  0.89864  0.56267  Biso   1.000  C
  H1140    1.0000 0.66800  0.90620  0.57950  Biso   1.000  H
  C1141    1.0000 0.66872  0.83133  0.58595  Biso   1.000  C
  H1141    1.0000 0.65130  0.82930  0.57680  Biso   1.000  H
  C1142    1.0000 0.74248  0.74719  0.64231  Biso   1.000  C
  H1142    1.0000 0.76090  0.74970  0.64920  Biso   1.000  H
  C1143    1.0000 0.75334  0.68355  0.60536  Biso   1.000  C
  H1143    1.0000 0.75030  0.69020  0.58700  Biso   1.000  H
  C1144    1.0000 0.69479  0.86991  0.53190  Biso   1.000  C
  H1144    1.0000 0.70370  0.85420  0.52390  Biso   1.000  H
  N1716    1.0000 0.73185  0.72271  0.63144  Biso   1.000  N
  Cu287    1.0000 0.66280  0.27951  0.12331  Biso   1.000  Cu
  Cu288    1.0000 0.72543  0.30795  0.14996  Biso   1.000  Cu
  N1717    1.0000 0.72281  0.26647  0.14154  Biso   1.000  N
  N1718    1.0000 0.69880  0.25452  0.12914  Biso   1.000  N
  N1719    1.0000 0.67807  0.31541  0.10658  Biso   1.000  N
  N1720    1.0000 0.70514  0.32553  0.11409  Biso   1.000  N
  N1721    1.0000 0.76677  0.15799  0.14161  Biso   1.000  N
  N1722    1.0000 0.76573  0.15967  0.11205  Biso   1.000  N
  C1145    1.0000 0.75436  0.18064  0.15180  Biso   1.000  C
  H1145    1.0000 0.75190  0.18480  0.17100  Biso   1.000  H
  N1723    1.0000 0.74569  0.19704  0.12960  Biso   1.000  N
  C1146    1.0000 0.70450  0.22806  0.12321  Biso   1.000  C
  H1146    1.0000 0.69210  0.21510  0.11480  Biso   1.000  H
  N1724    1.0000 0.68822  0.39324  0.01847  Biso   1.000  N
  N1725    1.0000 0.68652  0.37232  0.05954  Biso   1.000  N
  N1726    1.0000 0.67572  0.41165  0.03825  Biso   1.000  N
  N1727    1.0000 0.68877  0.35141  0.07989  Biso   1.000  N
  C1147    1.0000 0.71092  0.34725  0.09811  Biso   1.000  C
  H1147    1.0000 0.72740  0.35820  0.09890  Biso   1.000  H
  C1148    1.0000 0.67510  0.39864  0.06267  Biso   1.000  C
  H1148    1.0000 0.66800  0.40620  0.07950  Biso   1.000  H
  C1149    1.0000 0.66872  0.33133  0.08595  Biso   1.000  C
  H1149    1.0000 0.65130  0.32930  0.07680  Biso   1.000  H
  C1150    1.0000 0.74248  0.24719  0.14231  Biso   1.000  C
  H1150    1.0000 0.76090  0.24970  0.14920  Biso   1.000  H
  C1151    1.0000 0.75334  0.18355  0.10536  Biso   1.000  C
  H1151    1.0000 0.75030  0.19020  0.08700  Biso   1.000  H
  C1152    1.0000 0.69479  0.36991  0.03190  Biso   1.000  C
  H1152    1.0000 0.70370  0.35420  0.02390  Biso   1.000  H
  N1728    1.0000 0.73185  0.22271  0.13144  Biso   1.000  N
  Cu289    1.0000 0.83720  0.37331  0.52951  Biso   1.000  Cu
  Cu290    1.0000 0.77457  0.39996  0.55795  Biso   1.000  Cu
  N1729    1.0000 0.77719  0.39154  0.51647  Biso   1.000  N
  N1730    1.0000 0.80120  0.37914  0.50452  Biso   1.000  N
  N1731    1.0000 0.82193  0.35658  0.56541  Biso   1.000  N
  N1732    1.0000 0.79486  0.36409  0.57553  Biso   1.000  N
  N1733    1.0000 0.73323  0.39161  0.40799  Biso   1.000  N
  N1734    1.0000 0.73427  0.36205  0.40967  Biso   1.000  N
  C1153    1.0000 0.74564  0.40180  0.43064  Biso   1.000  C
  H1153    1.0000 0.74810  0.42100  0.43480  Biso   1.000  H
  N1735    1.0000 0.75431  0.37960  0.44704  Biso   1.000  N
  C1154    1.0000 0.79550  0.37321  0.47806  Biso   1.000  C
  H1154    1.0000 0.80790  0.36480  0.46510  Biso   1.000  H
  N1736    1.0000 0.81178  0.26847  0.64324  Biso   1.000  N
  N1737    1.0000 0.81348  0.30954  0.62232  Biso   1.000  N
  N1738    1.0000 0.82428  0.28825  0.66165  Biso   1.000  N
  N1739    1.0000 0.81123  0.32989  0.60141  Biso   1.000  N
  C1155    1.0000 0.78908  0.34811  0.59725  Biso   1.000  C
  H1155    1.0000 0.77260  0.34890  0.60820  Biso   1.000  H
  C1156    1.0000 0.82490  0.31267  0.64864  Biso   1.000  C
  H1156    1.0000 0.83200  0.32950  0.65620  Biso   1.000  H
  C1157    1.0000 0.83128  0.33595  0.58133  Biso   1.000  C
  H1157    1.0000 0.84870  0.32680  0.57930  Biso   1.000  H
  C1158    1.0000 0.75752  0.39231  0.49719  Biso   1.000  C
  H1158    1.0000 0.73910  0.39920  0.49970  Biso   1.000  H
  C1159    1.0000 0.74666  0.35536  0.43355  Biso   1.000  C
  H1159    1.0000 0.74970  0.33700  0.44020  Biso   1.000  H
  C1160    1.0000 0.80521  0.28190  0.61991  Biso   1.000  C
  H1160    1.0000 0.79630  0.27390  0.60420  Biso   1.000  H
  N1740    1.0000 0.76815  0.38144  0.47271  Biso   1.000  N
  Cu291    1.0000 0.83720  0.87331  0.02951  Biso   1.000  Cu
  Cu292    1.0000 0.77457  0.89996  0.05795  Biso   1.000  Cu
  N1741    1.0000 0.77719  0.89154  0.01647  Biso   1.000  N
  N1742    1.0000 0.80120  0.87914  0.00452  Biso   1.000  N
  N1743    1.0000 0.82193  0.85658  0.06541  Biso   1.000  N
  N1744    1.0000 0.79486  0.86409  0.07553  Biso   1.000  N
  N1745    1.0000 0.73323  0.89161  0.90799  Biso   1.000  N
  N1746    1.0000 0.73427  0.86205  0.90967  Biso   1.000  N
  C1161    1.0000 0.74564  0.90180  0.93064  Biso   1.000  C
  H1161    1.0000 0.74810  0.92100  0.93480  Biso   1.000  H
  N1747    1.0000 0.75431  0.87960  0.94704  Biso   1.000  N
  C1162    1.0000 0.79550  0.87321  0.97806  Biso   1.000  C
  H1162    1.0000 0.80790  0.86480  0.96510  Biso   1.000  H
  N1748    1.0000 0.81178  0.76847  0.14324  Biso   1.000  N
  N1749    1.0000 0.81348  0.80954  0.12232  Biso   1.000  N
  N1750    1.0000 0.82428  0.78825  0.16165  Biso   1.000  N
  N1751    1.0000 0.81123  0.82989  0.10141  Biso   1.000  N
  C1163    1.0000 0.78908  0.84811  0.09725  Biso   1.000  C
  H1163    1.0000 0.77260  0.84890  0.10820  Biso   1.000  H
  C1164    1.0000 0.82490  0.81267  0.14864  Biso   1.000  C
  H1164    1.0000 0.83200  0.82950  0.15620  Biso   1.000  H
  C1165    1.0000 0.83128  0.83595  0.08133  Biso   1.000  C
  H1165    1.0000 0.84870  0.82680  0.07930  Biso   1.000  H
  C1166    1.0000 0.75752  0.89231  0.99719  Biso   1.000  C
  H1166    1.0000 0.73910  0.89920  0.99970  Biso   1.000  H
  C1167    1.0000 0.74666  0.85536  0.93355  Biso   1.000  C
  H1167    1.0000 0.74970  0.83700  0.94020  Biso   1.000  H
  C1168    1.0000 0.80521  0.78190  0.11991  Biso   1.000  C
  H1168    1.0000 0.79630  0.77390  0.10420  Biso   1.000  H
  N1752    1.0000 0.76815  0.88144  0.97271  Biso   1.000  N
  Cu293    1.0000 0.33720  0.37331  0.02951  Biso   1.000  Cu
  Cu294    1.0000 0.27457  0.39996  0.05795  Biso   1.000  Cu
  N1753    1.0000 0.27719  0.39154  0.01647  Biso   1.000  N
  N1754    1.0000 0.30120  0.37914  0.00452  Biso   1.000  N
  N1755    1.0000 0.32193  0.35658  0.06541  Biso   1.000  N
  N1756    1.0000 0.29486  0.36409  0.07553  Biso   1.000  N
  N1757    1.0000 0.23323  0.39161  0.90799  Biso   1.000  N
  N1758    1.0000 0.23427  0.36205  0.90967  Biso   1.000  N
  C1169    1.0000 0.24564  0.40180  0.93064  Biso   1.000  C
  H1169    1.0000 0.24810  0.42100  0.93480  Biso   1.000  H
  N1759    1.0000 0.25431  0.37960  0.94704  Biso   1.000  N
  C1170    1.0000 0.29550  0.37321  0.97806  Biso   1.000  C
  H1170    1.0000 0.30790  0.36480  0.96510  Biso   1.000  H
  N1760    1.0000 0.31178  0.26847  0.14324  Biso   1.000  N
  N1761    1.0000 0.31348  0.30954  0.12232  Biso   1.000  N
  N1762    1.0000 0.32428  0.28825  0.16165  Biso   1.000  N
  N1763    1.0000 0.31123  0.32989  0.10141  Biso   1.000  N
  C1171    1.0000 0.28908  0.34811  0.09725  Biso   1.000  C
  H1171    1.0000 0.27260  0.34890  0.10820  Biso   1.000  H
  C1172    1.0000 0.32490  0.31267  0.14864  Biso   1.000  C
  H1172    1.0000 0.33200  0.32950  0.15620  Biso   1.000  H
  C1173    1.0000 0.33128  0.33595  0.08133  Biso   1.000  C
  H1173    1.0000 0.34870  0.32680  0.07930  Biso   1.000  H
  C1174    1.0000 0.25752  0.39231  0.99719  Biso   1.000  C
  H1174    1.0000 0.23910  0.39920  0.99970  Biso   1.000  H
  C1175    1.0000 0.24666  0.35536  0.93355  Biso   1.000  C
  H1175    1.0000 0.24970  0.33700  0.94020  Biso   1.000  H
  C1176    1.0000 0.30521  0.28190  0.11991  Biso   1.000  C
  H1176    1.0000 0.29630  0.27390  0.10420  Biso   1.000  H
  N1764    1.0000 0.26815  0.38144  0.97271  Biso   1.000  N
  Cu295    1.0000 0.33720  0.87331  0.52951  Biso   1.000  Cu
  Cu296    1.0000 0.27457  0.89996  0.55795  Biso   1.000  Cu
  N1765    1.0000 0.27719  0.89154  0.51647  Biso   1.000  N
  N1766    1.0000 0.30120  0.87914  0.50452  Biso   1.000  N
  N1767    1.0000 0.32193  0.85658  0.56541  Biso   1.000  N
  N1768    1.0000 0.29486  0.86409  0.57553  Biso   1.000  N
  N1769    1.0000 0.23323  0.89161  0.40799  Biso   1.000  N
  N1770    1.0000 0.23427  0.86205  0.40967  Biso   1.000  N
  C1177    1.0000 0.24564  0.90180  0.43064  Biso   1.000  C
  H1177    1.0000 0.24810  0.92100  0.43480  Biso   1.000  H
  N1771    1.0000 0.25431  0.87960  0.44704  Biso   1.000  N
  C1178    1.0000 0.29550  0.87321  0.47806  Biso   1.000  C
  H1178    1.0000 0.30790  0.86480  0.46510  Biso   1.000  H
  N1772    1.0000 0.31178  0.76847  0.64324  Biso   1.000  N
  N1773    1.0000 0.31348  0.80954  0.62232  Biso   1.000  N
  N1774    1.0000 0.32428  0.78825  0.66165  Biso   1.000  N
  N1775    1.0000 0.31123  0.82989  0.60141  Biso   1.000  N
  C1179    1.0000 0.28908  0.84811  0.59725  Biso   1.000  C
  H1179    1.0000 0.27260  0.84890  0.60820  Biso   1.000  H
  C1180    1.0000 0.32490  0.81267  0.64864  Biso   1.000  C
  H1180    1.0000 0.33200  0.82950  0.65620  Biso   1.000  H
  C1181    1.0000 0.33128  0.83595  0.58133  Biso   1.000  C
  H1181    1.0000 0.34870  0.82680  0.57930  Biso   1.000  H
  C1182    1.0000 0.25752  0.89231  0.49719  Biso   1.000  C
  H1182    1.0000 0.23910  0.89920  0.49970  Biso   1.000  H
  C1183    1.0000 0.24666  0.85536  0.43355  Biso   1.000  C
  H1183    1.0000 0.24970  0.83700  0.44020  Biso   1.000  H
  C1184    1.0000 0.30521  0.78190  0.61991  Biso   1.000  C
  H1184    1.0000 0.29630  0.77390  0.60420  Biso   1.000  H
  N1776    1.0000 0.26815  0.88144  0.47271  Biso   1.000  N
  Cu297    1.0000 0.91280  0.87669  0.02951  Biso   1.000  Cu
  Cu298    1.0000 0.97543  0.85004  0.05795  Biso   1.000  Cu
  N1777    1.0000 0.97281  0.85846  0.01647  Biso   1.000  N
  N1778    1.0000 0.94880  0.87086  0.00452  Biso   1.000  N
  N1779    1.0000 0.92807  0.89342  0.06541  Biso   1.000  N
  N1780    1.0000 0.95514  0.88591  0.07553  Biso   1.000  N
  N1781    1.0000 0.01677  0.85839  0.90799  Biso   1.000  N
  N1782    1.0000 0.01573  0.88795  0.90967  Biso   1.000  N
  C1185    1.0000 0.00436  0.84820  0.93064  Biso   1.000  C
  H1185    1.0000 0.00190  0.82900  0.93480  Biso   1.000  H
  N1783    1.0000 0.99569  0.87040  0.94704  Biso   1.000  N
  C1186    1.0000 0.95450  0.87679  0.97806  Biso   1.000  C
  H1186    1.0000 0.94210  0.88520  0.96510  Biso   1.000  H
  N1784    1.0000 0.93822  0.98153  0.14324  Biso   1.000  N
  N1785    1.0000 0.93652  0.94046  0.12232  Biso   1.000  N
  N1786    1.0000 0.92572  0.96175  0.16165  Biso   1.000  N
  N1787    1.0000 0.93877  0.92011  0.10141  Biso   1.000  N
  C1187    1.0000 0.96092  0.90189  0.09725  Biso   1.000  C
  H1187    1.0000 0.97740  0.90110  0.10820  Biso   1.000  H
  C1188    1.0000 0.92510  0.93733  0.14864  Biso   1.000  C
  H1188    1.0000 0.91800  0.92050  0.15620  Biso   1.000  H
  C1189    1.0000 0.91872  0.91405  0.08133  Biso   1.000  C
  H1189    1.0000 0.90130  0.92320  0.07930  Biso   1.000  H
  C1190    1.0000 0.99248  0.85769  0.99719  Biso   1.000  C
  H1190    1.0000 0.01090  0.85080  0.99970  Biso   1.000  H
  C1191    1.0000 0.00334  0.89464  0.93355  Biso   1.000  C
  H1191    1.0000 0.00030  0.91300  0.94020  Biso   1.000  H
  C1192    1.0000 0.94479  0.96810  0.11991  Biso   1.000  C
  H1192    1.0000 0.95370  0.97610  0.10420  Biso   1.000  H
  N1788    1.0000 0.98185  0.86856  0.97271  Biso   1.000  N
  Cu299    1.0000 0.91280  0.37669  0.52951  Biso   1.000  Cu
  Cu300    1.0000 0.97543  0.35004  0.55795  Biso   1.000  Cu
  N1789    1.0000 0.97281  0.35846  0.51647  Biso   1.000  N
  N1790    1.0000 0.94880  0.37086  0.50452  Biso   1.000  N
  N1791    1.0000 0.92807  0.39342  0.56541  Biso   1.000  N
  N1792    1.0000 0.95514  0.38591  0.57553  Biso   1.000  N
  N1793    1.0000 0.01677  0.35839  0.40799  Biso   1.000  N
  N1794    1.0000 0.01573  0.38795  0.40967  Biso   1.000  N
  C1193    1.0000 0.00436  0.34820  0.43064  Biso   1.000  C
  H1193    1.0000 0.00190  0.32900  0.43480  Biso   1.000  H
  N1795    1.0000 0.99569  0.37040  0.44704  Biso   1.000  N
  C1194    1.0000 0.95450  0.37679  0.47806  Biso   1.000  C
  H1194    1.0000 0.94210  0.38520  0.46510  Biso   1.000  H
  N1796    1.0000 0.93822  0.48153  0.64324  Biso   1.000  N
  N1797    1.0000 0.93652  0.44046  0.62232  Biso   1.000  N
  N1798    1.0000 0.92572  0.46175  0.66165  Biso   1.000  N
  N1799    1.0000 0.93877  0.42011  0.60141  Biso   1.000  N
  C1195    1.0000 0.96092  0.40189  0.59725  Biso   1.000  C
  H1195    1.0000 0.97740  0.40110  0.60820  Biso   1.000  H
  C1196    1.0000 0.92510  0.43733  0.64864  Biso   1.000  C
  H1196    1.0000 0.91800  0.42050  0.65620  Biso   1.000  H
  C1197    1.0000 0.91872  0.41405  0.58133  Biso   1.000  C
  H1197    1.0000 0.90130  0.42320  0.57930  Biso   1.000  H
  C1198    1.0000 0.99248  0.35769  0.49719  Biso   1.000  C
  H1198    1.0000 0.01090  0.35080  0.49970  Biso   1.000  H
  C1199    1.0000 0.00334  0.39464  0.43355  Biso   1.000  C
  H1199    1.0000 0.00030  0.41300  0.44020  Biso   1.000  H
  C1200    1.0000 0.94479  0.46810  0.61991  Biso   1.000  C
  H1200    1.0000 0.95370  0.47610  0.60420  Biso   1.000  H
  N1800    1.0000 0.98185  0.36856  0.47271  Biso   1.000  N
  Cu301    1.0000 0.41280  0.87669  0.52951  Biso   1.000  Cu
  Cu302    1.0000 0.47543  0.85004  0.55795  Biso   1.000  Cu
  N1801    1.0000 0.47281  0.85846  0.51647  Biso   1.000  N
  N1802    1.0000 0.44880  0.87086  0.50452  Biso   1.000  N
  N1803    1.0000 0.42807  0.89342  0.56541  Biso   1.000  N
  N1804    1.0000 0.45514  0.88591  0.57553  Biso   1.000  N
  N1805    1.0000 0.51677  0.85839  0.40799  Biso   1.000  N
  N1806    1.0000 0.51573  0.88795  0.40967  Biso   1.000  N
  C1201    1.0000 0.50436  0.84820  0.43064  Biso   1.000  C
  H1201    1.0000 0.50190  0.82900  0.43480  Biso   1.000  H
  N1807    1.0000 0.49569  0.87040  0.44704  Biso   1.000  N
  C1202    1.0000 0.45450  0.87679  0.47806  Biso   1.000  C
  H1202    1.0000 0.44210  0.88520  0.46510  Biso   1.000  H
  N1808    1.0000 0.43822  0.98153  0.64324  Biso   1.000  N
  N1809    1.0000 0.43652  0.94046  0.62232  Biso   1.000  N
  N1810    1.0000 0.42572  0.96175  0.66165  Biso   1.000  N
  N1811    1.0000 0.43877  0.92011  0.60141  Biso   1.000  N
  C1203    1.0000 0.46092  0.90189  0.59725  Biso   1.000  C
  H1203    1.0000 0.47740  0.90110  0.60820  Biso   1.000  H
  C1204    1.0000 0.42510  0.93733  0.64864  Biso   1.000  C
  H1204    1.0000 0.41800  0.92050  0.65620  Biso   1.000  H
  C1205    1.0000 0.41872  0.91405  0.58133  Biso   1.000  C
  H1205    1.0000 0.40130  0.92320  0.57930  Biso   1.000  H
  C1206    1.0000 0.49248  0.85769  0.49719  Biso   1.000  C
  H1206    1.0000 0.51090  0.85080  0.49970  Biso   1.000  H
  C1207    1.0000 0.50334  0.89464  0.43355  Biso   1.000  C
  H1207    1.0000 0.50030  0.91300  0.44020  Biso   1.000  H
  C1208    1.0000 0.44479  0.96810  0.61991  Biso   1.000  C
  H1208    1.0000 0.45370  0.97610  0.60420  Biso   1.000  H
  N1812    1.0000 0.48185  0.86856  0.47271  Biso   1.000  N
  Cu303    1.0000 0.41280  0.37669  0.02951  Biso   1.000  Cu
  Cu304    1.0000 0.47543  0.35004  0.05795  Biso   1.000  Cu
  N1813    1.0000 0.47281  0.35846  0.01647  Biso   1.000  N
  N1814    1.0000 0.44880  0.37086  0.00452  Biso   1.000  N
  N1815    1.0000 0.42807  0.39342  0.06541  Biso   1.000  N
  N1816    1.0000 0.45514  0.38591  0.07553  Biso   1.000  N
  N1817    1.0000 0.51677  0.35839  0.90799  Biso   1.000  N
  N1818    1.0000 0.51573  0.38795  0.90967  Biso   1.000  N
  C1209    1.0000 0.50436  0.34820  0.93064  Biso   1.000  C
  H1209    1.0000 0.50190  0.32900  0.93480  Biso   1.000  H
  N1819    1.0000 0.49569  0.37040  0.94704  Biso   1.000  N
  C1210    1.0000 0.45450  0.37679  0.97806  Biso   1.000  C
  H1210    1.0000 0.44210  0.38520  0.96510  Biso   1.000  H
  N1820    1.0000 0.43822  0.48153  0.14324  Biso   1.000  N
  N1821    1.0000 0.43652  0.44046  0.12232  Biso   1.000  N
  N1822    1.0000 0.42572  0.46175  0.16165  Biso   1.000  N
  N1823    1.0000 0.43877  0.42011  0.10141  Biso   1.000  N
  C1211    1.0000 0.46092  0.40189  0.09725  Biso   1.000  C
  H1211    1.0000 0.47740  0.40110  0.10820  Biso   1.000  H
  C1212    1.0000 0.42510  0.43733  0.14864  Biso   1.000  C
  H1212    1.0000 0.41800  0.42050  0.15620  Biso   1.000  H
  C1213    1.0000 0.41872  0.41405  0.08133  Biso   1.000  C
  H1213    1.0000 0.40130  0.42320  0.07930  Biso   1.000  H
  C1214    1.0000 0.49248  0.35769  0.99719  Biso   1.000  C
  H1214    1.0000 0.51090  0.35080  0.99970  Biso   1.000  H
  C1215    1.0000 0.50334  0.39464  0.93355  Biso   1.000  C
  H1215    1.0000 0.50030  0.41300  0.94020  Biso   1.000  H
  C1216    1.0000 0.44479  0.46810  0.11991  Biso   1.000  C
  H1216    1.0000 0.45370  0.47610  0.10420  Biso   1.000  H
  N1824    1.0000 0.48185  0.36856  0.97271  Biso   1.000  N
  Cu305    1.0000 0.33720  0.37669  0.72050  Biso   1.000  Cu
  Cu306    1.0000 0.27457  0.35004  0.69205  Biso   1.000  Cu
  N1825    1.0000 0.27719  0.35846  0.73353  Biso   1.000  N
  N1826    1.0000 0.30120  0.37086  0.74548  Biso   1.000  N
  N1827    1.0000 0.32193  0.39342  0.68459  Biso   1.000  N
  N1828    1.0000 0.29486  0.38591  0.67447  Biso   1.000  N
  N1829    1.0000 0.23323  0.35839  0.84201  Biso   1.000  N
  N1830    1.0000 0.23427  0.38795  0.84033  Biso   1.000  N
  C1217    1.0000 0.24564  0.34820  0.81936  Biso   1.000  C
  H1217    1.0000 0.24810  0.32900  0.81520  Biso   1.000  H
  N1831    1.0000 0.25431  0.37040  0.80296  Biso   1.000  N
  C1218    1.0000 0.29550  0.37679  0.77194  Biso   1.000  C
  H1218    1.0000 0.30790  0.38520  0.78490  Biso   1.000  H
  N1832    1.0000 0.31178  0.48153  0.60676  Biso   1.000  N
  N1833    1.0000 0.31348  0.44046  0.62768  Biso   1.000  N
  N1834    1.0000 0.32428  0.46175  0.58835  Biso   1.000  N
  N1835    1.0000 0.31123  0.42011  0.64859  Biso   1.000  N
  C1219    1.0000 0.28908  0.40189  0.65275  Biso   1.000  C
  H1219    1.0000 0.27260  0.40110  0.64180  Biso   1.000  H
  C1220    1.0000 0.32490  0.43733  0.60136  Biso   1.000  C
  H1220    1.0000 0.33200  0.42050  0.59380  Biso   1.000  H
  C1221    1.0000 0.33128  0.41405  0.66867  Biso   1.000  C
  H1221    1.0000 0.34870  0.42320  0.67070  Biso   1.000  H
  C1222    1.0000 0.25752  0.35769  0.75281  Biso   1.000  C
  H1222    1.0000 0.23910  0.35080  0.75030  Biso   1.000  H
  C1223    1.0000 0.24666  0.39464  0.81645  Biso   1.000  C
  H1223    1.0000 0.24970  0.41300  0.80980  Biso   1.000  H
  C1224    1.0000 0.30521  0.46810  0.63009  Biso   1.000  C
  H1224    1.0000 0.29630  0.47610  0.64580  Biso   1.000  H
  N1836    1.0000 0.26815  0.36856  0.77729  Biso   1.000  N
  Cu307    1.0000 0.33720  0.87669  0.22050  Biso   1.000  Cu
  Cu308    1.0000 0.27457  0.85004  0.19205  Biso   1.000  Cu
  N1837    1.0000 0.27719  0.85846  0.23353  Biso   1.000  N
  N1838    1.0000 0.30120  0.87086  0.24548  Biso   1.000  N
  N1839    1.0000 0.32193  0.89342  0.18459  Biso   1.000  N
  N1840    1.0000 0.29486  0.88591  0.17447  Biso   1.000  N
  N1841    1.0000 0.23323  0.85839  0.34201  Biso   1.000  N
  N1842    1.0000 0.23427  0.88795  0.34033  Biso   1.000  N
  C1225    1.0000 0.24564  0.84820  0.31936  Biso   1.000  C
  H1225    1.0000 0.24810  0.82900  0.31520  Biso   1.000  H
  N1843    1.0000 0.25431  0.87040  0.30296  Biso   1.000  N
  C1226    1.0000 0.29550  0.87679  0.27194  Biso   1.000  C
  H1226    1.0000 0.30790  0.88520  0.28490  Biso   1.000  H
  N1844    1.0000 0.31178  0.98153  0.10676  Biso   1.000  N
  N1845    1.0000 0.31348  0.94046  0.12768  Biso   1.000  N
  N1846    1.0000 0.32428  0.96175  0.08835  Biso   1.000  N
  N1847    1.0000 0.31123  0.92011  0.14859  Biso   1.000  N
  C1227    1.0000 0.28908  0.90189  0.15275  Biso   1.000  C
  H1227    1.0000 0.27260  0.90110  0.14180  Biso   1.000  H
  C1228    1.0000 0.32490  0.93733  0.10136  Biso   1.000  C
  H1228    1.0000 0.33200  0.92050  0.09380  Biso   1.000  H
  C1229    1.0000 0.33128  0.91405  0.16867  Biso   1.000  C
  H1229    1.0000 0.34870  0.92320  0.17070  Biso   1.000  H
  C1230    1.0000 0.25752  0.85769  0.25281  Biso   1.000  C
  H1230    1.0000 0.23910  0.85080  0.25030  Biso   1.000  H
  C1231    1.0000 0.24666  0.89464  0.31645  Biso   1.000  C
  H1231    1.0000 0.24970  0.91300  0.30980  Biso   1.000  H
  C1232    1.0000 0.30521  0.96810  0.13009  Biso   1.000  C
  H1232    1.0000 0.29630  0.97610  0.14580  Biso   1.000  H
  N1848    1.0000 0.26815  0.86856  0.27729  Biso   1.000  N
  Cu309    1.0000 0.83720  0.37669  0.22050  Biso   1.000  Cu
  Cu310    1.0000 0.77457  0.35004  0.19205  Biso   1.000  Cu
  N1849    1.0000 0.77719  0.35846  0.23353  Biso   1.000  N
  N1850    1.0000 0.80120  0.37086  0.24548  Biso   1.000  N
  N1851    1.0000 0.82193  0.39342  0.18459  Biso   1.000  N
  N1852    1.0000 0.79486  0.38591  0.17447  Biso   1.000  N
  N1853    1.0000 0.73323  0.35839  0.34201  Biso   1.000  N
  N1854    1.0000 0.73427  0.38795  0.34033  Biso   1.000  N
  C1233    1.0000 0.74564  0.34820  0.31936  Biso   1.000  C
  H1233    1.0000 0.74810  0.32900  0.31520  Biso   1.000  H
  N1855    1.0000 0.75431  0.37040  0.30296  Biso   1.000  N
  C1234    1.0000 0.79550  0.37679  0.27194  Biso   1.000  C
  H1234    1.0000 0.80790  0.38520  0.28490  Biso   1.000  H
  N1856    1.0000 0.81178  0.48153  0.10676  Biso   1.000  N
  N1857    1.0000 0.81348  0.44046  0.12768  Biso   1.000  N
  N1858    1.0000 0.82428  0.46175  0.08835  Biso   1.000  N
  N1859    1.0000 0.81123  0.42011  0.14859  Biso   1.000  N
  C1235    1.0000 0.78908  0.40189  0.15275  Biso   1.000  C
  H1235    1.0000 0.77260  0.40110  0.14180  Biso   1.000  H
  C1236    1.0000 0.82490  0.43733  0.10136  Biso   1.000  C
  H1236    1.0000 0.83200  0.42050  0.09380  Biso   1.000  H
  C1237    1.0000 0.83128  0.41405  0.16867  Biso   1.000  C
  H1237    1.0000 0.84870  0.42320  0.17070  Biso   1.000  H
  C1238    1.0000 0.75752  0.35769  0.25281  Biso   1.000  C
  H1238    1.0000 0.73910  0.35080  0.25030  Biso   1.000  H
  C1239    1.0000 0.74666  0.39464  0.31645  Biso   1.000  C
  H1239    1.0000 0.74970  0.41300  0.30980  Biso   1.000  H
  C1240    1.0000 0.80521  0.46810  0.13009  Biso   1.000  C
  H1240    1.0000 0.79630  0.47610  0.14580  Biso   1.000  H
  N1860    1.0000 0.76815  0.36856  0.27729  Biso   1.000  N
  Cu311    1.0000 0.83720  0.87669  0.72050  Biso   1.000  Cu
  Cu312    1.0000 0.77457  0.85004  0.69205  Biso   1.000  Cu
  N1861    1.0000 0.77719  0.85846  0.73353  Biso   1.000  N
  N1862    1.0000 0.80120  0.87086  0.74548  Biso   1.000  N
  N1863    1.0000 0.82193  0.89342  0.68459  Biso   1.000  N
  N1864    1.0000 0.79486  0.88591  0.67447  Biso   1.000  N
  N1865    1.0000 0.73323  0.85839  0.84201  Biso   1.000  N
  N1866    1.0000 0.73427  0.88795  0.84033  Biso   1.000  N
  C1241    1.0000 0.74564  0.84820  0.81936  Biso   1.000  C
  H1241    1.0000 0.74810  0.82900  0.81520  Biso   1.000  H
  N1867    1.0000 0.75431  0.87040  0.80296  Biso   1.000  N
  C1242    1.0000 0.79550  0.87679  0.77194  Biso   1.000  C
  H1242    1.0000 0.80790  0.88520  0.78490  Biso   1.000  H
  N1868    1.0000 0.81178  0.98153  0.60676  Biso   1.000  N
  N1869    1.0000 0.81348  0.94046  0.62768  Biso   1.000  N
  N1870    1.0000 0.82428  0.96175  0.58835  Biso   1.000  N
  N1871    1.0000 0.81123  0.92011  0.64859  Biso   1.000  N
  C1243    1.0000 0.78908  0.90189  0.65275  Biso   1.000  C
  H1243    1.0000 0.77260  0.90110  0.64180  Biso   1.000  H
  C1244    1.0000 0.82490  0.93733  0.60136  Biso   1.000  C
  H1244    1.0000 0.83200  0.92050  0.59380  Biso   1.000  H
  C1245    1.0000 0.83128  0.91405  0.66867  Biso   1.000  C
  H1245    1.0000 0.84870  0.92320  0.67070  Biso   1.000  H
  C1246    1.0000 0.75752  0.85769  0.75281  Biso   1.000  C
  H1246    1.0000 0.73910  0.85080  0.75030  Biso   1.000  H
  C1247    1.0000 0.74666  0.89464  0.81645  Biso   1.000  C
  H1247    1.0000 0.74970  0.91300  0.80980  Biso   1.000  H
  C1248    1.0000 0.80521  0.96810  0.63009  Biso   1.000  C
  H1248    1.0000 0.79630  0.97610  0.64580  Biso   1.000  H
  N1872    1.0000 0.76815  0.86856  0.77729  Biso   1.000  N
  Cu313    1.0000 0.41280  0.87331  0.22050  Biso   1.000  Cu
  Cu314    1.0000 0.47543  0.89996  0.19205  Biso   1.000  Cu
  N1873    1.0000 0.47281  0.89154  0.23353  Biso   1.000  N
  N1874    1.0000 0.44880  0.87914  0.24548  Biso   1.000  N
  N1875    1.0000 0.42807  0.85658  0.18459  Biso   1.000  N
  N1876    1.0000 0.45514  0.86409  0.17447  Biso   1.000  N
  N1877    1.0000 0.51677  0.89161  0.34201  Biso   1.000  N
  N1878    1.0000 0.51573  0.86205  0.34033  Biso   1.000  N
  C1249    1.0000 0.50436  0.90180  0.31936  Biso   1.000  C
  H1249    1.0000 0.50190  0.92100  0.31520  Biso   1.000  H
  N1879    1.0000 0.49569  0.87960  0.30296  Biso   1.000  N
  C1250    1.0000 0.45450  0.87321  0.27194  Biso   1.000  C
  H1250    1.0000 0.44210  0.86480  0.28490  Biso   1.000  H
  N1880    1.0000 0.43822  0.76847  0.10676  Biso   1.000  N
  N1881    1.0000 0.43652  0.80954  0.12768  Biso   1.000  N
  N1882    1.0000 0.42572  0.78825  0.08835  Biso   1.000  N
  N1883    1.0000 0.43877  0.82989  0.14859  Biso   1.000  N
  C1251    1.0000 0.46092  0.84811  0.15275  Biso   1.000  C
  H1251    1.0000 0.47740  0.84890  0.14180  Biso   1.000  H
  C1252    1.0000 0.42510  0.81267  0.10136  Biso   1.000  C
  H1252    1.0000 0.41800  0.82950  0.09380  Biso   1.000  H
  C1253    1.0000 0.41872  0.83595  0.16867  Biso   1.000  C
  H1253    1.0000 0.40130  0.82680  0.17070  Biso   1.000  H
  C1254    1.0000 0.49248  0.89231  0.25281  Biso   1.000  C
  H1254    1.0000 0.51090  0.89920  0.25030  Biso   1.000  H
  C1255    1.0000 0.50334  0.85536  0.31645  Biso   1.000  C
  H1255    1.0000 0.50030  0.83700  0.30980  Biso   1.000  H
  C1256    1.0000 0.44479  0.78190  0.13009  Biso   1.000  C
  H1256    1.0000 0.45370  0.77390  0.14580  Biso   1.000  H
  N1884    1.0000 0.48185  0.88144  0.27729  Biso   1.000  N
  Cu315    1.0000 0.41280  0.37331  0.72050  Biso   1.000  Cu
  Cu316    1.0000 0.47543  0.39996  0.69205  Biso   1.000  Cu
  N1885    1.0000 0.47281  0.39154  0.73353  Biso   1.000  N
  N1886    1.0000 0.44880  0.37914  0.74548  Biso   1.000  N
  N1887    1.0000 0.42807  0.35658  0.68459  Biso   1.000  N
  N1888    1.0000 0.45514  0.36409  0.67447  Biso   1.000  N
  N1889    1.0000 0.51677  0.39161  0.84201  Biso   1.000  N
  N1890    1.0000 0.51573  0.36205  0.84033  Biso   1.000  N
  C1257    1.0000 0.50436  0.40180  0.81936  Biso   1.000  C
  H1257    1.0000 0.50190  0.42100  0.81520  Biso   1.000  H
  N1891    1.0000 0.49569  0.37960  0.80296  Biso   1.000  N
  C1258    1.0000 0.45450  0.37321  0.77194  Biso   1.000  C
  H1258    1.0000 0.44210  0.36480  0.78490  Biso   1.000  H
  N1892    1.0000 0.43822  0.26847  0.60676  Biso   1.000  N
  N1893    1.0000 0.43652  0.30954  0.62768  Biso   1.000  N
  N1894    1.0000 0.42572  0.28825  0.58835  Biso   1.000  N
  N1895    1.0000 0.43877  0.32989  0.64859  Biso   1.000  N
  C1259    1.0000 0.46092  0.34811  0.65275  Biso   1.000  C
  H1259    1.0000 0.47740  0.34890  0.64180  Biso   1.000  H
  C1260    1.0000 0.42510  0.31267  0.60136  Biso   1.000  C
  H1260    1.0000 0.41800  0.32950  0.59380  Biso   1.000  H
  C1261    1.0000 0.41872  0.33595  0.66867  Biso   1.000  C
  H1261    1.0000 0.40130  0.32680  0.67070  Biso   1.000  H
  C1262    1.0000 0.49248  0.39231  0.75281  Biso   1.000  C
  H1262    1.0000 0.51090  0.39920  0.75030  Biso   1.000  H
  C1263    1.0000 0.50334  0.35536  0.81645  Biso   1.000  C
  H1263    1.0000 0.50030  0.33700  0.80980  Biso   1.000  H
  C1264    1.0000 0.44479  0.28190  0.63009  Biso   1.000  C
  H1264    1.0000 0.45370  0.27390  0.64580  Biso   1.000  H
  N1896    1.0000 0.48185  0.38144  0.77729  Biso   1.000  N
  Cu317    1.0000 0.91280  0.87331  0.72050  Biso   1.000  Cu
  Cu318    1.0000 0.97543  0.89996  0.69205  Biso   1.000  Cu
  N1897    1.0000 0.97281  0.89154  0.73353  Biso   1.000  N
  N1898    1.0000 0.94880  0.87914  0.74548  Biso   1.000  N
  N1899    1.0000 0.92807  0.85658  0.68459  Biso   1.000  N
  N1900    1.0000 0.95514  0.86409  0.67447  Biso   1.000  N
  N1901    1.0000 0.01677  0.89161  0.84201  Biso   1.000  N
  N1902    1.0000 0.01573  0.86205  0.84033  Biso   1.000  N
  C1265    1.0000 0.00436  0.90180  0.81936  Biso   1.000  C
  H1265    1.0000 0.00190  0.92100  0.81520  Biso   1.000  H
  N1903    1.0000 0.99569  0.87960  0.80296  Biso   1.000  N
  C1266    1.0000 0.95450  0.87321  0.77194  Biso   1.000  C
  H1266    1.0000 0.94210  0.86480  0.78490  Biso   1.000  H
  N1904    1.0000 0.93822  0.76847  0.60676  Biso   1.000  N
  N1905    1.0000 0.93652  0.80954  0.62768  Biso   1.000  N
  N1906    1.0000 0.92572  0.78825  0.58835  Biso   1.000  N
  N1907    1.0000 0.93877  0.82989  0.64859  Biso   1.000  N
  C1267    1.0000 0.96092  0.84811  0.65275  Biso   1.000  C
  H1267    1.0000 0.97740  0.84890  0.64180  Biso   1.000  H
  C1268    1.0000 0.92510  0.81267  0.60136  Biso   1.000  C
  H1268    1.0000 0.91800  0.82950  0.59380  Biso   1.000  H
  C1269    1.0000 0.91872  0.83595  0.66867  Biso   1.000  C
  H1269    1.0000 0.90130  0.82680  0.67070  Biso   1.000  H
  C1270    1.0000 0.99248  0.89231  0.75281  Biso   1.000  C
  H1270    1.0000 0.01090  0.89920  0.75030  Biso   1.000  H
  C1271    1.0000 0.00334  0.85536  0.81645  Biso   1.000  C
  H1271    1.0000 0.00030  0.83700  0.80980  Biso   1.000  H
  C1272    1.0000 0.94479  0.78190  0.63009  Biso   1.000  C
  H1272    1.0000 0.95370  0.77390  0.64580  Biso   1.000  H
  N1908    1.0000 0.98185  0.88144  0.77729  Biso   1.000  N
  Cu319    1.0000 0.91280  0.37331  0.22050  Biso   1.000  Cu
  Cu320    1.0000 0.97543  0.39996  0.19205  Biso   1.000  Cu
  N1909    1.0000 0.97281  0.39154  0.23353  Biso   1.000  N
  N1910    1.0000 0.94880  0.37914  0.24548  Biso   1.000  N
  N1911    1.0000 0.92807  0.35658  0.18459  Biso   1.000  N
  N1912    1.0000 0.95514  0.36409  0.17447  Biso   1.000  N
  N1913    1.0000 0.01677  0.39161  0.34201  Biso   1.000  N
  N1914    1.0000 0.01573  0.36205  0.34033  Biso   1.000  N
  C1273    1.0000 0.00436  0.40180  0.31936  Biso   1.000  C
  H1273    1.0000 0.00190  0.42100  0.31520  Biso   1.000  H
  N1915    1.0000 0.99569  0.37960  0.30296  Biso   1.000  N
  C1274    1.0000 0.95450  0.37321  0.27194  Biso   1.000  C
  H1274    1.0000 0.94210  0.36480  0.28490  Biso   1.000  H
  N1916    1.0000 0.93822  0.26847  0.10676  Biso   1.000  N
  N1917    1.0000 0.93652  0.30954  0.12768  Biso   1.000  N
  N1918    1.0000 0.92572  0.28825  0.08835  Biso   1.000  N
  N1919    1.0000 0.93877  0.32989  0.14859  Biso   1.000  N
  C1275    1.0000 0.96092  0.34811  0.15275  Biso   1.000  C
  H1275    1.0000 0.97740  0.34890  0.14180  Biso   1.000  H
  C1276    1.0000 0.92510  0.31267  0.10136  Biso   1.000  C
  H1276    1.0000 0.91800  0.32950  0.09380  Biso   1.000  H
  C1277    1.0000 0.91872  0.33595  0.16867  Biso   1.000  C
  H1277    1.0000 0.90130  0.32680  0.17070  Biso   1.000  H
  C1278    1.0000 0.99248  0.39231  0.25281  Biso   1.000  C
  H1278    1.0000 0.01090  0.39920  0.25030  Biso   1.000  H
  C1279    1.0000 0.00334  0.35536  0.31645  Biso   1.000  C
  H1279    1.0000 0.00030  0.33700  0.30980  Biso   1.000  H
  C1280    1.0000 0.94479  0.28190  0.13009  Biso   1.000  C
  H1280    1.0000 0.95370  0.27390  0.14580  Biso   1.000  H
  N1920    1.0000 0.98185  0.38144  0.27729  Biso   1.000  N
  Cu321    1.0000 0.87331  0.22050  0.41280  Biso   1.000  Cu
  Cu322    1.0000 0.89996  0.19205  0.47543  Biso   1.000  Cu
  N1921    1.0000 0.89154  0.23353  0.47281  Biso   1.000  N
  N1922    1.0000 0.87914  0.24548  0.44880  Biso   1.000  N
  N1923    1.0000 0.85658  0.18459  0.42807  Biso   1.000  N
  N1924    1.0000 0.86409  0.17447  0.45514  Biso   1.000  N
  N1925    1.0000 0.89161  0.34201  0.51677  Biso   1.000  N
  N1926    1.0000 0.86205  0.34033  0.51573  Biso   1.000  N
  C1281    1.0000 0.90180  0.31936  0.50436  Biso   1.000  C
  H1281    1.0000 0.92100  0.31520  0.50190  Biso   1.000  H
  N1927    1.0000 0.87960  0.30296  0.49569  Biso   1.000  N
  C1282    1.0000 0.87321  0.27194  0.45450  Biso   1.000  C
  H1282    1.0000 0.86480  0.28490  0.44210  Biso   1.000  H
  N1928    1.0000 0.76847  0.10676  0.43822  Biso   1.000  N
  N1929    1.0000 0.80954  0.12768  0.43652  Biso   1.000  N
  N1930    1.0000 0.78825  0.08835  0.42572  Biso   1.000  N
  N1931    1.0000 0.82989  0.14859  0.43877  Biso   1.000  N
  C1283    1.0000 0.84811  0.15275  0.46092  Biso   1.000  C
  H1283    1.0000 0.84890  0.14180  0.47740  Biso   1.000  H
  C1284    1.0000 0.81267  0.10136  0.42510  Biso   1.000  C
  H1284    1.0000 0.82950  0.09380  0.41800  Biso   1.000  H
  C1285    1.0000 0.83595  0.16867  0.41872  Biso   1.000  C
  H1285    1.0000 0.82680  0.17070  0.40130  Biso   1.000  H
  C1286    1.0000 0.89231  0.25281  0.49248  Biso   1.000  C
  H1286    1.0000 0.89920  0.25030  0.51090  Biso   1.000  H
  C1287    1.0000 0.85536  0.31645  0.50334  Biso   1.000  C
  H1287    1.0000 0.83700  0.30980  0.50030  Biso   1.000  H
  C1288    1.0000 0.78190  0.13009  0.44479  Biso   1.000  C
  H1288    1.0000 0.77390  0.14580  0.45370  Biso   1.000  H
  N1932    1.0000 0.88144  0.27729  0.48185  Biso   1.000  N
  Cu323    1.0000 0.87331  0.72050  0.91280  Biso   1.000  Cu
  Cu324    1.0000 0.89996  0.69205  0.97543  Biso   1.000  Cu
  N1933    1.0000 0.89154  0.73353  0.97281  Biso   1.000  N
  N1934    1.0000 0.87914  0.74548  0.94880  Biso   1.000  N
  N1935    1.0000 0.85658  0.68459  0.92807  Biso   1.000  N
  N1936    1.0000 0.86409  0.67447  0.95514  Biso   1.000  N
  N1937    1.0000 0.89161  0.84201  0.01677  Biso   1.000  N
  N1938    1.0000 0.86205  0.84033  0.01573  Biso   1.000  N
  C1289    1.0000 0.90180  0.81936  0.00436  Biso   1.000  C
  H1289    1.0000 0.92100  0.81520  0.00190  Biso   1.000  H
  N1939    1.0000 0.87960  0.80296  0.99569  Biso   1.000  N
  C1290    1.0000 0.87321  0.77194  0.95450  Biso   1.000  C
  H1290    1.0000 0.86480  0.78490  0.94210  Biso   1.000  H
  N1940    1.0000 0.76847  0.60676  0.93822  Biso   1.000  N
  N1941    1.0000 0.80954  0.62768  0.93652  Biso   1.000  N
  N1942    1.0000 0.78825  0.58835  0.92572  Biso   1.000  N
  N1943    1.0000 0.82989  0.64859  0.93877  Biso   1.000  N
  C1291    1.0000 0.84811  0.65275  0.96092  Biso   1.000  C
  H1291    1.0000 0.84890  0.64180  0.97740  Biso   1.000  H
  C1292    1.0000 0.81267  0.60136  0.92510  Biso   1.000  C
  H1292    1.0000 0.82950  0.59380  0.91800  Biso   1.000  H
  C1293    1.0000 0.83595  0.66867  0.91872  Biso   1.000  C
  H1293    1.0000 0.82680  0.67070  0.90130  Biso   1.000  H
  C1294    1.0000 0.89231  0.75281  0.99248  Biso   1.000  C
  H1294    1.0000 0.89920  0.75030  0.01090  Biso   1.000  H
  C1295    1.0000 0.85536  0.81645  0.00334  Biso   1.000  C
  H1295    1.0000 0.83700  0.80980  0.00030  Biso   1.000  H
  C1296    1.0000 0.78190  0.63009  0.94479  Biso   1.000  C
  H1296    1.0000 0.77390  0.64580  0.95370  Biso   1.000  H
  N1944    1.0000 0.88144  0.77729  0.98185  Biso   1.000  N
  Cu325    1.0000 0.37331  0.22050  0.91280  Biso   1.000  Cu
  Cu326    1.0000 0.39996  0.19205  0.97543  Biso   1.000  Cu
  N1945    1.0000 0.39154  0.23353  0.97281  Biso   1.000  N
  N1946    1.0000 0.37914  0.24548  0.94880  Biso   1.000  N
  N1947    1.0000 0.35658  0.18459  0.92807  Biso   1.000  N
  N1948    1.0000 0.36409  0.17447  0.95514  Biso   1.000  N
  N1949    1.0000 0.39161  0.34201  0.01677  Biso   1.000  N
  N1950    1.0000 0.36205  0.34033  0.01573  Biso   1.000  N
  C1297    1.0000 0.40180  0.31936  0.00436  Biso   1.000  C
  H1297    1.0000 0.42100  0.31520  0.00190  Biso   1.000  H
  N1951    1.0000 0.37960  0.30296  0.99569  Biso   1.000  N
  C1298    1.0000 0.37321  0.27194  0.95450  Biso   1.000  C
  H1298    1.0000 0.36480  0.28490  0.94210  Biso   1.000  H
  N1952    1.0000 0.26847  0.10676  0.93822  Biso   1.000  N
  N1953    1.0000 0.30954  0.12768  0.93652  Biso   1.000  N
  N1954    1.0000 0.28825  0.08835  0.92572  Biso   1.000  N
  N1955    1.0000 0.32989  0.14859  0.93877  Biso   1.000  N
  C1299    1.0000 0.34811  0.15275  0.96092  Biso   1.000  C
  H1299    1.0000 0.34890  0.14180  0.97740  Biso   1.000  H
  C1300    1.0000 0.31267  0.10136  0.92510  Biso   1.000  C
  H1300    1.0000 0.32950  0.09380  0.91800  Biso   1.000  H
  C1301    1.0000 0.33595  0.16867  0.91872  Biso   1.000  C
  H1301    1.0000 0.32680  0.17070  0.90130  Biso   1.000  H
  C1302    1.0000 0.39231  0.25281  0.99248  Biso   1.000  C
  H1302    1.0000 0.39920  0.25030  0.01090  Biso   1.000  H
  C1303    1.0000 0.35536  0.31645  0.00334  Biso   1.000  C
  H1303    1.0000 0.33700  0.30980  0.00030  Biso   1.000  H
  C1304    1.0000 0.28190  0.13009  0.94479  Biso   1.000  C
  H1304    1.0000 0.27390  0.14580  0.95370  Biso   1.000  H
  N1956    1.0000 0.38144  0.27729  0.98185  Biso   1.000  N
  Cu327    1.0000 0.37331  0.72050  0.41280  Biso   1.000  Cu
  Cu328    1.0000 0.39996  0.69205  0.47543  Biso   1.000  Cu
  N1957    1.0000 0.39154  0.73353  0.47281  Biso   1.000  N
  N1958    1.0000 0.37914  0.74548  0.44880  Biso   1.000  N
  N1959    1.0000 0.35658  0.68459  0.42807  Biso   1.000  N
  N1960    1.0000 0.36409  0.67447  0.45514  Biso   1.000  N
  N1961    1.0000 0.39161  0.84201  0.51677  Biso   1.000  N
  N1962    1.0000 0.36205  0.84033  0.51573  Biso   1.000  N
  C1305    1.0000 0.40180  0.81936  0.50436  Biso   1.000  C
  H1305    1.0000 0.42100  0.81520  0.50190  Biso   1.000  H
  N1963    1.0000 0.37960  0.80296  0.49569  Biso   1.000  N
  C1306    1.0000 0.37321  0.77194  0.45450  Biso   1.000  C
  H1306    1.0000 0.36480  0.78490  0.44210  Biso   1.000  H
  N1964    1.0000 0.26847  0.60676  0.43822  Biso   1.000  N
  N1965    1.0000 0.30954  0.62768  0.43652  Biso   1.000  N
  N1966    1.0000 0.28825  0.58835  0.42572  Biso   1.000  N
  N1967    1.0000 0.32989  0.64859  0.43877  Biso   1.000  N
  C1307    1.0000 0.34811  0.65275  0.46092  Biso   1.000  C
  H1307    1.0000 0.34890  0.64180  0.47740  Biso   1.000  H
  C1308    1.0000 0.31267  0.60136  0.42510  Biso   1.000  C
  H1308    1.0000 0.32950  0.59380  0.41800  Biso   1.000  H
  C1309    1.0000 0.33595  0.66867  0.41872  Biso   1.000  C
  H1309    1.0000 0.32680  0.67070  0.40130  Biso   1.000  H
  C1310    1.0000 0.39231  0.75281  0.49248  Biso   1.000  C
  H1310    1.0000 0.39920  0.75030  0.51090  Biso   1.000  H
  C1311    1.0000 0.35536  0.81645  0.50334  Biso   1.000  C
  H1311    1.0000 0.33700  0.80980  0.50030  Biso   1.000  H
  C1312    1.0000 0.28190  0.63009  0.44479  Biso   1.000  C
  H1312    1.0000 0.27390  0.64580  0.45370  Biso   1.000  H
  N1968    1.0000 0.38144  0.77729  0.48185  Biso   1.000  N
  Cu329    1.0000 0.37669  0.72050  0.33720  Biso   1.000  Cu
  Cu330    1.0000 0.35004  0.69205  0.27457  Biso   1.000  Cu
  N1969    1.0000 0.35846  0.73353  0.27719  Biso   1.000  N
  N1970    1.0000 0.37086  0.74548  0.30120  Biso   1.000  N
  N1971    1.0000 0.39342  0.68459  0.32193  Biso   1.000  N
  N1972    1.0000 0.38591  0.67447  0.29486  Biso   1.000  N
  N1973    1.0000 0.35839  0.84201  0.23323  Biso   1.000  N
  N1974    1.0000 0.38795  0.84033  0.23427  Biso   1.000  N
  C1313    1.0000 0.34820  0.81936  0.24564  Biso   1.000  C
  H1313    1.0000 0.32900  0.81520  0.24810  Biso   1.000  H
  N1975    1.0000 0.37040  0.80296  0.25431  Biso   1.000  N
  C1314    1.0000 0.37679  0.77194  0.29550  Biso   1.000  C
  H1314    1.0000 0.38520  0.78490  0.30790  Biso   1.000  H
  N1976    1.0000 0.48153  0.60676  0.31178  Biso   1.000  N
  N1977    1.0000 0.44046  0.62768  0.31348  Biso   1.000  N
  N1978    1.0000 0.46175  0.58835  0.32428  Biso   1.000  N
  N1979    1.0000 0.42011  0.64859  0.31123  Biso   1.000  N
  C1315    1.0000 0.40189  0.65275  0.28908  Biso   1.000  C
  H1315    1.0000 0.40110  0.64180  0.27260  Biso   1.000  H
  C1316    1.0000 0.43733  0.60136  0.32490  Biso   1.000  C
  H1316    1.0000 0.42050  0.59380  0.33200  Biso   1.000  H
  C1317    1.0000 0.41405  0.66867  0.33128  Biso   1.000  C
  H1317    1.0000 0.42320  0.67070  0.34870  Biso   1.000  H
  C1318    1.0000 0.35769  0.75281  0.25752  Biso   1.000  C
  H1318    1.0000 0.35080  0.75030  0.23910  Biso   1.000  H
  C1319    1.0000 0.39464  0.81645  0.24666  Biso   1.000  C
  H1319    1.0000 0.41300  0.80980  0.24970  Biso   1.000  H
  C1320    1.0000 0.46810  0.63009  0.30521  Biso   1.000  C
  H1320    1.0000 0.47610  0.64580  0.29630  Biso   1.000  H
  N1980    1.0000 0.36856  0.77729  0.26815  Biso   1.000  N
  Cu331    1.0000 0.37669  0.22050  0.83720  Biso   1.000  Cu
  Cu332    1.0000 0.35004  0.19205  0.77457  Biso   1.000  Cu
  N1981    1.0000 0.35846  0.23353  0.77719  Biso   1.000  N
  N1982    1.0000 0.37086  0.24548  0.80120  Biso   1.000  N
  N1983    1.0000 0.39342  0.18459  0.82193  Biso   1.000  N
  N1984    1.0000 0.38591  0.17447  0.79486  Biso   1.000  N
  N1985    1.0000 0.35839  0.34201  0.73323  Biso   1.000  N
  N1986    1.0000 0.38795  0.34033  0.73427  Biso   1.000  N
  C1321    1.0000 0.34820  0.31936  0.74564  Biso   1.000  C
  H1321    1.0000 0.32900  0.31520  0.74810  Biso   1.000  H
  N1987    1.0000 0.37040  0.30296  0.75431  Biso   1.000  N
  C1322    1.0000 0.37679  0.27194  0.79550  Biso   1.000  C
  H1322    1.0000 0.38520  0.28490  0.80790  Biso   1.000  H
  N1988    1.0000 0.48153  0.10676  0.81178  Biso   1.000  N
  N1989    1.0000 0.44046  0.12768  0.81348  Biso   1.000  N
  N1990    1.0000 0.46175  0.08835  0.82428  Biso   1.000  N
  N1991    1.0000 0.42011  0.14859  0.81123  Biso   1.000  N
  C1323    1.0000 0.40189  0.15275  0.78908  Biso   1.000  C
  H1323    1.0000 0.40110  0.14180  0.77260  Biso   1.000  H
  C1324    1.0000 0.43733  0.10136  0.82490  Biso   1.000  C
  H1324    1.0000 0.42050  0.09380  0.83200  Biso   1.000  H
  C1325    1.0000 0.41405  0.16867  0.83128  Biso   1.000  C
  H1325    1.0000 0.42320  0.17070  0.84870  Biso   1.000  H
  C1326    1.0000 0.35769  0.25281  0.75752  Biso   1.000  C
  H1326    1.0000 0.35080  0.25030  0.73910  Biso   1.000  H
  C1327    1.0000 0.39464  0.31645  0.74666  Biso   1.000  C
  H1327    1.0000 0.41300  0.30980  0.74970  Biso   1.000  H
  C1328    1.0000 0.46810  0.13009  0.80521  Biso   1.000  C
  H1328    1.0000 0.47610  0.14580  0.79630  Biso   1.000  H
  N1992    1.0000 0.36856  0.27729  0.76815  Biso   1.000  N
  Cu333    1.0000 0.87669  0.72050  0.83720  Biso   1.000  Cu
  Cu334    1.0000 0.85004  0.69205  0.77457  Biso   1.000  Cu
  N1993    1.0000 0.85846  0.73353  0.77719  Biso   1.000  N
  N1994    1.0000 0.87086  0.74548  0.80120  Biso   1.000  N
  N1995    1.0000 0.89342  0.68459  0.82193  Biso   1.000  N
  N1996    1.0000 0.88591  0.67447  0.79486  Biso   1.000  N
  N1997    1.0000 0.85839  0.84201  0.73323  Biso   1.000  N
  N1998    1.0000 0.88795  0.84033  0.73427  Biso   1.000  N
  C1329    1.0000 0.84820  0.81936  0.74564  Biso   1.000  C
  H1329    1.0000 0.82900  0.81520  0.74810  Biso   1.000  H
  N1999    1.0000 0.87040  0.80296  0.75431  Biso   1.000  N
  C1330    1.0000 0.87679  0.77194  0.79550  Biso   1.000  C
  H1330    1.0000 0.88520  0.78490  0.80790  Biso   1.000  H
  N2000    1.0000 0.98153  0.60676  0.81178  Biso   1.000  N
  N2001    1.0000 0.94046  0.62768  0.81348  Biso   1.000  N
  N2002    1.0000 0.96175  0.58835  0.82428  Biso   1.000  N
  N2003    1.0000 0.92011  0.64859  0.81123  Biso   1.000  N
  C1331    1.0000 0.90189  0.65275  0.78908  Biso   1.000  C
  H1331    1.0000 0.90110  0.64180  0.77260  Biso   1.000  H
  C1332    1.0000 0.93733  0.60136  0.82490  Biso   1.000  C
  H1332    1.0000 0.92050  0.59380  0.83200  Biso   1.000  H
  C1333    1.0000 0.91405  0.66867  0.83128  Biso   1.000  C
  H1333    1.0000 0.92320  0.67070  0.84870  Biso   1.000  H
  C1334    1.0000 0.85769  0.75281  0.75752  Biso   1.000  C
  H1334    1.0000 0.85080  0.75030  0.73910  Biso   1.000  H
  C1335    1.0000 0.89464  0.81645  0.74666  Biso   1.000  C
  H1335    1.0000 0.91300  0.80980  0.74970  Biso   1.000  H
  C1336    1.0000 0.96810  0.63009  0.80521  Biso   1.000  C
  H1336    1.0000 0.97610  0.64580  0.79630  Biso   1.000  H
  N2004    1.0000 0.86856  0.77729  0.76815  Biso   1.000  N
  Cu335    1.0000 0.87669  0.22050  0.33720  Biso   1.000  Cu
  Cu336    1.0000 0.85004  0.19205  0.27457  Biso   1.000  Cu
  N2005    1.0000 0.85846  0.23353  0.27719  Biso   1.000  N
  N2006    1.0000 0.87086  0.24548  0.30120  Biso   1.000  N
  N2007    1.0000 0.89342  0.18459  0.32193  Biso   1.000  N
  N2008    1.0000 0.88591  0.17447  0.29486  Biso   1.000  N
  N2009    1.0000 0.85839  0.34201  0.23323  Biso   1.000  N
  N2010    1.0000 0.88795  0.34033  0.23427  Biso   1.000  N
  C1337    1.0000 0.84820  0.31936  0.24564  Biso   1.000  C
  H1337    1.0000 0.82900  0.31520  0.24810  Biso   1.000  H
  N2011    1.0000 0.87040  0.30296  0.25431  Biso   1.000  N
  C1338    1.0000 0.87679  0.27194  0.29550  Biso   1.000  C
  H1338    1.0000 0.88520  0.28490  0.30790  Biso   1.000  H
  N2012    1.0000 0.98153  0.10676  0.31178  Biso   1.000  N
  N2013    1.0000 0.94046  0.12768  0.31348  Biso   1.000  N
  N2014    1.0000 0.96175  0.08835  0.32428  Biso   1.000  N
  N2015    1.0000 0.92011  0.14859  0.31123  Biso   1.000  N
  C1339    1.0000 0.90189  0.15275  0.28908  Biso   1.000  C
  H1339    1.0000 0.90110  0.14180  0.27260  Biso   1.000  H
  C1340    1.0000 0.93733  0.10136  0.32490  Biso   1.000  C
  H1340    1.0000 0.92050  0.09380  0.33200  Biso   1.000  H
  C1341    1.0000 0.91405  0.16867  0.33128  Biso   1.000  C
  H1341    1.0000 0.92320  0.17070  0.34870  Biso   1.000  H
  C1342    1.0000 0.85769  0.25281  0.25752  Biso   1.000  C
  H1342    1.0000 0.85080  0.25030  0.23910  Biso   1.000  H
  C1343    1.0000 0.89464  0.31645  0.24666  Biso   1.000  C
  H1343    1.0000 0.91300  0.30980  0.24970  Biso   1.000  H
  C1344    1.0000 0.96810  0.13009  0.30521  Biso   1.000  C
  H1344    1.0000 0.97610  0.14580  0.29630  Biso   1.000  H
  N2016    1.0000 0.86856  0.27729  0.26815  Biso   1.000  N
  Cu337    1.0000 0.87669  0.02951  0.91280  Biso   1.000  Cu
  Cu338    1.0000 0.85004  0.05795  0.97543  Biso   1.000  Cu
  N2017    1.0000 0.85846  0.01647  0.97281  Biso   1.000  N
  N2018    1.0000 0.87086  0.00452  0.94880  Biso   1.000  N
  N2019    1.0000 0.89342  0.06541  0.92807  Biso   1.000  N
  N2020    1.0000 0.88591  0.07553  0.95514  Biso   1.000  N
  N2021    1.0000 0.85839  0.90799  0.01677  Biso   1.000  N
  N2022    1.0000 0.88795  0.90967  0.01573  Biso   1.000  N
  C1345    1.0000 0.84820  0.93064  0.00436  Biso   1.000  C
  H1345    1.0000 0.82900  0.93480  0.00190  Biso   1.000  H
  N2023    1.0000 0.87040  0.94704  0.99569  Biso   1.000  N
  C1346    1.0000 0.87679  0.97806  0.95450  Biso   1.000  C
  H1346    1.0000 0.88520  0.96510  0.94210  Biso   1.000  H
  N2024    1.0000 0.98153  0.14324  0.93822  Biso   1.000  N
  N2025    1.0000 0.94046  0.12232  0.93652  Biso   1.000  N
  N2026    1.0000 0.96175  0.16165  0.92572  Biso   1.000  N
  N2027    1.0000 0.92011  0.10141  0.93877  Biso   1.000  N
  C1347    1.0000 0.90189  0.09725  0.96092  Biso   1.000  C
  H1347    1.0000 0.90110  0.10820  0.97740  Biso   1.000  H
  C1348    1.0000 0.93733  0.14864  0.92510  Biso   1.000  C
  H1348    1.0000 0.92050  0.15620  0.91800  Biso   1.000  H
  C1349    1.0000 0.91405  0.08133  0.91872  Biso   1.000  C
  H1349    1.0000 0.92320  0.07930  0.90130  Biso   1.000  H
  C1350    1.0000 0.85769  0.99719  0.99248  Biso   1.000  C
  H1350    1.0000 0.85080  0.99970  0.01090  Biso   1.000  H
  C1351    1.0000 0.89464  0.93355  0.00334  Biso   1.000  C
  H1351    1.0000 0.91300  0.94020  0.00030  Biso   1.000  H
  C1352    1.0000 0.96810  0.11991  0.94479  Biso   1.000  C
  H1352    1.0000 0.97610  0.10420  0.95370  Biso   1.000  H
  N2028    1.0000 0.86856  0.97271  0.98185  Biso   1.000  N
  Cu339    1.0000 0.87669  0.52951  0.41280  Biso   1.000  Cu
  Cu340    1.0000 0.85004  0.55795  0.47543  Biso   1.000  Cu
  N2029    1.0000 0.85846  0.51647  0.47281  Biso   1.000  N
  N2030    1.0000 0.87086  0.50452  0.44880  Biso   1.000  N
  N2031    1.0000 0.89342  0.56541  0.42807  Biso   1.000  N
  N2032    1.0000 0.88591  0.57553  0.45514  Biso   1.000  N
  N2033    1.0000 0.85839  0.40799  0.51677  Biso   1.000  N
  N2034    1.0000 0.88795  0.40967  0.51573  Biso   1.000  N
  C1353    1.0000 0.84820  0.43064  0.50436  Biso   1.000  C
  H1353    1.0000 0.82900  0.43480  0.50190  Biso   1.000  H
  N2035    1.0000 0.87040  0.44704  0.49569  Biso   1.000  N
  C1354    1.0000 0.87679  0.47806  0.45450  Biso   1.000  C
  H1354    1.0000 0.88520  0.46510  0.44210  Biso   1.000  H
  N2036    1.0000 0.98153  0.64324  0.43822  Biso   1.000  N
  N2037    1.0000 0.94046  0.62232  0.43652  Biso   1.000  N
  N2038    1.0000 0.96175  0.66165  0.42572  Biso   1.000  N
  N2039    1.0000 0.92011  0.60141  0.43877  Biso   1.000  N
  C1355    1.0000 0.90189  0.59725  0.46092  Biso   1.000  C
  H1355    1.0000 0.90110  0.60820  0.47740  Biso   1.000  H
  C1356    1.0000 0.93733  0.64864  0.42510  Biso   1.000  C
  H1356    1.0000 0.92050  0.65620  0.41800  Biso   1.000  H
  C1357    1.0000 0.91405  0.58133  0.41872  Biso   1.000  C
  H1357    1.0000 0.92320  0.57930  0.40130  Biso   1.000  H
  C1358    1.0000 0.85769  0.49719  0.49248  Biso   1.000  C
  H1358    1.0000 0.85080  0.49970  0.51090  Biso   1.000  H
  C1359    1.0000 0.89464  0.43355  0.50334  Biso   1.000  C
  H1359    1.0000 0.91300  0.44020  0.50030  Biso   1.000  H
  C1360    1.0000 0.96810  0.61991  0.44479  Biso   1.000  C
  H1360    1.0000 0.97610  0.60420  0.45370  Biso   1.000  H
  N2040    1.0000 0.86856  0.47271  0.48185  Biso   1.000  N
  Cu341    1.0000 0.37669  0.02951  0.41280  Biso   1.000  Cu
  Cu342    1.0000 0.35004  0.05795  0.47543  Biso   1.000  Cu
  N2041    1.0000 0.35846  0.01647  0.47281  Biso   1.000  N
  N2042    1.0000 0.37086  0.00452  0.44880  Biso   1.000  N
  N2043    1.0000 0.39342  0.06541  0.42807  Biso   1.000  N
  N2044    1.0000 0.38591  0.07553  0.45514  Biso   1.000  N
  N2045    1.0000 0.35839  0.90799  0.51677  Biso   1.000  N
  N2046    1.0000 0.38795  0.90967  0.51573  Biso   1.000  N
  C1361    1.0000 0.34820  0.93064  0.50436  Biso   1.000  C
  H1361    1.0000 0.32900  0.93480  0.50190  Biso   1.000  H
  N2047    1.0000 0.37040  0.94704  0.49569  Biso   1.000  N
  C1362    1.0000 0.37679  0.97806  0.45450  Biso   1.000  C
  H1362    1.0000 0.38520  0.96510  0.44210  Biso   1.000  H
  N2048    1.0000 0.48153  0.14324  0.43822  Biso   1.000  N
  N2049    1.0000 0.44046  0.12232  0.43652  Biso   1.000  N
  N2050    1.0000 0.46175  0.16165  0.42572  Biso   1.000  N
  N2051    1.0000 0.42011  0.10141  0.43877  Biso   1.000  N
  C1363    1.0000 0.40189  0.09725  0.46092  Biso   1.000  C
  H1363    1.0000 0.40110  0.10820  0.47740  Biso   1.000  H
  C1364    1.0000 0.43733  0.14864  0.42510  Biso   1.000  C
  H1364    1.0000 0.42050  0.15620  0.41800  Biso   1.000  H
  C1365    1.0000 0.41405  0.08133  0.41872  Biso   1.000  C
  H1365    1.0000 0.42320  0.07930  0.40130  Biso   1.000  H
  C1366    1.0000 0.35769  0.99719  0.49248  Biso   1.000  C
  H1366    1.0000 0.35080  0.99970  0.51090  Biso   1.000  H
  C1367    1.0000 0.39464  0.93355  0.50334  Biso   1.000  C
  H1367    1.0000 0.41300  0.94020  0.50030  Biso   1.000  H
  C1368    1.0000 0.46810  0.11991  0.44479  Biso   1.000  C
  H1368    1.0000 0.47610  0.10420  0.45370  Biso   1.000  H
  N2052    1.0000 0.36856  0.97271  0.48185  Biso   1.000  N
  Cu343    1.0000 0.37669  0.52951  0.91280  Biso   1.000  Cu
  Cu344    1.0000 0.35004  0.55795  0.97543  Biso   1.000  Cu
  N2053    1.0000 0.35846  0.51647  0.97281  Biso   1.000  N
  N2054    1.0000 0.37086  0.50452  0.94880  Biso   1.000  N
  N2055    1.0000 0.39342  0.56541  0.92807  Biso   1.000  N
  N2056    1.0000 0.38591  0.57553  0.95514  Biso   1.000  N
  N2057    1.0000 0.35839  0.40799  0.01677  Biso   1.000  N
  N2058    1.0000 0.38795  0.40967  0.01573  Biso   1.000  N
  C1369    1.0000 0.34820  0.43064  0.00436  Biso   1.000  C
  H1369    1.0000 0.32900  0.43480  0.00190  Biso   1.000  H
  N2059    1.0000 0.37040  0.44704  0.99569  Biso   1.000  N
  C1370    1.0000 0.37679  0.47806  0.95450  Biso   1.000  C
  H1370    1.0000 0.38520  0.46510  0.94210  Biso   1.000  H
  N2060    1.0000 0.48153  0.64324  0.93822  Biso   1.000  N
  N2061    1.0000 0.44046  0.62232  0.93652  Biso   1.000  N
  N2062    1.0000 0.46175  0.66165  0.92572  Biso   1.000  N
  N2063    1.0000 0.42011  0.60141  0.93877  Biso   1.000  N
  C1371    1.0000 0.40189  0.59725  0.96092  Biso   1.000  C
  H1371    1.0000 0.40110  0.60820  0.97740  Biso   1.000  H
  C1372    1.0000 0.43733  0.64864  0.92510  Biso   1.000  C
  H1372    1.0000 0.42050  0.65620  0.91800  Biso   1.000  H
  C1373    1.0000 0.41405  0.58133  0.91872  Biso   1.000  C
  H1373    1.0000 0.42320  0.57930  0.90130  Biso   1.000  H
  C1374    1.0000 0.35769  0.49719  0.99248  Biso   1.000  C
  H1374    1.0000 0.35080  0.49970  0.01090  Biso   1.000  H
  C1375    1.0000 0.39464  0.43355  0.00334  Biso   1.000  C
  H1375    1.0000 0.41300  0.44020  0.00030  Biso   1.000  H
  C1376    1.0000 0.46810  0.61991  0.94479  Biso   1.000  C
  H1376    1.0000 0.47610  0.60420  0.95370  Biso   1.000  H
  N2064    1.0000 0.36856  0.47271  0.98185  Biso   1.000  N
  Cu345    1.0000 0.37331  0.52951  0.83720  Biso   1.000  Cu
  Cu346    1.0000 0.39996  0.55795  0.77457  Biso   1.000  Cu
  N2065    1.0000 0.39154  0.51647  0.77719  Biso   1.000  N
  N2066    1.0000 0.37914  0.50452  0.80120  Biso   1.000  N
  N2067    1.0000 0.35658  0.56541  0.82193  Biso   1.000  N
  N2068    1.0000 0.36409  0.57553  0.79486  Biso   1.000  N
  N2069    1.0000 0.39161  0.40799  0.73323  Biso   1.000  N
  N2070    1.0000 0.36205  0.40967  0.73427  Biso   1.000  N
  C1377    1.0000 0.40180  0.43064  0.74564  Biso   1.000  C
  H1377    1.0000 0.42100  0.43480  0.74810  Biso   1.000  H
  N2071    1.0000 0.37960  0.44704  0.75431  Biso   1.000  N
  C1378    1.0000 0.37321  0.47806  0.79550  Biso   1.000  C
  H1378    1.0000 0.36480  0.46510  0.80790  Biso   1.000  H
  N2072    1.0000 0.26847  0.64324  0.81178  Biso   1.000  N
  N2073    1.0000 0.30954  0.62232  0.81348  Biso   1.000  N
  N2074    1.0000 0.28825  0.66165  0.82428  Biso   1.000  N
  N2075    1.0000 0.32989  0.60141  0.81123  Biso   1.000  N
  C1379    1.0000 0.34811  0.59725  0.78908  Biso   1.000  C
  H1379    1.0000 0.34890  0.60820  0.77260  Biso   1.000  H
  C1380    1.0000 0.31267  0.64864  0.82490  Biso   1.000  C
  H1380    1.0000 0.32950  0.65620  0.83200  Biso   1.000  H
  C1381    1.0000 0.33595  0.58133  0.83128  Biso   1.000  C
  H1381    1.0000 0.32680  0.57930  0.84870  Biso   1.000  H
  C1382    1.0000 0.39231  0.49719  0.75752  Biso   1.000  C
  H1382    1.0000 0.39920  0.49970  0.73910  Biso   1.000  H
  C1383    1.0000 0.35536  0.43355  0.74666  Biso   1.000  C
  H1383    1.0000 0.33700  0.44020  0.74970  Biso   1.000  H
  C1384    1.0000 0.28190  0.61991  0.80521  Biso   1.000  C
  H1384    1.0000 0.27390  0.60420  0.79630  Biso   1.000  H
  N2076    1.0000 0.38144  0.47271  0.76815  Biso   1.000  N
  Cu347    1.0000 0.37331  0.02951  0.33720  Biso   1.000  Cu
  Cu348    1.0000 0.39996  0.05795  0.27457  Biso   1.000  Cu
  N2077    1.0000 0.39154  0.01647  0.27719  Biso   1.000  N
  N2078    1.0000 0.37914  0.00452  0.30120  Biso   1.000  N
  N2079    1.0000 0.35658  0.06541  0.32193  Biso   1.000  N
  N2080    1.0000 0.36409  0.07553  0.29486  Biso   1.000  N
  N2081    1.0000 0.39161  0.90799  0.23323  Biso   1.000  N
  N2082    1.0000 0.36205  0.90967  0.23427  Biso   1.000  N
  C1385    1.0000 0.40180  0.93064  0.24564  Biso   1.000  C
  H1385    1.0000 0.42100  0.93480  0.24810  Biso   1.000  H
  N2083    1.0000 0.37960  0.94704  0.25431  Biso   1.000  N
  C1386    1.0000 0.37321  0.97806  0.29550  Biso   1.000  C
  H1386    1.0000 0.36480  0.96510  0.30790  Biso   1.000  H
  N2084    1.0000 0.26847  0.14324  0.31178  Biso   1.000  N
  N2085    1.0000 0.30954  0.12232  0.31348  Biso   1.000  N
  N2086    1.0000 0.28825  0.16165  0.32428  Biso   1.000  N
  N2087    1.0000 0.32989  0.10141  0.31123  Biso   1.000  N
  C1387    1.0000 0.34811  0.09725  0.28908  Biso   1.000  C
  H1387    1.0000 0.34890  0.10820  0.27260  Biso   1.000  H
  C1388    1.0000 0.31267  0.14864  0.32490  Biso   1.000  C
  H1388    1.0000 0.32950  0.15620  0.33200  Biso   1.000  H
  C1389    1.0000 0.33595  0.08133  0.33128  Biso   1.000  C
  H1389    1.0000 0.32680  0.07930  0.34870  Biso   1.000  H
  C1390    1.0000 0.39231  0.99719  0.25752  Biso   1.000  C
  H1390    1.0000 0.39920  0.99970  0.23910  Biso   1.000  H
  C1391    1.0000 0.35536  0.93355  0.24666  Biso   1.000  C
  H1391    1.0000 0.33700  0.94020  0.24970  Biso   1.000  H
  C1392    1.0000 0.28190  0.11991  0.30521  Biso   1.000  C
  H1392    1.0000 0.27390  0.10420  0.29630  Biso   1.000  H
  N2088    1.0000 0.38144  0.97271  0.26815  Biso   1.000  N
  Cu349    1.0000 0.87331  0.52951  0.33720  Biso   1.000  Cu
  Cu350    1.0000 0.89996  0.55795  0.27457  Biso   1.000  Cu
  N2089    1.0000 0.89154  0.51647  0.27719  Biso   1.000  N
  N2090    1.0000 0.87914  0.50452  0.30120  Biso   1.000  N
  N2091    1.0000 0.85658  0.56541  0.32193  Biso   1.000  N
  N2092    1.0000 0.86409  0.57553  0.29486  Biso   1.000  N
  N2093    1.0000 0.89161  0.40799  0.23323  Biso   1.000  N
  N2094    1.0000 0.86205  0.40967  0.23427  Biso   1.000  N
  C1393    1.0000 0.90180  0.43064  0.24564  Biso   1.000  C
  H1393    1.0000 0.92100  0.43480  0.24810  Biso   1.000  H
  N2095    1.0000 0.87960  0.44704  0.25431  Biso   1.000  N
  C1394    1.0000 0.87321  0.47806  0.29550  Biso   1.000  C
  H1394    1.0000 0.86480  0.46510  0.30790  Biso   1.000  H
  N2096    1.0000 0.76847  0.64324  0.31178  Biso   1.000  N
  N2097    1.0000 0.80954  0.62232  0.31348  Biso   1.000  N
  N2098    1.0000 0.78825  0.66165  0.32428  Biso   1.000  N
  N2099    1.0000 0.82989  0.60141  0.31123  Biso   1.000  N
  C1395    1.0000 0.84811  0.59725  0.28908  Biso   1.000  C
  H1395    1.0000 0.84890  0.60820  0.27260  Biso   1.000  H
  C1396    1.0000 0.81267  0.64864  0.32490  Biso   1.000  C
  H1396    1.0000 0.82950  0.65620  0.33200  Biso   1.000  H
  C1397    1.0000 0.83595  0.58133  0.33128  Biso   1.000  C
  H1397    1.0000 0.82680  0.57930  0.34870  Biso   1.000  H
  C1398    1.0000 0.89231  0.49719  0.25752  Biso   1.000  C
  H1398    1.0000 0.89920  0.49970  0.23910  Biso   1.000  H
  C1399    1.0000 0.85536  0.43355  0.24666  Biso   1.000  C
  H1399    1.0000 0.83700  0.44020  0.24970  Biso   1.000  H
  C1400    1.0000 0.78190  0.61991  0.30521  Biso   1.000  C
  H1400    1.0000 0.77390  0.60420  0.29630  Biso   1.000  H
  N2100    1.0000 0.88144  0.47271  0.26815  Biso   1.000  N
  Cu351    1.0000 0.87331  0.02951  0.83720  Biso   1.000  Cu
  Cu352    1.0000 0.89996  0.05795  0.77457  Biso   1.000  Cu
  N2101    1.0000 0.89154  0.01647  0.77719  Biso   1.000  N
  N2102    1.0000 0.87914  0.00452  0.80120  Biso   1.000  N
  N2103    1.0000 0.85658  0.06541  0.82193  Biso   1.000  N
  N2104    1.0000 0.86409  0.07553  0.79486  Biso   1.000  N
  N2105    1.0000 0.89161  0.90799  0.73323  Biso   1.000  N
  N2106    1.0000 0.86205  0.90967  0.73427  Biso   1.000  N
  C1401    1.0000 0.90180  0.93064  0.74564  Biso   1.000  C
  H1401    1.0000 0.92100  0.93480  0.74810  Biso   1.000  H
  N2107    1.0000 0.87960  0.94704  0.75431  Biso   1.000  N
  C1402    1.0000 0.87321  0.97806  0.79550  Biso   1.000  C
  H1402    1.0000 0.86480  0.96510  0.80790  Biso   1.000  H
  N2108    1.0000 0.76847  0.14324  0.81178  Biso   1.000  N
  N2109    1.0000 0.80954  0.12232  0.81348  Biso   1.000  N
  N2110    1.0000 0.78825  0.16165  0.82428  Biso   1.000  N
  N2111    1.0000 0.82989  0.10141  0.81123  Biso   1.000  N
  C1403    1.0000 0.84811  0.09725  0.78908  Biso   1.000  C
  H1403    1.0000 0.84890  0.10820  0.77260  Biso   1.000  H
  C1404    1.0000 0.81267  0.14864  0.82490  Biso   1.000  C
  H1404    1.0000 0.82950  0.15620  0.83200  Biso   1.000  H
  C1405    1.0000 0.83595  0.08133  0.83128  Biso   1.000  C
  H1405    1.0000 0.82680  0.07930  0.84870  Biso   1.000  H
  C1406    1.0000 0.89231  0.99719  0.75752  Biso   1.000  C
  H1406    1.0000 0.89920  0.99970  0.73910  Biso   1.000  H
  C1407    1.0000 0.85536  0.93355  0.74666  Biso   1.000  C
  H1407    1.0000 0.83700  0.94020  0.74970  Biso   1.000  H
  C1408    1.0000 0.78190  0.11991  0.80521  Biso   1.000  C
  H1408    1.0000 0.77390  0.10420  0.79630  Biso   1.000  H
  N2112    1.0000 0.88144  0.97271  0.76815  Biso   1.000  N
  Cu353    1.0000 0.72050  0.33720  0.37669  Biso   1.000  Cu
  Cu354    1.0000 0.69205  0.27457  0.35004  Biso   1.000  Cu
  N2113    1.0000 0.73353  0.27719  0.35846  Biso   1.000  N
  N2114    1.0000 0.74548  0.30120  0.37086  Biso   1.000  N
  N2115    1.0000 0.68459  0.32193  0.39342  Biso   1.000  N
  N2116    1.0000 0.67447  0.29486  0.38591  Biso   1.000  N
  N2117    1.0000 0.84201  0.23323  0.35839  Biso   1.000  N
  N2118    1.0000 0.84033  0.23427  0.38795  Biso   1.000  N
  C1409    1.0000 0.81936  0.24564  0.34820  Biso   1.000  C
  H1409    1.0000 0.81520  0.24810  0.32900  Biso   1.000  H
  N2119    1.0000 0.80296  0.25431  0.37040  Biso   1.000  N
  C1410    1.0000 0.77194  0.29550  0.37679  Biso   1.000  C
  H1410    1.0000 0.78490  0.30790  0.38520  Biso   1.000  H
  N2120    1.0000 0.60676  0.31178  0.48153  Biso   1.000  N
  N2121    1.0000 0.62768  0.31348  0.44046  Biso   1.000  N
  N2122    1.0000 0.58835  0.32428  0.46175  Biso   1.000  N
  N2123    1.0000 0.64859  0.31123  0.42011  Biso   1.000  N
  C1411    1.0000 0.65275  0.28908  0.40189  Biso   1.000  C
  H1411    1.0000 0.64180  0.27260  0.40110  Biso   1.000  H
  C1412    1.0000 0.60136  0.32490  0.43733  Biso   1.000  C
  H1412    1.0000 0.59380  0.33200  0.42050  Biso   1.000  H
  C1413    1.0000 0.66867  0.33128  0.41405  Biso   1.000  C
  H1413    1.0000 0.67070  0.34870  0.42320  Biso   1.000  H
  C1414    1.0000 0.75281  0.25752  0.35769  Biso   1.000  C
  H1414    1.0000 0.75030  0.23910  0.35080  Biso   1.000  H
  C1415    1.0000 0.81645  0.24666  0.39464  Biso   1.000  C
  H1415    1.0000 0.80980  0.24970  0.41300  Biso   1.000  H
  C1416    1.0000 0.63009  0.30521  0.46810  Biso   1.000  C
  H1416    1.0000 0.64580  0.29630  0.47610  Biso   1.000  H
  N2124    1.0000 0.77729  0.26815  0.36856  Biso   1.000  N
  Cu355    1.0000 0.72050  0.83720  0.87669  Biso   1.000  Cu
  Cu356    1.0000 0.69205  0.77457  0.85004  Biso   1.000  Cu
  N2125    1.0000 0.73353  0.77719  0.85846  Biso   1.000  N
  N2126    1.0000 0.74548  0.80120  0.87086  Biso   1.000  N
  N2127    1.0000 0.68459  0.82193  0.89342  Biso   1.000  N
  N2128    1.0000 0.67447  0.79486  0.88591  Biso   1.000  N
  N2129    1.0000 0.84201  0.73323  0.85839  Biso   1.000  N
  N2130    1.0000 0.84033  0.73427  0.88795  Biso   1.000  N
  C1417    1.0000 0.81936  0.74564  0.84820  Biso   1.000  C
  H1417    1.0000 0.81520  0.74810  0.82900  Biso   1.000  H
  N2131    1.0000 0.80296  0.75431  0.87040  Biso   1.000  N
  C1418    1.0000 0.77194  0.79550  0.87679  Biso   1.000  C
  H1418    1.0000 0.78490  0.80790  0.88520  Biso   1.000  H
  N2132    1.0000 0.60676  0.81178  0.98153  Biso   1.000  N
  N2133    1.0000 0.62768  0.81348  0.94046  Biso   1.000  N
  N2134    1.0000 0.58835  0.82428  0.96175  Biso   1.000  N
  N2135    1.0000 0.64859  0.81123  0.92011  Biso   1.000  N
  C1419    1.0000 0.65275  0.78908  0.90189  Biso   1.000  C
  H1419    1.0000 0.64180  0.77260  0.90110  Biso   1.000  H
  C1420    1.0000 0.60136  0.82490  0.93733  Biso   1.000  C
  H1420    1.0000 0.59380  0.83200  0.92050  Biso   1.000  H
  C1421    1.0000 0.66867  0.83128  0.91405  Biso   1.000  C
  H1421    1.0000 0.67070  0.84870  0.92320  Biso   1.000  H
  C1422    1.0000 0.75281  0.75752  0.85769  Biso   1.000  C
  H1422    1.0000 0.75030  0.73910  0.85080  Biso   1.000  H
  C1423    1.0000 0.81645  0.74666  0.89464  Biso   1.000  C
  H1423    1.0000 0.80980  0.74970  0.91300  Biso   1.000  H
  C1424    1.0000 0.63009  0.80521  0.96810  Biso   1.000  C
  H1424    1.0000 0.64580  0.79630  0.97610  Biso   1.000  H
  N2136    1.0000 0.77729  0.76815  0.86856  Biso   1.000  N
  Cu357    1.0000 0.22050  0.33720  0.87669  Biso   1.000  Cu
  Cu358    1.0000 0.19205  0.27457  0.85004  Biso   1.000  Cu
  N2137    1.0000 0.23353  0.27719  0.85846  Biso   1.000  N
  N2138    1.0000 0.24548  0.30120  0.87086  Biso   1.000  N
  N2139    1.0000 0.18459  0.32193  0.89342  Biso   1.000  N
  N2140    1.0000 0.17447  0.29486  0.88591  Biso   1.000  N
  N2141    1.0000 0.34201  0.23323  0.85839  Biso   1.000  N
  N2142    1.0000 0.34033  0.23427  0.88795  Biso   1.000  N
  C1425    1.0000 0.31936  0.24564  0.84820  Biso   1.000  C
  H1425    1.0000 0.31520  0.24810  0.82900  Biso   1.000  H
  N2143    1.0000 0.30296  0.25431  0.87040  Biso   1.000  N
  C1426    1.0000 0.27194  0.29550  0.87679  Biso   1.000  C
  H1426    1.0000 0.28490  0.30790  0.88520  Biso   1.000  H
  N2144    1.0000 0.10676  0.31178  0.98153  Biso   1.000  N
  N2145    1.0000 0.12768  0.31348  0.94046  Biso   1.000  N
  N2146    1.0000 0.08835  0.32428  0.96175  Biso   1.000  N
  N2147    1.0000 0.14859  0.31123  0.92011  Biso   1.000  N
  C1427    1.0000 0.15275  0.28908  0.90189  Biso   1.000  C
  H1427    1.0000 0.14180  0.27260  0.90110  Biso   1.000  H
  C1428    1.0000 0.10136  0.32490  0.93733  Biso   1.000  C
  H1428    1.0000 0.09380  0.33200  0.92050  Biso   1.000  H
  C1429    1.0000 0.16867  0.33128  0.91405  Biso   1.000  C
  H1429    1.0000 0.17070  0.34870  0.92320  Biso   1.000  H
  C1430    1.0000 0.25281  0.25752  0.85769  Biso   1.000  C
  H1430    1.0000 0.25030  0.23910  0.85080  Biso   1.000  H
  C1431    1.0000 0.31645  0.24666  0.89464  Biso   1.000  C
  H1431    1.0000 0.30980  0.24970  0.91300  Biso   1.000  H
  C1432    1.0000 0.13009  0.30521  0.96810  Biso   1.000  C
  H1432    1.0000 0.14580  0.29630  0.97610  Biso   1.000  H
  N2148    1.0000 0.27729  0.26815  0.86856  Biso   1.000  N
  Cu359    1.0000 0.22050  0.83720  0.37669  Biso   1.000  Cu
  Cu360    1.0000 0.19205  0.77457  0.35004  Biso   1.000  Cu
  N2149    1.0000 0.23353  0.77719  0.35846  Biso   1.000  N
  N2150    1.0000 0.24548  0.80120  0.37086  Biso   1.000  N
  N2151    1.0000 0.18459  0.82193  0.39342  Biso   1.000  N
  N2152    1.0000 0.17447  0.79486  0.38591  Biso   1.000  N
  N2153    1.0000 0.34201  0.73323  0.35839  Biso   1.000  N
  N2154    1.0000 0.34033  0.73427  0.38795  Biso   1.000  N
  C1433    1.0000 0.31936  0.74564  0.34820  Biso   1.000  C
  H1433    1.0000 0.31520  0.74810  0.32900  Biso   1.000  H
  N2155    1.0000 0.30296  0.75431  0.37040  Biso   1.000  N
  C1434    1.0000 0.27194  0.79550  0.37679  Biso   1.000  C
  H1434    1.0000 0.28490  0.80790  0.38520  Biso   1.000  H
  N2156    1.0000 0.10676  0.81178  0.48153  Biso   1.000  N
  N2157    1.0000 0.12768  0.81348  0.44046  Biso   1.000  N
  N2158    1.0000 0.08835  0.82428  0.46175  Biso   1.000  N
  N2159    1.0000 0.14859  0.81123  0.42011  Biso   1.000  N
  C1435    1.0000 0.15275  0.78908  0.40189  Biso   1.000  C
  H1435    1.0000 0.14180  0.77260  0.40110  Biso   1.000  H
  C1436    1.0000 0.10136  0.82490  0.43733  Biso   1.000  C
  H1436    1.0000 0.09380  0.83200  0.42050  Biso   1.000  H
  C1437    1.0000 0.16867  0.83128  0.41405  Biso   1.000  C
  H1437    1.0000 0.17070  0.84870  0.42320  Biso   1.000  H
  C1438    1.0000 0.25281  0.75752  0.35769  Biso   1.000  C
  H1438    1.0000 0.25030  0.73910  0.35080  Biso   1.000  H
  C1439    1.0000 0.31645  0.74666  0.39464  Biso   1.000  C
  H1439    1.0000 0.30980  0.74970  0.41300  Biso   1.000  H
  C1440    1.0000 0.13009  0.80521  0.46810  Biso   1.000  C
  H1440    1.0000 0.14580  0.79630  0.47610  Biso   1.000  H
  N2160    1.0000 0.27729  0.76815  0.36856  Biso   1.000  N
  Cu361    1.0000 0.22050  0.41280  0.87331  Biso   1.000  Cu
  Cu362    1.0000 0.19205  0.47543  0.89996  Biso   1.000  Cu
  N2161    1.0000 0.23353  0.47281  0.89154  Biso   1.000  N
  N2162    1.0000 0.24548  0.44880  0.87914  Biso   1.000  N
  N2163    1.0000 0.18459  0.42807  0.85658  Biso   1.000  N
  N2164    1.0000 0.17447  0.45514  0.86409  Biso   1.000  N
  N2165    1.0000 0.34201  0.51677  0.89161  Biso   1.000  N
  N2166    1.0000 0.34033  0.51573  0.86205  Biso   1.000  N
  C1441    1.0000 0.31936  0.50436  0.90180  Biso   1.000  C
  H1441    1.0000 0.31520  0.50190  0.92100  Biso   1.000  H
  N2167    1.0000 0.30296  0.49569  0.87960  Biso   1.000  N
  C1442    1.0000 0.27194  0.45450  0.87321  Biso   1.000  C
  H1442    1.0000 0.28490  0.44210  0.86480  Biso   1.000  H
  N2168    1.0000 0.10676  0.43822  0.76847  Biso   1.000  N
  N2169    1.0000 0.12768  0.43652  0.80954  Biso   1.000  N
  N2170    1.0000 0.08835  0.42572  0.78825  Biso   1.000  N
  N2171    1.0000 0.14859  0.43877  0.82989  Biso   1.000  N
  C1443    1.0000 0.15275  0.46092  0.84811  Biso   1.000  C
  H1443    1.0000 0.14180  0.47740  0.84890  Biso   1.000  H
  C1444    1.0000 0.10136  0.42510  0.81267  Biso   1.000  C
  H1444    1.0000 0.09380  0.41800  0.82950  Biso   1.000  H
  C1445    1.0000 0.16867  0.41872  0.83595  Biso   1.000  C
  H1445    1.0000 0.17070  0.40130  0.82680  Biso   1.000  H
  C1446    1.0000 0.25281  0.49248  0.89231  Biso   1.000  C
  H1446    1.0000 0.25030  0.51090  0.89920  Biso   1.000  H
  C1447    1.0000 0.31645  0.50334  0.85536  Biso   1.000  C
  H1447    1.0000 0.30980  0.50030  0.83700  Biso   1.000  H
  C1448    1.0000 0.13009  0.44479  0.78190  Biso   1.000  C
  H1448    1.0000 0.14580  0.45370  0.77390  Biso   1.000  H
  N2172    1.0000 0.27729  0.48185  0.88144  Biso   1.000  N
  Cu363    1.0000 0.22050  0.91280  0.37331  Biso   1.000  Cu
  Cu364    1.0000 0.19205  0.97543  0.39996  Biso   1.000  Cu
  N2173    1.0000 0.23353  0.97281  0.39154  Biso   1.000  N
  N2174    1.0000 0.24548  0.94880  0.37914  Biso   1.000  N
  N2175    1.0000 0.18459  0.92807  0.35658  Biso   1.000  N
  N2176    1.0000 0.17447  0.95514  0.36409  Biso   1.000  N
  N2177    1.0000 0.34201  0.01677  0.39161  Biso   1.000  N
  N2178    1.0000 0.34033  0.01573  0.36205  Biso   1.000  N
  C1449    1.0000 0.31936  0.00436  0.40180  Biso   1.000  C
  H1449    1.0000 0.31520  0.00190  0.42100  Biso   1.000  H
  N2179    1.0000 0.30296  0.99569  0.37960  Biso   1.000  N
  C1450    1.0000 0.27194  0.95450  0.37321  Biso   1.000  C
  H1450    1.0000 0.28490  0.94210  0.36480  Biso   1.000  H
  N2180    1.0000 0.10676  0.93822  0.26847  Biso   1.000  N
  N2181    1.0000 0.12768  0.93652  0.30954  Biso   1.000  N
  N2182    1.0000 0.08835  0.92572  0.28825  Biso   1.000  N
  N2183    1.0000 0.14859  0.93877  0.32989  Biso   1.000  N
  C1451    1.0000 0.15275  0.96092  0.34811  Biso   1.000  C
  H1451    1.0000 0.14180  0.97740  0.34890  Biso   1.000  H
  C1452    1.0000 0.10136  0.92510  0.31267  Biso   1.000  C
  H1452    1.0000 0.09380  0.91800  0.32950  Biso   1.000  H
  C1453    1.0000 0.16867  0.91872  0.33595  Biso   1.000  C
  H1453    1.0000 0.17070  0.90130  0.32680  Biso   1.000  H
  C1454    1.0000 0.25281  0.99248  0.39231  Biso   1.000  C
  H1454    1.0000 0.25030  0.01090  0.39920  Biso   1.000  H
  C1455    1.0000 0.31645  0.00334  0.35536  Biso   1.000  C
  H1455    1.0000 0.30980  0.00030  0.33700  Biso   1.000  H
  C1456    1.0000 0.13009  0.94479  0.28190  Biso   1.000  C
  H1456    1.0000 0.14580  0.95370  0.27390  Biso   1.000  H
  N2184    1.0000 0.27729  0.98185  0.38144  Biso   1.000  N
  Cu365    1.0000 0.72050  0.41280  0.37331  Biso   1.000  Cu
  Cu366    1.0000 0.69205  0.47543  0.39996  Biso   1.000  Cu
  N2185    1.0000 0.73353  0.47281  0.39154  Biso   1.000  N
  N2186    1.0000 0.74548  0.44880  0.37914  Biso   1.000  N
  N2187    1.0000 0.68459  0.42807  0.35658  Biso   1.000  N
  N2188    1.0000 0.67447  0.45514  0.36409  Biso   1.000  N
  N2189    1.0000 0.84201  0.51677  0.39161  Biso   1.000  N
  N2190    1.0000 0.84033  0.51573  0.36205  Biso   1.000  N
  C1457    1.0000 0.81936  0.50436  0.40180  Biso   1.000  C
  H1457    1.0000 0.81520  0.50190  0.42100  Biso   1.000  H
  N2191    1.0000 0.80296  0.49569  0.37960  Biso   1.000  N
  C1458    1.0000 0.77194  0.45450  0.37321  Biso   1.000  C
  H1458    1.0000 0.78490  0.44210  0.36480  Biso   1.000  H
  N2192    1.0000 0.60676  0.43822  0.26847  Biso   1.000  N
  N2193    1.0000 0.62768  0.43652  0.30954  Biso   1.000  N
  N2194    1.0000 0.58835  0.42572  0.28825  Biso   1.000  N
  N2195    1.0000 0.64859  0.43877  0.32989  Biso   1.000  N
  C1459    1.0000 0.65275  0.46092  0.34811  Biso   1.000  C
  H1459    1.0000 0.64180  0.47740  0.34890  Biso   1.000  H
  C1460    1.0000 0.60136  0.42510  0.31267  Biso   1.000  C
  H1460    1.0000 0.59380  0.41800  0.32950  Biso   1.000  H
  C1461    1.0000 0.66867  0.41872  0.33595  Biso   1.000  C
  H1461    1.0000 0.67070  0.40130  0.32680  Biso   1.000  H
  C1462    1.0000 0.75281  0.49248  0.39231  Biso   1.000  C
  H1462    1.0000 0.75030  0.51090  0.39920  Biso   1.000  H
  C1463    1.0000 0.81645  0.50334  0.35536  Biso   1.000  C
  H1463    1.0000 0.80980  0.50030  0.33700  Biso   1.000  H
  C1464    1.0000 0.63009  0.44479  0.28190  Biso   1.000  C
  H1464    1.0000 0.64580  0.45370  0.27390  Biso   1.000  H
  N2196    1.0000 0.77729  0.48185  0.38144  Biso   1.000  N
  Cu367    1.0000 0.72050  0.91280  0.87331  Biso   1.000  Cu
  Cu368    1.0000 0.69205  0.97543  0.89996  Biso   1.000  Cu
  N2197    1.0000 0.73353  0.97281  0.89154  Biso   1.000  N
  N2198    1.0000 0.74548  0.94880  0.87914  Biso   1.000  N
  N2199    1.0000 0.68459  0.92807  0.85658  Biso   1.000  N
  N2200    1.0000 0.67447  0.95514  0.86409  Biso   1.000  N
  N2201    1.0000 0.84201  0.01677  0.89161  Biso   1.000  N
  N2202    1.0000 0.84033  0.01573  0.86205  Biso   1.000  N
  C1465    1.0000 0.81936  0.00436  0.90180  Biso   1.000  C
  H1465    1.0000 0.81520  0.00190  0.92100  Biso   1.000  H
  N2203    1.0000 0.80296  0.99569  0.87960  Biso   1.000  N
  C1466    1.0000 0.77194  0.95450  0.87321  Biso   1.000  C
  H1466    1.0000 0.78490  0.94210  0.86480  Biso   1.000  H
  N2204    1.0000 0.60676  0.93822  0.76847  Biso   1.000  N
  N2205    1.0000 0.62768  0.93652  0.80954  Biso   1.000  N
  N2206    1.0000 0.58835  0.92572  0.78825  Biso   1.000  N
  N2207    1.0000 0.64859  0.93877  0.82989  Biso   1.000  N
  C1467    1.0000 0.65275  0.96092  0.84811  Biso   1.000  C
  H1467    1.0000 0.64180  0.97740  0.84890  Biso   1.000  H
  C1468    1.0000 0.60136  0.92510  0.81267  Biso   1.000  C
  H1468    1.0000 0.59380  0.91800  0.82950  Biso   1.000  H
  C1469    1.0000 0.66867  0.91872  0.83595  Biso   1.000  C
  H1469    1.0000 0.67070  0.90130  0.82680  Biso   1.000  H
  C1470    1.0000 0.75281  0.99248  0.89231  Biso   1.000  C
  H1470    1.0000 0.75030  0.01090  0.89920  Biso   1.000  H
  C1471    1.0000 0.81645  0.00334  0.85536  Biso   1.000  C
  H1471    1.0000 0.80980  0.00030  0.83700  Biso   1.000  H
  C1472    1.0000 0.63009  0.94479  0.78190  Biso   1.000  C
  H1472    1.0000 0.64580  0.95370  0.77390  Biso   1.000  H
  N2208    1.0000 0.77729  0.98185  0.88144  Biso   1.000  N
  Cu369    1.0000 0.52951  0.83720  0.37331  Biso   1.000  Cu
  Cu370    1.0000 0.55795  0.77457  0.39996  Biso   1.000  Cu
  N2209    1.0000 0.51647  0.77719  0.39154  Biso   1.000  N
  N2210    1.0000 0.50452  0.80120  0.37914  Biso   1.000  N
  N2211    1.0000 0.56541  0.82193  0.35658  Biso   1.000  N
  N2212    1.0000 0.57553  0.79486  0.36409  Biso   1.000  N
  N2213    1.0000 0.40799  0.73323  0.39161  Biso   1.000  N
  N2214    1.0000 0.40967  0.73427  0.36205  Biso   1.000  N
  C1473    1.0000 0.43064  0.74564  0.40180  Biso   1.000  C
  H1473    1.0000 0.43480  0.74810  0.42100  Biso   1.000  H
  N2215    1.0000 0.44704  0.75431  0.37960  Biso   1.000  N
  C1474    1.0000 0.47806  0.79550  0.37321  Biso   1.000  C
  H1474    1.0000 0.46510  0.80790  0.36480  Biso   1.000  H
  N2216    1.0000 0.64324  0.81178  0.26847  Biso   1.000  N
  N2217    1.0000 0.62232  0.81348  0.30954  Biso   1.000  N
  N2218    1.0000 0.66165  0.82428  0.28825  Biso   1.000  N
  N2219    1.0000 0.60141  0.81123  0.32989  Biso   1.000  N
  C1475    1.0000 0.59725  0.78908  0.34811  Biso   1.000  C
  H1475    1.0000 0.60820  0.77260  0.34890  Biso   1.000  H
  C1476    1.0000 0.64864  0.82490  0.31267  Biso   1.000  C
  H1476    1.0000 0.65620  0.83200  0.32950  Biso   1.000  H
  C1477    1.0000 0.58133  0.83128  0.33595  Biso   1.000  C
  H1477    1.0000 0.57930  0.84870  0.32680  Biso   1.000  H
  C1478    1.0000 0.49719  0.75752  0.39231  Biso   1.000  C
  H1478    1.0000 0.49970  0.73910  0.39920  Biso   1.000  H
  C1479    1.0000 0.43355  0.74666  0.35536  Biso   1.000  C
  H1479    1.0000 0.44020  0.74970  0.33700  Biso   1.000  H
  C1480    1.0000 0.61991  0.80521  0.28190  Biso   1.000  C
  H1480    1.0000 0.60420  0.79630  0.27390  Biso   1.000  H
  N2220    1.0000 0.47271  0.76815  0.38144  Biso   1.000  N
  Cu371    1.0000 0.52951  0.33720  0.87331  Biso   1.000  Cu
  Cu372    1.0000 0.55795  0.27457  0.89996  Biso   1.000  Cu
  N2221    1.0000 0.51647  0.27719  0.89154  Biso   1.000  N
  N2222    1.0000 0.50452  0.30120  0.87914  Biso   1.000  N
  N2223    1.0000 0.56541  0.32193  0.85658  Biso   1.000  N
  N2224    1.0000 0.57553  0.29486  0.86409  Biso   1.000  N
  N2225    1.0000 0.40799  0.23323  0.89161  Biso   1.000  N
  N2226    1.0000 0.40967  0.23427  0.86205  Biso   1.000  N
  C1481    1.0000 0.43064  0.24564  0.90180  Biso   1.000  C
  H1481    1.0000 0.43480  0.24810  0.92100  Biso   1.000  H
  N2227    1.0000 0.44704  0.25431  0.87960  Biso   1.000  N
  C1482    1.0000 0.47806  0.29550  0.87321  Biso   1.000  C
  H1482    1.0000 0.46510  0.30790  0.86480  Biso   1.000  H
  N2228    1.0000 0.64324  0.31178  0.76847  Biso   1.000  N
  N2229    1.0000 0.62232  0.31348  0.80954  Biso   1.000  N
  N2230    1.0000 0.66165  0.32428  0.78825  Biso   1.000  N
  N2231    1.0000 0.60141  0.31123  0.82989  Biso   1.000  N
  C1483    1.0000 0.59725  0.28908  0.84811  Biso   1.000  C
  H1483    1.0000 0.60820  0.27260  0.84890  Biso   1.000  H
  C1484    1.0000 0.64864  0.32490  0.81267  Biso   1.000  C
  H1484    1.0000 0.65620  0.33200  0.82950  Biso   1.000  H
  C1485    1.0000 0.58133  0.33128  0.83595  Biso   1.000  C
  H1485    1.0000 0.57930  0.34870  0.82680  Biso   1.000  H
  C1486    1.0000 0.49719  0.25752  0.89231  Biso   1.000  C
  H1486    1.0000 0.49970  0.23910  0.89920  Biso   1.000  H
  C1487    1.0000 0.43355  0.24666  0.85536  Biso   1.000  C
  H1487    1.0000 0.44020  0.24970  0.83700  Biso   1.000  H
  C1488    1.0000 0.61991  0.30521  0.78190  Biso   1.000  C
  H1488    1.0000 0.60420  0.29630  0.77390  Biso   1.000  H
  N2232    1.0000 0.47271  0.26815  0.88144  Biso   1.000  N
  Cu373    1.0000 0.02951  0.83720  0.87331  Biso   1.000  Cu
  Cu374    1.0000 0.05795  0.77457  0.89996  Biso   1.000  Cu
  N2233    1.0000 0.01647  0.77719  0.89154  Biso   1.000  N
  N2234    1.0000 0.00452  0.80120  0.87914  Biso   1.000  N
  N2235    1.0000 0.06541  0.82193  0.85658  Biso   1.000  N
  N2236    1.0000 0.07553  0.79486  0.86409  Biso   1.000  N
  N2237    1.0000 0.90799  0.73323  0.89161  Biso   1.000  N
  N2238    1.0000 0.90967  0.73427  0.86205  Biso   1.000  N
  C1489    1.0000 0.93064  0.74564  0.90180  Biso   1.000  C
  H1489    1.0000 0.93480  0.74810  0.92100  Biso   1.000  H
  N2239    1.0000 0.94704  0.75431  0.87960  Biso   1.000  N
  C1490    1.0000 0.97806  0.79550  0.87321  Biso   1.000  C
  H1490    1.0000 0.96510  0.80790  0.86480  Biso   1.000  H
  N2240    1.0000 0.14324  0.81178  0.76847  Biso   1.000  N
  N2241    1.0000 0.12232  0.81348  0.80954  Biso   1.000  N
  N2242    1.0000 0.16165  0.82428  0.78825  Biso   1.000  N
  N2243    1.0000 0.10141  0.81123  0.82989  Biso   1.000  N
  C1491    1.0000 0.09725  0.78908  0.84811  Biso   1.000  C
  H1491    1.0000 0.10820  0.77260  0.84890  Biso   1.000  H
  C1492    1.0000 0.14864  0.82490  0.81267  Biso   1.000  C
  H1492    1.0000 0.15620  0.83200  0.82950  Biso   1.000  H
  C1493    1.0000 0.08133  0.83128  0.83595  Biso   1.000  C
  H1493    1.0000 0.07930  0.84870  0.82680  Biso   1.000  H
  C1494    1.0000 0.99719  0.75752  0.89231  Biso   1.000  C
  H1494    1.0000 0.99970  0.73910  0.89920  Biso   1.000  H
  C1495    1.0000 0.93355  0.74666  0.85536  Biso   1.000  C
  H1495    1.0000 0.94020  0.74970  0.83700  Biso   1.000  H
  C1496    1.0000 0.11991  0.80521  0.78190  Biso   1.000  C
  H1496    1.0000 0.10420  0.79630  0.77390  Biso   1.000  H
  N2244    1.0000 0.97271  0.76815  0.88144  Biso   1.000  N
  Cu375    1.0000 0.02951  0.33720  0.37331  Biso   1.000  Cu
  Cu376    1.0000 0.05795  0.27457  0.39996  Biso   1.000  Cu
  N2245    1.0000 0.01647  0.27719  0.39154  Biso   1.000  N
  N2246    1.0000 0.00452  0.30120  0.37914  Biso   1.000  N
  N2247    1.0000 0.06541  0.32193  0.35658  Biso   1.000  N
  N2248    1.0000 0.07553  0.29486  0.36409  Biso   1.000  N
  N2249    1.0000 0.90799  0.23323  0.39161  Biso   1.000  N
  N2250    1.0000 0.90967  0.23427  0.36205  Biso   1.000  N
  C1497    1.0000 0.93064  0.24564  0.40180  Biso   1.000  C
  H1497    1.0000 0.93480  0.24810  0.42100  Biso   1.000  H
  N2251    1.0000 0.94704  0.25431  0.37960  Biso   1.000  N
  C1498    1.0000 0.97806  0.29550  0.37321  Biso   1.000  C
  H1498    1.0000 0.96510  0.30790  0.36480  Biso   1.000  H
  N2252    1.0000 0.14324  0.31178  0.26847  Biso   1.000  N
  N2253    1.0000 0.12232  0.31348  0.30954  Biso   1.000  N
  N2254    1.0000 0.16165  0.32428  0.28825  Biso   1.000  N
  N2255    1.0000 0.10141  0.31123  0.32989  Biso   1.000  N
  C1499    1.0000 0.09725  0.28908  0.34811  Biso   1.000  C
  H1499    1.0000 0.10820  0.27260  0.34890  Biso   1.000  H
  C1500    1.0000 0.14864  0.32490  0.31267  Biso   1.000  C
  H1500    1.0000 0.15620  0.33200  0.32950  Biso   1.000  H
  C1501    1.0000 0.08133  0.33128  0.33595  Biso   1.000  C
  H1501    1.0000 0.07930  0.34870  0.32680  Biso   1.000  H
  C1502    1.0000 0.99719  0.25752  0.39231  Biso   1.000  C
  H1502    1.0000 0.99970  0.23910  0.39920  Biso   1.000  H
  C1503    1.0000 0.93355  0.24666  0.35536  Biso   1.000  C
  H1503    1.0000 0.94020  0.24970  0.33700  Biso   1.000  H
  C1504    1.0000 0.11991  0.30521  0.28190  Biso   1.000  C
  H1504    1.0000 0.10420  0.29630  0.27390  Biso   1.000  H
  N2256    1.0000 0.97271  0.26815  0.38144  Biso   1.000  N
  Cu377    1.0000 0.02951  0.91280  0.87669  Biso   1.000  Cu
  Cu378    1.0000 0.05795  0.97543  0.85004  Biso   1.000  Cu
  N2257    1.0000 0.01647  0.97281  0.85846  Biso   1.000  N
  N2258    1.0000 0.00452  0.94880  0.87086  Biso   1.000  N
  N2259    1.0000 0.06541  0.92807  0.89342  Biso   1.000  N
  N2260    1.0000 0.07553  0.95514  0.88591  Biso   1.000  N
  N2261    1.0000 0.90799  0.01677  0.85839  Biso   1.000  N
  N2262    1.0000 0.90967  0.01573  0.88795  Biso   1.000  N
  C1505    1.0000 0.93064  0.00436  0.84820  Biso   1.000  C
  H1505    1.0000 0.93480  0.00190  0.82900  Biso   1.000  H
  N2263    1.0000 0.94704  0.99569  0.87040  Biso   1.000  N
  C1506    1.0000 0.97806  0.95450  0.87679  Biso   1.000  C
  H1506    1.0000 0.96510  0.94210  0.88520  Biso   1.000  H
  N2264    1.0000 0.14324  0.93822  0.98153  Biso   1.000  N
  N2265    1.0000 0.12232  0.93652  0.94046  Biso   1.000  N
  N2266    1.0000 0.16165  0.92572  0.96175  Biso   1.000  N
  N2267    1.0000 0.10141  0.93877  0.92011  Biso   1.000  N
  C1507    1.0000 0.09725  0.96092  0.90189  Biso   1.000  C
  H1507    1.0000 0.10820  0.97740  0.90110  Biso   1.000  H
  C1508    1.0000 0.14864  0.92510  0.93733  Biso   1.000  C
  H1508    1.0000 0.15620  0.91800  0.92050  Biso   1.000  H
  C1509    1.0000 0.08133  0.91872  0.91405  Biso   1.000  C
  H1509    1.0000 0.07930  0.90130  0.92320  Biso   1.000  H
  C1510    1.0000 0.99719  0.99248  0.85769  Biso   1.000  C
  H1510    1.0000 0.99970  0.01090  0.85080  Biso   1.000  H
  C1511    1.0000 0.93355  0.00334  0.89464  Biso   1.000  C
  H1511    1.0000 0.94020  0.00030  0.91300  Biso   1.000  H
  C1512    1.0000 0.11991  0.94479  0.96810  Biso   1.000  C
  H1512    1.0000 0.10420  0.95370  0.97610  Biso   1.000  H
  N2268    1.0000 0.97271  0.98185  0.86856  Biso   1.000  N
  Cu379    1.0000 0.02951  0.41280  0.37669  Biso   1.000  Cu
  Cu380    1.0000 0.05795  0.47543  0.35004  Biso   1.000  Cu
  N2269    1.0000 0.01647  0.47281  0.35846  Biso   1.000  N
  N2270    1.0000 0.00452  0.44880  0.37086  Biso   1.000  N
  N2271    1.0000 0.06541  0.42807  0.39342  Biso   1.000  N
  N2272    1.0000 0.07553  0.45514  0.38591  Biso   1.000  N
  N2273    1.0000 0.90799  0.51677  0.35839  Biso   1.000  N
  N2274    1.0000 0.90967  0.51573  0.38795  Biso   1.000  N
  C1513    1.0000 0.93064  0.50436  0.34820  Biso   1.000  C
  H1513    1.0000 0.93480  0.50190  0.32900  Biso   1.000  H
  N2275    1.0000 0.94704  0.49569  0.37040  Biso   1.000  N
  C1514    1.0000 0.97806  0.45450  0.37679  Biso   1.000  C
  H1514    1.0000 0.96510  0.44210  0.38520  Biso   1.000  H
  N2276    1.0000 0.14324  0.43822  0.48153  Biso   1.000  N
  N2277    1.0000 0.12232  0.43652  0.44046  Biso   1.000  N
  N2278    1.0000 0.16165  0.42572  0.46175  Biso   1.000  N
  N2279    1.0000 0.10141  0.43877  0.42011  Biso   1.000  N
  C1515    1.0000 0.09725  0.46092  0.40189  Biso   1.000  C
  H1515    1.0000 0.10820  0.47740  0.40110  Biso   1.000  H
  C1516    1.0000 0.14864  0.42510  0.43733  Biso   1.000  C
  H1516    1.0000 0.15620  0.41800  0.42050  Biso   1.000  H
  C1517    1.0000 0.08133  0.41872  0.41405  Biso   1.000  C
  H1517    1.0000 0.07930  0.40130  0.42320  Biso   1.000  H
  C1518    1.0000 0.99719  0.49248  0.35769  Biso   1.000  C
  H1518    1.0000 0.99970  0.51090  0.35080  Biso   1.000  H
  C1519    1.0000 0.93355  0.50334  0.39464  Biso   1.000  C
  H1519    1.0000 0.94020  0.50030  0.41300  Biso   1.000  H
  C1520    1.0000 0.11991  0.44479  0.46810  Biso   1.000  C
  H1520    1.0000 0.10420  0.45370  0.47610  Biso   1.000  H
  N2280    1.0000 0.97271  0.48185  0.36856  Biso   1.000  N
  Cu381    1.0000 0.52951  0.91280  0.37669  Biso   1.000  Cu
  Cu382    1.0000 0.55795  0.97543  0.35004  Biso   1.000  Cu
  N2281    1.0000 0.51647  0.97281  0.35846  Biso   1.000  N
  N2282    1.0000 0.50452  0.94880  0.37086  Biso   1.000  N
  N2283    1.0000 0.56541  0.92807  0.39342  Biso   1.000  N
  N2284    1.0000 0.57553  0.95514  0.38591  Biso   1.000  N
  N2285    1.0000 0.40799  0.01677  0.35839  Biso   1.000  N
  N2286    1.0000 0.40967  0.01573  0.38795  Biso   1.000  N
  C1521    1.0000 0.43064  0.00436  0.34820  Biso   1.000  C
  H1521    1.0000 0.43480  0.00190  0.32900  Biso   1.000  H
  N2287    1.0000 0.44704  0.99569  0.37040  Biso   1.000  N
  C1522    1.0000 0.47806  0.95450  0.37679  Biso   1.000  C
  H1522    1.0000 0.46510  0.94210  0.38520  Biso   1.000  H
  N2288    1.0000 0.64324  0.93822  0.48153  Biso   1.000  N
  N2289    1.0000 0.62232  0.93652  0.44046  Biso   1.000  N
  N2290    1.0000 0.66165  0.92572  0.46175  Biso   1.000  N
  N2291    1.0000 0.60141  0.93877  0.42011  Biso   1.000  N
  C1523    1.0000 0.59725  0.96092  0.40189  Biso   1.000  C
  H1523    1.0000 0.60820  0.97740  0.40110  Biso   1.000  H
  C1524    1.0000 0.64864  0.92510  0.43733  Biso   1.000  C
  H1524    1.0000 0.65620  0.91800  0.42050  Biso   1.000  H
  C1525    1.0000 0.58133  0.91872  0.41405  Biso   1.000  C
  H1525    1.0000 0.57930  0.90130  0.42320  Biso   1.000  H
  C1526    1.0000 0.49719  0.99248  0.35769  Biso   1.000  C
  H1526    1.0000 0.49970  0.01090  0.35080  Biso   1.000  H
  C1527    1.0000 0.43355  0.00334  0.39464  Biso   1.000  C
  H1527    1.0000 0.44020  0.00030  0.41300  Biso   1.000  H
  C1528    1.0000 0.61991  0.94479  0.46810  Biso   1.000  C
  H1528    1.0000 0.60420  0.95370  0.47610  Biso   1.000  H
  N2292    1.0000 0.47271  0.98185  0.36856  Biso   1.000  N
  Cu383    1.0000 0.52951  0.41280  0.87669  Biso   1.000  Cu
  Cu384    1.0000 0.55795  0.47543  0.85004  Biso   1.000  Cu
  N2293    1.0000 0.51647  0.47281  0.85846  Biso   1.000  N
  N2294    1.0000 0.50452  0.44880  0.87086  Biso   1.000  N
  N2295    1.0000 0.56541  0.42807  0.89342  Biso   1.000  N
  N2296    1.0000 0.57553  0.45514  0.88591  Biso   1.000  N
  N2297    1.0000 0.40799  0.51677  0.85839  Biso   1.000  N
  N2298    1.0000 0.40967  0.51573  0.88795  Biso   1.000  N
  C1529    1.0000 0.43064  0.50436  0.84820  Biso   1.000  C
  H1529    1.0000 0.43480  0.50190  0.82900  Biso   1.000  H
  N2299    1.0000 0.44704  0.49569  0.87040  Biso   1.000  N
  C1530    1.0000 0.47806  0.45450  0.87679  Biso   1.000  C
  H1530    1.0000 0.46510  0.44210  0.88520  Biso   1.000  H
  N2300    1.0000 0.64324  0.43822  0.98153  Biso   1.000  N
  N2301    1.0000 0.62232  0.43652  0.94046  Biso   1.000  N
  N2302    1.0000 0.66165  0.42572  0.96175  Biso   1.000  N
  N2303    1.0000 0.60141  0.43877  0.92011  Biso   1.000  N
  C1531    1.0000 0.59725  0.46092  0.90189  Biso   1.000  C
  H1531    1.0000 0.60820  0.47740  0.90110  Biso   1.000  H
  C1532    1.0000 0.64864  0.42510  0.93733  Biso   1.000  C
  H1532    1.0000 0.65620  0.41800  0.92050  Biso   1.000  H
  C1533    1.0000 0.58133  0.41872  0.91405  Biso   1.000  C
  H1533    1.0000 0.57930  0.40130  0.92320  Biso   1.000  H
  C1534    1.0000 0.49719  0.49248  0.85769  Biso   1.000  C
  H1534    1.0000 0.49970  0.51090  0.85080  Biso   1.000  H
  C1535    1.0000 0.43355  0.50334  0.89464  Biso   1.000  C
  H1535    1.0000 0.44020  0.50030  0.91300  Biso   1.000  H
  C1536    1.0000 0.61991  0.44479  0.96810  Biso   1.000  C
  H1536    1.0000 0.60420  0.45370  0.97610  Biso   1.000  H
  N2304    1.0000 0.47271  0.48185  0.86856  Biso   1.000  N
