data_image0
_cell_length_a       30.817
_cell_length_b       10.354
_cell_length_c       34.565
_cell_angle_alpha    90
_cell_angle_beta     98.748
_cell_angle_gamma    90

_symmetry_space_group_name_H-M    "P 1"
_symmetry_int_tables_number       1

loop_
  _symmetry_equiv_pos_as_xyz
  'x, y, z'

loop_
  _atom_site_label
  _atom_site_occupancy
  _atom_site_fract_x
  _atom_site_fract_y
  _atom_site_fract_z
  _atom_site_thermal_displace_type
  _atom_site_B_iso_or_equiv
  _atom_site_type_symbol
  Ag1      1.0000 0.38156  0.93534  0.83045  Biso   1.000  Ag
  Ag2      1.0000 0.31413  0.68571  0.64650  Biso   1.000  Ag
  C1       1.0000 0.26620  0.83710  0.81850  Biso   1.000  C
  H1       1.0000 0.25780  0.89980  0.83730  Biso   1.000  H
  H2       1.0000 0.24010  0.78980  0.80630  Biso   1.000  H
  H3       1.0000 0.27920  0.88270  0.79820  Biso   1.000  H
  C2       1.0000 0.29900  0.74410  0.83927  Biso   1.000  C
  C3       1.0000 0.29159  0.62080  0.85397  Biso   1.000  C
  C4       1.0000 0.33249  0.57570  0.87073  Biso   1.000  C
  C5       1.0000 0.34670  0.45390  0.89310  Biso   1.000  C
  H4       1.0000 0.36100  0.39590  0.87650  Biso   1.000  H
  H5       1.0000 0.32100  0.41080  0.90070  Biso   1.000  H
  H6       1.0000 0.36740  0.47580  0.91660  Biso   1.000  H
  C6       1.0000 0.26670  0.34270  0.81238  Biso   1.000  C
  H7       1.0000 0.25610  0.25340  0.81240  Biso   1.000  H
  H8       1.0000 0.29750  0.34600  0.82460  Biso   1.000  H
  H9       1.0000 0.26410  0.37390  0.78540  Biso   1.000  H
  C7       1.0000 0.23963  0.42630  0.83492  Biso   1.000  C
  C8       1.0000 0.25008  0.54920  0.85222  Biso   1.000  C
  C9       1.0000 0.21310  0.58670  0.86733  Biso   1.000  C
  C10      1.0000 0.20400  0.70470  0.88992  Biso   1.000  C
  H10      1.0000 0.19040  0.77100  0.87180  Biso   1.000  H
  H11      1.0000 0.23150  0.73770  0.90440  Biso   1.000  H
  H12      1.0000 0.18390  0.68230  0.90840  Biso   1.000  H
  C11      1.0000 0.32320  0.10530  0.74578  Biso   1.000  C
  H13      1.0000 0.32230  0.01620  0.75510  Biso   1.000  H
  H14      1.0000 0.32980  0.10540  0.71890  Biso   1.000  H
  H15      1.0000 0.29470  0.14660  0.74630  Biso   1.000  H
  C12      1.0000 0.35822  0.17860  0.77179  Biso   1.000  C
  C13      1.0000 0.37710  0.29730  0.76523  Biso   1.000  C
  C14      1.0000 0.40670  0.32150  0.79868  Biso   1.000  C
  C15      1.0000 0.43650  0.43310  0.81010  Biso   1.000  C
  H16      1.0000 0.44730  0.42910  0.83820  Biso   1.000  H
  H17      1.0000 0.42030  0.51390  0.80400  Biso   1.000  H
  H18      1.0000 0.46140  0.42960  0.79550  Biso   1.000  H
  C16      1.0000 0.32860  0.57990  0.75036  Biso   1.000  C
  H19      1.0000 0.34560  0.65970  0.75530  Biso   1.000  H
  H20      1.0000 0.32830  0.53380  0.77510  Biso   1.000  H
  H21      1.0000 0.29840  0.60100  0.73870  Biso   1.000  H
  C17      1.0000 0.34910  0.49590  0.72263  Biso   1.000  C
  C18      1.0000 0.37030  0.37570  0.72901  Biso   1.000  C
  C19      1.0000 0.38355  0.34430  0.69383  Biso   1.000  C
  C20      1.0000 0.40950  0.23220  0.68185  Biso   1.000  C
  H22      1.0000 0.39090  0.15490  0.67880  Biso   1.000  H
  H23      1.0000 0.43500  0.21660  0.70200  Biso   1.000  H
  H24      1.0000 0.41960  0.25200  0.65690  Biso   1.000  H
  C21      1.0000 0.19420  0.60430  0.59878  Biso   1.000  C
  H25      1.0000 0.18060  0.52990  0.60980  Biso   1.000  H
  H26      1.0000 0.17220  0.64850  0.57990  Biso   1.000  H
  H27      1.0000 0.20560  0.66410  0.61990  Biso   1.000  H
  C22      1.0000 0.23100  0.55900  0.57859  Biso   1.000  C
  C23      1.0000 0.22843  0.50010  0.54208  Biso   1.000  C
  C24      1.0000 0.27180  0.47430  0.53701  Biso   1.000  C
  C25      1.0000 0.29120  0.41290  0.50486  Biso   1.000  C
  H28      1.0000 0.30540  0.47900  0.49080  Biso   1.000  H
  H29      1.0000 0.26800  0.37040  0.48680  Biso   1.000  H
  H30      1.0000 0.31300  0.34870  0.51580  Biso   1.000  H
  C26      1.0000 0.14900  0.30180  0.55005  Biso   1.000  C
  H31      1.0000 0.13230  0.35010  0.56720  Biso   1.000  H
  H32      1.0000 0.17770  0.27830  0.56460  Biso   1.000  H
  H33      1.0000 0.13290  0.22330  0.54090  Biso   1.000  H
  C27      1.0000 0.15510  0.38370  0.51576  Biso   1.000  C
  C28      1.0000 0.18932  0.47250  0.51216  Biso   1.000  C
  C29      1.0000 0.17925  0.52660  0.47569  Biso   1.000  C
  C30      1.0000 0.20270  0.62610  0.45541  Biso   1.000  C
  H34      1.0000 0.22390  0.58370  0.44120  Biso   1.000  H
  H35      1.0000 0.21810  0.68580  0.47480  Biso   1.000  H
  H36      1.0000 0.18140  0.67420  0.43690  Biso   1.000  H
  C31      1.0000 0.42100  0.90000  0.73800  Biso   1.000  C
  H37      1.0000 0.39820  0.84370  0.72430  Biso   1.000  H
  H38      1.0000 0.43930  0.93310  0.71940  Biso   1.000  H
  H39      1.0000 0.40730  0.97250  0.74980  Biso   1.000  H
  C32      1.0000 0.44880  0.82520  0.76937  Biso   1.000  C
  C33      1.0000 0.48820  0.75810  0.76677  Biso   1.000  C
  C34      1.0000 0.50064  0.70380  0.80321  Biso   1.000  C
  C35      1.0000 0.53880  0.62050  0.81778  Biso   1.000  C
  H40      1.0000 0.56460  0.67470  0.82610  Biso   1.000  H
  H41      1.0000 0.54470  0.56240  0.79680  Biso   1.000  H
  H42      1.0000 0.53220  0.56950  0.84010  Biso   1.000  H
  N1       1.0000 0.34129  0.77370  0.84619  Biso   1.000  N
  N2       1.0000 0.36165  0.67000  0.86553  Biso   1.000  N
  H43      1.0000 0.39010  0.66500  0.87360  Biso   1.000  H
  N3       1.0000 0.19930  0.39080  0.84032  Biso   1.000  N
  N4       1.0000 0.18349  0.48990  0.85971  Biso   1.000  N
  H44      1.0000 0.15710  0.49120  0.86650  Biso   1.000  H
  N5       1.0000 0.37485  0.13140  0.80670  Biso   1.000  N
  N6       1.0000 0.40439  0.22190  0.82298  Biso   1.000  N
  H45      1.0000 0.41990  0.21560  0.84650  Biso   1.000  H
  N7       1.0000 0.34918  0.53580  0.68589  Biso   1.000  N
  N8       1.0000 0.37045  0.44120  0.66875  Biso   1.000  N
  H46      1.0000 0.37510  0.44320  0.64430  Biso   1.000  H
  N9       1.0000 0.27265  0.56940  0.59619  Biso   1.000  N
  N10      1.0000 0.29637  0.51690  0.57013  Biso   1.000  N
  H47      1.0000 0.32520  0.51120  0.57450  Biso   1.000  H
  N11      1.0000 0.12591  0.38260  0.48313  Biso   1.000  N
  N12      1.0000 0.14110  0.46870  0.45890  Biso   1.000  N
  H48      1.0000 0.12790  0.48540  0.43500  Biso   1.000  H
  N13      1.0000 0.43776  0.81360  0.80505  Biso   1.000  N
  N14      1.0000 0.47017  0.73980  0.82547  Biso   1.000  N
  H49      1.0000 0.47110  0.71820  0.85020  Biso   1.000  H
  Ag3      1.0000 0.88156  0.43534  0.83045  Biso   1.000  Ag
  Ag4      1.0000 0.81413  0.18571  0.64650  Biso   1.000  Ag
  C36      1.0000 0.76620  0.33710  0.81850  Biso   1.000  C
  H50      1.0000 0.75780  0.39980  0.83730  Biso   1.000  H
  H51      1.0000 0.74010  0.28980  0.80630  Biso   1.000  H
  H52      1.0000 0.77920  0.38270  0.79820  Biso   1.000  H
  C37      1.0000 0.79900  0.24410  0.83927  Biso   1.000  C
  C38      1.0000 0.79159  0.12080  0.85397  Biso   1.000  C
  C39      1.0000 0.83249  0.07570  0.87073  Biso   1.000  C
  C40      1.0000 0.84670  0.95390  0.89310  Biso   1.000  C
  H53      1.0000 0.86100  0.89590  0.87650  Biso   1.000  H
  H54      1.0000 0.82100  0.91080  0.90070  Biso   1.000  H
  H55      1.0000 0.86740  0.97580  0.91660  Biso   1.000  H
  C41      1.0000 0.76670  0.84270  0.81238  Biso   1.000  C
  H56      1.0000 0.75610  0.75340  0.81240  Biso   1.000  H
  H57      1.0000 0.79750  0.84600  0.82460  Biso   1.000  H
  H58      1.0000 0.76410  0.87390  0.78540  Biso   1.000  H
  C42      1.0000 0.73963  0.92630  0.83492  Biso   1.000  C
  C43      1.0000 0.75008  0.04920  0.85222  Biso   1.000  C
  C44      1.0000 0.71310  0.08670  0.86733  Biso   1.000  C
  C45      1.0000 0.70400  0.20470  0.88992  Biso   1.000  C
  H59      1.0000 0.69040  0.27100  0.87180  Biso   1.000  H
  H60      1.0000 0.73150  0.23770  0.90440  Biso   1.000  H
  H61      1.0000 0.68390  0.18230  0.90840  Biso   1.000  H
  C46      1.0000 0.82320  0.60530  0.74578  Biso   1.000  C
  H62      1.0000 0.82230  0.51620  0.75510  Biso   1.000  H
  H63      1.0000 0.82980  0.60540  0.71890  Biso   1.000  H
  H64      1.0000 0.79470  0.64660  0.74630  Biso   1.000  H
  C47      1.0000 0.85822  0.67860  0.77179  Biso   1.000  C
  C48      1.0000 0.87710  0.79730  0.76523  Biso   1.000  C
  C49      1.0000 0.90670  0.82150  0.79868  Biso   1.000  C
  C50      1.0000 0.93650  0.93310  0.81010  Biso   1.000  C
  H65      1.0000 0.94730  0.92910  0.83820  Biso   1.000  H
  H66      1.0000 0.92030  0.01390  0.80400  Biso   1.000  H
  H67      1.0000 0.96140  0.92960  0.79550  Biso   1.000  H
  C51      1.0000 0.82860  0.07990  0.75036  Biso   1.000  C
  H68      1.0000 0.84560  0.15970  0.75530  Biso   1.000  H
  H69      1.0000 0.82830  0.03380  0.77510  Biso   1.000  H
  H70      1.0000 0.79840  0.10100  0.73870  Biso   1.000  H
  C52      1.0000 0.84910  0.99590  0.72263  Biso   1.000  C
  C53      1.0000 0.87030  0.87570  0.72901  Biso   1.000  C
  C54      1.0000 0.88355  0.84430  0.69383  Biso   1.000  C
  C55      1.0000 0.90950  0.73220  0.68185  Biso   1.000  C
  H71      1.0000 0.89090  0.65490  0.67880  Biso   1.000  H
  H72      1.0000 0.93500  0.71660  0.70200  Biso   1.000  H
  H73      1.0000 0.91960  0.75200  0.65690  Biso   1.000  H
  C56      1.0000 0.69420  0.10430  0.59878  Biso   1.000  C
  H74      1.0000 0.68060  0.02990  0.60980  Biso   1.000  H
  H75      1.0000 0.67220  0.14850  0.57990  Biso   1.000  H
  H76      1.0000 0.70560  0.16410  0.61990  Biso   1.000  H
  C57      1.0000 0.73100  0.05900  0.57859  Biso   1.000  C
  C58      1.0000 0.72843  0.00010  0.54208  Biso   1.000  C
  C59      1.0000 0.77180  0.97430  0.53701  Biso   1.000  C
  C60      1.0000 0.79120  0.91290  0.50486  Biso   1.000  C
  H77      1.0000 0.80540  0.97900  0.49080  Biso   1.000  H
  H78      1.0000 0.76800  0.87040  0.48680  Biso   1.000  H
  H79      1.0000 0.81300  0.84870  0.51580  Biso   1.000  H
  C61      1.0000 0.64900  0.80180  0.55005  Biso   1.000  C
  H80      1.0000 0.63230  0.85010  0.56720  Biso   1.000  H
  H81      1.0000 0.67770  0.77830  0.56460  Biso   1.000  H
  H82      1.0000 0.63290  0.72330  0.54090  Biso   1.000  H
  C62      1.0000 0.65510  0.88370  0.51576  Biso   1.000  C
  C63      1.0000 0.68932  0.97250  0.51216  Biso   1.000  C
  C64      1.0000 0.67925  0.02660  0.47569  Biso   1.000  C
  C65      1.0000 0.70270  0.12610  0.45541  Biso   1.000  C
  H83      1.0000 0.72390  0.08370  0.44120  Biso   1.000  H
  H84      1.0000 0.71810  0.18580  0.47480  Biso   1.000  H
  H85      1.0000 0.68140  0.17420  0.43690  Biso   1.000  H
  C66      1.0000 0.92100  0.40000  0.73800  Biso   1.000  C
  H86      1.0000 0.89820  0.34370  0.72430  Biso   1.000  H
  H87      1.0000 0.93930  0.43310  0.71940  Biso   1.000  H
  H88      1.0000 0.90730  0.47250  0.74980  Biso   1.000  H
  C67      1.0000 0.94880  0.32520  0.76937  Biso   1.000  C
  C68      1.0000 0.98820  0.25810  0.76677  Biso   1.000  C
  C69      1.0000 0.00064  0.20380  0.80321  Biso   1.000  C
  C70      1.0000 0.03880  0.12050  0.81778  Biso   1.000  C
  H89      1.0000 0.06460  0.17470  0.82610  Biso   1.000  H
  H90      1.0000 0.04470  0.06240  0.79680  Biso   1.000  H
  H91      1.0000 0.03220  0.06950  0.84010  Biso   1.000  H
  N15      1.0000 0.84129  0.27370  0.84619  Biso   1.000  N
  N16      1.0000 0.86165  0.17000  0.86553  Biso   1.000  N
  H92      1.0000 0.89010  0.16500  0.87360  Biso   1.000  H
  N17      1.0000 0.69930  0.89080  0.84032  Biso   1.000  N
  N18      1.0000 0.68349  0.98990  0.85971  Biso   1.000  N
  H93      1.0000 0.65710  0.99120  0.86650  Biso   1.000  H
  N19      1.0000 0.87485  0.63140  0.80670  Biso   1.000  N
  N20      1.0000 0.90439  0.72190  0.82298  Biso   1.000  N
  H94      1.0000 0.91990  0.71560  0.84650  Biso   1.000  H
  N21      1.0000 0.84918  0.03580  0.68589  Biso   1.000  N
  N22      1.0000 0.87045  0.94120  0.66875  Biso   1.000  N
  H95      1.0000 0.87510  0.94320  0.64430  Biso   1.000  H
  N23      1.0000 0.77265  0.06940  0.59619  Biso   1.000  N
  N24      1.0000 0.79637  0.01690  0.57013  Biso   1.000  N
  H96      1.0000 0.82520  0.01120  0.57450  Biso   1.000  H
  N25      1.0000 0.62591  0.88260  0.48313  Biso   1.000  N
  N26      1.0000 0.64110  0.96870  0.45890  Biso   1.000  N
  H97      1.0000 0.62790  0.98540  0.43500  Biso   1.000  H
  N27      1.0000 0.93776  0.31360  0.80505  Biso   1.000  N
  N28      1.0000 0.97017  0.23980  0.82547  Biso   1.000  N
  H98      1.0000 0.97110  0.21820  0.85020  Biso   1.000  H
  Ag5      1.0000 0.61844  0.93534  0.66955  Biso   1.000  Ag
  Ag6      1.0000 0.68587  0.68571  0.85350  Biso   1.000  Ag
  C71      1.0000 0.73380  0.83710  0.68150  Biso   1.000  C
  H99      1.0000 0.74220  0.89980  0.66270  Biso   1.000  H
  H100     1.0000 0.75990  0.78980  0.69370  Biso   1.000  H
  H101     1.0000 0.72080  0.88270  0.70180  Biso   1.000  H
  C72      1.0000 0.70100  0.74410  0.66073  Biso   1.000  C
  C73      1.0000 0.70841  0.62080  0.64603  Biso   1.000  C
  C74      1.0000 0.66751  0.57570  0.62927  Biso   1.000  C
  C75      1.0000 0.65330  0.45390  0.60690  Biso   1.000  C
  H102     1.0000 0.63900  0.39590  0.62350  Biso   1.000  H
  H103     1.0000 0.67900  0.41080  0.59930  Biso   1.000  H
  H104     1.0000 0.63260  0.47580  0.58340  Biso   1.000  H
  C76      1.0000 0.73330  0.34270  0.68762  Biso   1.000  C
  H105     1.0000 0.74390  0.25340  0.68760  Biso   1.000  H
  H106     1.0000 0.70250  0.34600  0.67540  Biso   1.000  H
  H107     1.0000 0.73590  0.37390  0.71460  Biso   1.000  H
  C77      1.0000 0.76037  0.42630  0.66508  Biso   1.000  C
  C78      1.0000 0.74992  0.54920  0.64778  Biso   1.000  C
  C79      1.0000 0.78690  0.58670  0.63267  Biso   1.000  C
  C80      1.0000 0.79600  0.70470  0.61008  Biso   1.000  C
  H108     1.0000 0.80960  0.77100  0.62820  Biso   1.000  H
  H109     1.0000 0.76850  0.73770  0.59560  Biso   1.000  H
  H110     1.0000 0.81610  0.68230  0.59160  Biso   1.000  H
  C81      1.0000 0.67680  0.10530  0.75422  Biso   1.000  C
  H111     1.0000 0.67770  0.01620  0.74490  Biso   1.000  H
  H112     1.0000 0.67020  0.10540  0.78110  Biso   1.000  H
  H113     1.0000 0.70530  0.14660  0.75370  Biso   1.000  H
  C82      1.0000 0.64178  0.17860  0.72821  Biso   1.000  C
  C83      1.0000 0.62290  0.29730  0.73477  Biso   1.000  C
  C84      1.0000 0.59330  0.32150  0.70132  Biso   1.000  C
  C85      1.0000 0.56350  0.43310  0.68990  Biso   1.000  C
  H114     1.0000 0.55270  0.42910  0.66180  Biso   1.000  H
  H115     1.0000 0.57970  0.51390  0.69600  Biso   1.000  H
  H116     1.0000 0.53860  0.42960  0.70450  Biso   1.000  H
  C86      1.0000 0.67140  0.57990  0.74964  Biso   1.000  C
  H117     1.0000 0.65440  0.65970  0.74470  Biso   1.000  H
  H118     1.0000 0.67170  0.53380  0.72490  Biso   1.000  H
  H119     1.0000 0.70160  0.60100  0.76130  Biso   1.000  H
  C87      1.0000 0.65090  0.49590  0.77737  Biso   1.000  C
  C88      1.0000 0.62970  0.37570  0.77099  Biso   1.000  C
  C89      1.0000 0.61645  0.34430  0.80617  Biso   1.000  C
  C90      1.0000 0.59050  0.23220  0.81815  Biso   1.000  C
  H120     1.0000 0.60910  0.15490  0.82120  Biso   1.000  H
  H121     1.0000 0.56500  0.21660  0.79800  Biso   1.000  H
  H122     1.0000 0.58040  0.25200  0.84310  Biso   1.000  H
  C91      1.0000 0.80580  0.60430  0.90122  Biso   1.000  C
  H123     1.0000 0.81940  0.52990  0.89020  Biso   1.000  H
  H124     1.0000 0.82780  0.64850  0.92010  Biso   1.000  H
  H125     1.0000 0.79440  0.66410  0.88010  Biso   1.000  H
  C92      1.0000 0.76900  0.55900  0.92141  Biso   1.000  C
  C93      1.0000 0.77157  0.50010  0.95792  Biso   1.000  C
  C94      1.0000 0.72820  0.47430  0.96299  Biso   1.000  C
  C95      1.0000 0.70880  0.41290  0.99514  Biso   1.000  C
  H126     1.0000 0.69460  0.47900  0.00920  Biso   1.000  H
  H127     1.0000 0.73200  0.37040  0.01320  Biso   1.000  H
  H128     1.0000 0.68700  0.34870  0.98420  Biso   1.000  H
  C96      1.0000 0.85100  0.30180  0.94995  Biso   1.000  C
  H129     1.0000 0.86770  0.35010  0.93280  Biso   1.000  H
  H130     1.0000 0.82230  0.27830  0.93540  Biso   1.000  H
  H131     1.0000 0.86710  0.22330  0.95910  Biso   1.000  H
  C97      1.0000 0.84490  0.38370  0.98424  Biso   1.000  C
  C98      1.0000 0.81068  0.47250  0.98784  Biso   1.000  C
  C99      1.0000 0.82075  0.52660  0.02431  Biso   1.000  C
  C100     1.0000 0.79730  0.62610  0.04459  Biso   1.000  C
  H132     1.0000 0.77610  0.58370  0.05880  Biso   1.000  H
  H133     1.0000 0.78190  0.68580  0.02520  Biso   1.000  H
  H134     1.0000 0.81860  0.67420  0.06310  Biso   1.000  H
  C101     1.0000 0.57900  0.90000  0.76200  Biso   1.000  C
  H135     1.0000 0.60180  0.84370  0.77570  Biso   1.000  H
  H136     1.0000 0.56070  0.93310  0.78060  Biso   1.000  H
  H137     1.0000 0.59270  0.97250  0.75020  Biso   1.000  H
  C102     1.0000 0.55120  0.82520  0.73063  Biso   1.000  C
  C103     1.0000 0.51180  0.75810  0.73323  Biso   1.000  C
  C104     1.0000 0.49936  0.70380  0.69679  Biso   1.000  C
  C105     1.0000 0.46120  0.62050  0.68222  Biso   1.000  C
  H138     1.0000 0.43540  0.67470  0.67390  Biso   1.000  H
  H139     1.0000 0.45530  0.56240  0.70320  Biso   1.000  H
  H140     1.0000 0.46780  0.56950  0.65990  Biso   1.000  H
  N29      1.0000 0.65871  0.77370  0.65381  Biso   1.000  N
  N30      1.0000 0.63835  0.67000  0.63447  Biso   1.000  N
  H141     1.0000 0.60990  0.66500  0.62640  Biso   1.000  H
  N31      1.0000 0.80070  0.39080  0.65968  Biso   1.000  N
  N32      1.0000 0.81651  0.48990  0.64029  Biso   1.000  N
  H142     1.0000 0.84290  0.49120  0.63350  Biso   1.000  H
  N33      1.0000 0.62515  0.13140  0.69330  Biso   1.000  N
  N34      1.0000 0.59561  0.22190  0.67702  Biso   1.000  N
  H143     1.0000 0.58010  0.21560  0.65350  Biso   1.000  H
  N35      1.0000 0.65082  0.53580  0.81411  Biso   1.000  N
  N36      1.0000 0.62955  0.44120  0.83125  Biso   1.000  N
  H144     1.0000 0.62490  0.44320  0.85570  Biso   1.000  H
  N37      1.0000 0.72735  0.56940  0.90381  Biso   1.000  N
  N38      1.0000 0.70363  0.51690  0.92987  Biso   1.000  N
  H145     1.0000 0.67480  0.51120  0.92550  Biso   1.000  H
  N39      1.0000 0.87409  0.38260  0.01687  Biso   1.000  N
  N40      1.0000 0.85890  0.46870  0.04110  Biso   1.000  N
  H146     1.0000 0.87210  0.48540  0.06500  Biso   1.000  H
  N41      1.0000 0.56224  0.81360  0.69495  Biso   1.000  N
  N42      1.0000 0.52983  0.73980  0.67453  Biso   1.000  N
  H147     1.0000 0.52890  0.71820  0.64980  Biso   1.000  H
  Ag7      1.0000 0.11844  0.43534  0.66955  Biso   1.000  Ag
  Ag8      1.0000 0.18587  0.18571  0.85350  Biso   1.000  Ag
  C106     1.0000 0.23380  0.33710  0.68150  Biso   1.000  C
  H148     1.0000 0.24220  0.39980  0.66270  Biso   1.000  H
  H149     1.0000 0.25990  0.28980  0.69370  Biso   1.000  H
  H150     1.0000 0.22080  0.38270  0.70180  Biso   1.000  H
  C107     1.0000 0.20100  0.24410  0.66073  Biso   1.000  C
  C108     1.0000 0.20841  0.12080  0.64603  Biso   1.000  C
  C109     1.0000 0.16751  0.07570  0.62927  Biso   1.000  C
  C110     1.0000 0.15330  0.95390  0.60690  Biso   1.000  C
  H151     1.0000 0.13900  0.89590  0.62350  Biso   1.000  H
  H152     1.0000 0.17900  0.91080  0.59930  Biso   1.000  H
  H153     1.0000 0.13260  0.97580  0.58340  Biso   1.000  H
  C111     1.0000 0.23330  0.84270  0.68762  Biso   1.000  C
  H154     1.0000 0.24390  0.75340  0.68760  Biso   1.000  H
  H155     1.0000 0.20250  0.84600  0.67540  Biso   1.000  H
  H156     1.0000 0.23590  0.87390  0.71460  Biso   1.000  H
  C112     1.0000 0.26037  0.92630  0.66508  Biso   1.000  C
  C113     1.0000 0.24992  0.04920  0.64778  Biso   1.000  C
  C114     1.0000 0.28690  0.08670  0.63267  Biso   1.000  C
  C115     1.0000 0.29600  0.20470  0.61008  Biso   1.000  C
  H157     1.0000 0.30960  0.27100  0.62820  Biso   1.000  H
  H158     1.0000 0.26850  0.23770  0.59560  Biso   1.000  H
  H159     1.0000 0.31610  0.18230  0.59160  Biso   1.000  H
  C116     1.0000 0.17680  0.60530  0.75422  Biso   1.000  C
  H160     1.0000 0.17770  0.51620  0.74490  Biso   1.000  H
  H161     1.0000 0.17020  0.60540  0.78110  Biso   1.000  H
  H162     1.0000 0.20530  0.64660  0.75370  Biso   1.000  H
  C117     1.0000 0.14178  0.67860  0.72821  Biso   1.000  C
  C118     1.0000 0.12290  0.79730  0.73477  Biso   1.000  C
  C119     1.0000 0.09330  0.82150  0.70132  Biso   1.000  C
  C120     1.0000 0.06350  0.93310  0.68990  Biso   1.000  C
  H163     1.0000 0.05270  0.92910  0.66180  Biso   1.000  H
  H164     1.0000 0.07970  0.01390  0.69600  Biso   1.000  H
  H165     1.0000 0.03860  0.92960  0.70450  Biso   1.000  H
  C121     1.0000 0.17140  0.07990  0.74964  Biso   1.000  C
  H166     1.0000 0.15440  0.15970  0.74470  Biso   1.000  H
  H167     1.0000 0.17170  0.03380  0.72490  Biso   1.000  H
  H168     1.0000 0.20160  0.10100  0.76130  Biso   1.000  H
  C122     1.0000 0.15090  0.99590  0.77737  Biso   1.000  C
  C123     1.0000 0.12970  0.87570  0.77099  Biso   1.000  C
  C124     1.0000 0.11645  0.84430  0.80617  Biso   1.000  C
  C125     1.0000 0.09050  0.73220  0.81815  Biso   1.000  C
  H169     1.0000 0.10910  0.65490  0.82120  Biso   1.000  H
  H170     1.0000 0.06500  0.71660  0.79800  Biso   1.000  H
  H171     1.0000 0.08040  0.75200  0.84310  Biso   1.000  H
  C126     1.0000 0.30580  0.10430  0.90122  Biso   1.000  C
  H172     1.0000 0.31940  0.02990  0.89020  Biso   1.000  H
  H173     1.0000 0.32780  0.14850  0.92010  Biso   1.000  H
  H174     1.0000 0.29440  0.16410  0.88010  Biso   1.000  H
  C127     1.0000 0.26900  0.05900  0.92141  Biso   1.000  C
  C128     1.0000 0.27157  0.00010  0.95792  Biso   1.000  C
  C129     1.0000 0.22820  0.97430  0.96299  Biso   1.000  C
  C130     1.0000 0.20880  0.91290  0.99514  Biso   1.000  C
  H175     1.0000 0.19460  0.97900  0.00920  Biso   1.000  H
  H176     1.0000 0.23200  0.87040  0.01320  Biso   1.000  H
  H177     1.0000 0.18700  0.84870  0.98420  Biso   1.000  H
  C131     1.0000 0.35100  0.80180  0.94995  Biso   1.000  C
  H178     1.0000 0.36770  0.85010  0.93280  Biso   1.000  H
  H179     1.0000 0.32230  0.77830  0.93540  Biso   1.000  H
  H180     1.0000 0.36710  0.72330  0.95910  Biso   1.000  H
  C132     1.0000 0.34490  0.88370  0.98424  Biso   1.000  C
  C133     1.0000 0.31068  0.97250  0.98784  Biso   1.000  C
  C134     1.0000 0.32075  0.02660  0.02431  Biso   1.000  C
  C135     1.0000 0.29730  0.12610  0.04459  Biso   1.000  C
  H181     1.0000 0.27610  0.08370  0.05880  Biso   1.000  H
  H182     1.0000 0.28190  0.18580  0.02520  Biso   1.000  H
  H183     1.0000 0.31860  0.17420  0.06310  Biso   1.000  H
  C136     1.0000 0.07900  0.40000  0.76200  Biso   1.000  C
  H184     1.0000 0.10180  0.34370  0.77570  Biso   1.000  H
  H185     1.0000 0.06070  0.43310  0.78060  Biso   1.000  H
  H186     1.0000 0.09270  0.47250  0.75020  Biso   1.000  H
  C137     1.0000 0.05120  0.32520  0.73063  Biso   1.000  C
  C138     1.0000 0.01180  0.25810  0.73323  Biso   1.000  C
  C139     1.0000 0.99936  0.20380  0.69679  Biso   1.000  C
  C140     1.0000 0.96120  0.12050  0.68222  Biso   1.000  C
  H187     1.0000 0.93540  0.17470  0.67390  Biso   1.000  H
  H188     1.0000 0.95530  0.06240  0.70320  Biso   1.000  H
  H189     1.0000 0.96780  0.06950  0.65990  Biso   1.000  H
  N43      1.0000 0.15871  0.27370  0.65381  Biso   1.000  N
  N44      1.0000 0.13835  0.17000  0.63447  Biso   1.000  N
  H190     1.0000 0.10990  0.16500  0.62640  Biso   1.000  H
  N45      1.0000 0.30070  0.89080  0.65968  Biso   1.000  N
  N46      1.0000 0.31651  0.98990  0.64029  Biso   1.000  N
  H191     1.0000 0.34290  0.99120  0.63350  Biso   1.000  H
  N47      1.0000 0.12515  0.63140  0.69330  Biso   1.000  N
  N48      1.0000 0.09561  0.72190  0.67702  Biso   1.000  N
  H192     1.0000 0.08010  0.71560  0.65350  Biso   1.000  H
  N49      1.0000 0.15082  0.03580  0.81411  Biso   1.000  N
  N50      1.0000 0.12955  0.94120  0.83125  Biso   1.000  N
  H193     1.0000 0.12490  0.94320  0.85570  Biso   1.000  H
  N51      1.0000 0.22735  0.06940  0.90381  Biso   1.000  N
  N52      1.0000 0.20363  0.01690  0.92987  Biso   1.000  N
  H194     1.0000 0.17480  0.01120  0.92550  Biso   1.000  H
  N53      1.0000 0.37409  0.88260  0.01687  Biso   1.000  N
  N54      1.0000 0.35890  0.96870  0.04110  Biso   1.000  N
  H195     1.0000 0.37210  0.98540  0.06500  Biso   1.000  H
  N55      1.0000 0.06224  0.31360  0.69495  Biso   1.000  N
  N56      1.0000 0.02983  0.23980  0.67453  Biso   1.000  N
  H196     1.0000 0.02890  0.21820  0.64980  Biso   1.000  H
  C141     1.0000 0.60120  0.38030  0.40607  Biso   1.000  C
  C142     1.0000 0.56393  0.33530  0.42685  Biso   1.000  C
  H197     1.0000 0.54360  0.40790  0.42930  Biso   1.000  H
  H198     1.0000 0.54720  0.26570  0.41160  Biso   1.000  H
  C143     1.0000 0.58310  0.28540  0.46745  Biso   1.000  C
  H199     1.0000 0.60980  0.23460  0.46540  Biso   1.000  H
  H200     1.0000 0.59190  0.36010  0.48470  Biso   1.000  H
  C144     1.0000 0.55136  0.20120  0.48637  Biso   1.000  C
  H201     1.0000 0.54390  0.12350  0.47000  Biso   1.000  H
  H202     1.0000 0.52390  0.25000  0.48710  Biso   1.000  H
  C145     1.0000 0.56990  0.15940  0.52721  Biso   1.000  C
  H203     1.0000 0.59780  0.11280  0.52650  Biso   1.000  H
  H204     1.0000 0.57660  0.23710  0.54380  Biso   1.000  H
  C146     1.0000 0.53880  0.07190  0.54588  Biso   1.000  C
  H205     1.0000 0.53900  0.98410  0.53460  Biso   1.000  H
  H206     1.0000 0.50850  0.10600  0.53990  Biso   1.000  H
  C147     1.0000 0.55220  0.06480  0.58949  Biso   1.000  C
  O1       1.0000 0.62071  0.29600  0.38888  Biso   1.000  O
  O2       1.0000 0.61147  0.49940  0.40803  Biso   1.000  O
  O3       1.0000 0.57200  0.96720  0.60429  Biso   1.000  O
  O4       1.0000 0.54230  0.15960  0.60986  Biso   1.000  O
  C148     1.0000 0.10120  0.88030  0.40607  Biso   1.000  C
  C149     1.0000 0.06393  0.83530  0.42685  Biso   1.000  C
  H207     1.0000 0.04360  0.90790  0.42930  Biso   1.000  H
  H208     1.0000 0.04720  0.76570  0.41160  Biso   1.000  H
  C150     1.0000 0.08310  0.78540  0.46745  Biso   1.000  C
  H209     1.0000 0.10980  0.73460  0.46540  Biso   1.000  H
  H210     1.0000 0.09190  0.86010  0.48470  Biso   1.000  H
  C151     1.0000 0.05136  0.70120  0.48637  Biso   1.000  C
  H211     1.0000 0.04390  0.62350  0.47000  Biso   1.000  H
  H212     1.0000 0.02390  0.75000  0.48710  Biso   1.000  H
  C152     1.0000 0.06990  0.65940  0.52721  Biso   1.000  C
  H213     1.0000 0.09780  0.61280  0.52650  Biso   1.000  H
  H214     1.0000 0.07660  0.73710  0.54380  Biso   1.000  H
  C153     1.0000 0.03880  0.57190  0.54588  Biso   1.000  C
  H215     1.0000 0.03900  0.48410  0.53460  Biso   1.000  H
  H216     1.0000 0.00850  0.60600  0.53990  Biso   1.000  H
  C154     1.0000 0.05220  0.56480  0.58949  Biso   1.000  C
  O5       1.0000 0.12071  0.79600  0.38888  Biso   1.000  O
  O6       1.0000 0.11147  0.99940  0.40803  Biso   1.000  O
  O7       1.0000 0.07200  0.46720  0.60429  Biso   1.000  O
  O8       1.0000 0.04230  0.65960  0.60986  Biso   1.000  O
  C155     1.0000 0.39880  0.38030  0.09393  Biso   1.000  C
  C156     1.0000 0.43607  0.33530  0.07315  Biso   1.000  C
  H217     1.0000 0.45640  0.40790  0.07070  Biso   1.000  H
  H218     1.0000 0.45280  0.26570  0.08840  Biso   1.000  H
  C157     1.0000 0.41690  0.28540  0.03255  Biso   1.000  C
  H219     1.0000 0.39020  0.23460  0.03460  Biso   1.000  H
  H220     1.0000 0.40810  0.36010  0.01530  Biso   1.000  H
  C158     1.0000 0.44864  0.20120  0.01363  Biso   1.000  C
  H221     1.0000 0.45610  0.12350  0.03000  Biso   1.000  H
  H222     1.0000 0.47610  0.25000  0.01290  Biso   1.000  H
  C159     1.0000 0.43010  0.15940  0.97279  Biso   1.000  C
  H223     1.0000 0.40220  0.11280  0.97350  Biso   1.000  H
  H224     1.0000 0.42340  0.23710  0.95620  Biso   1.000  H
  C160     1.0000 0.46120  0.07190  0.95412  Biso   1.000  C
  H225     1.0000 0.46100  0.98410  0.96540  Biso   1.000  H
  H226     1.0000 0.49150  0.10600  0.96010  Biso   1.000  H
  C161     1.0000 0.44780  0.06480  0.91051  Biso   1.000  C
  O9       1.0000 0.37929  0.29600  0.11112  Biso   1.000  O
  O10      1.0000 0.38853  0.49940  0.09197  Biso   1.000  O
  O11      1.0000 0.42800  0.96720  0.89571  Biso   1.000  O
  O12      1.0000 0.45770  0.15960  0.89014  Biso   1.000  O
  C162     1.0000 0.89880  0.88030  0.09393  Biso   1.000  C
  C163     1.0000 0.93607  0.83530  0.07315  Biso   1.000  C
  H227     1.0000 0.95640  0.90790  0.07070  Biso   1.000  H
  H228     1.0000 0.95280  0.76570  0.08840  Biso   1.000  H
  C164     1.0000 0.91690  0.78540  0.03255  Biso   1.000  C
  H229     1.0000 0.89020  0.73460  0.03460  Biso   1.000  H
  H230     1.0000 0.90810  0.86010  0.01530  Biso   1.000  H
  C165     1.0000 0.94864  0.70120  0.01363  Biso   1.000  C
  H231     1.0000 0.95610  0.62350  0.03000  Biso   1.000  H
  H232     1.0000 0.97610  0.75000  0.01290  Biso   1.000  H
  C166     1.0000 0.93010  0.65940  0.97279  Biso   1.000  C
  H233     1.0000 0.90220  0.61280  0.97350  Biso   1.000  H
  H234     1.0000 0.92340  0.73710  0.95620  Biso   1.000  H
  C167     1.0000 0.96120  0.57190  0.95412  Biso   1.000  C
  H235     1.0000 0.96100  0.48410  0.96540  Biso   1.000  H
  H236     1.0000 0.99150  0.60600  0.96010  Biso   1.000  H
  C168     1.0000 0.94780  0.56480  0.91051  Biso   1.000  C
  O13      1.0000 0.87929  0.79600  0.11112  Biso   1.000  O
  O14      1.0000 0.88853  0.99940  0.09197  Biso   1.000  O
  O15      1.0000 0.92800  0.46720  0.89571  Biso   1.000  O
  O16      1.0000 0.95770  0.65960  0.89014  Biso   1.000  O
  C169     1.0000 0.39880  0.61970  0.59393  Biso   1.000  C
  C170     1.0000 0.43607  0.66470  0.57315  Biso   1.000  C
  H237     1.0000 0.45640  0.59210  0.57070  Biso   1.000  H
  H238     1.0000 0.45280  0.73430  0.58840  Biso   1.000  H
  C171     1.0000 0.41690  0.71460  0.53255  Biso   1.000  C
  H239     1.0000 0.39020  0.76540  0.53460  Biso   1.000  H
  H240     1.0000 0.40810  0.63990  0.51530  Biso   1.000  H
  C172     1.0000 0.44864  0.79880  0.51363  Biso   1.000  C
  H241     1.0000 0.45610  0.87650  0.53000  Biso   1.000  H
  H242     1.0000 0.47610  0.75000  0.51290  Biso   1.000  H
  C173     1.0000 0.43010  0.84060  0.47279  Biso   1.000  C
  H243     1.0000 0.40220  0.88720  0.47350  Biso   1.000  H
  H244     1.0000 0.42340  0.76290  0.45620  Biso   1.000  H
  C174     1.0000 0.46120  0.92810  0.45412  Biso   1.000  C
  H245     1.0000 0.46100  0.01590  0.46540  Biso   1.000  H
  H246     1.0000 0.49150  0.89400  0.46010  Biso   1.000  H
  C175     1.0000 0.44780  0.93520  0.41051  Biso   1.000  C
  O17      1.0000 0.37929  0.70400  0.61112  Biso   1.000  O
  O18      1.0000 0.38853  0.50060  0.59197  Biso   1.000  O
  O19      1.0000 0.42800  0.03280  0.39571  Biso   1.000  O
  O20      1.0000 0.45770  0.84040  0.39014  Biso   1.000  O
  C176     1.0000 0.89880  0.11970  0.59393  Biso   1.000  C
  C177     1.0000 0.93607  0.16470  0.57315  Biso   1.000  C
  H247     1.0000 0.95640  0.09210  0.57070  Biso   1.000  H
  H248     1.0000 0.95280  0.23430  0.58840  Biso   1.000  H
  C178     1.0000 0.91690  0.21460  0.53255  Biso   1.000  C
  H249     1.0000 0.89020  0.26540  0.53460  Biso   1.000  H
  H250     1.0000 0.90810  0.13990  0.51530  Biso   1.000  H
  C179     1.0000 0.94864  0.29880  0.51363  Biso   1.000  C
  H251     1.0000 0.95610  0.37650  0.53000  Biso   1.000  H
  H252     1.0000 0.97610  0.25000  0.51290  Biso   1.000  H
  C180     1.0000 0.93010  0.34060  0.47279  Biso   1.000  C
  H253     1.0000 0.90220  0.38720  0.47350  Biso   1.000  H
  H254     1.0000 0.92340  0.26290  0.45620  Biso   1.000  H
  C181     1.0000 0.96120  0.42810  0.45412  Biso   1.000  C
  H255     1.0000 0.96100  0.51590  0.46540  Biso   1.000  H
  H256     1.0000 0.99150  0.39400  0.46010  Biso   1.000  H
  C182     1.0000 0.94780  0.43520  0.41051  Biso   1.000  C
  O21      1.0000 0.87929  0.20400  0.61112  Biso   1.000  O
  O22      1.0000 0.88853  0.00060  0.59197  Biso   1.000  O
  O23      1.0000 0.92800  0.53280  0.39571  Biso   1.000  O
  O24      1.0000 0.95770  0.34040  0.39014  Biso   1.000  O
  C183     1.0000 0.60120  0.61970  0.90607  Biso   1.000  C
  C184     1.0000 0.56393  0.66470  0.92685  Biso   1.000  C
  H257     1.0000 0.54360  0.59210  0.92930  Biso   1.000  H
  H258     1.0000 0.54720  0.73430  0.91160  Biso   1.000  H
  C185     1.0000 0.58310  0.71460  0.96745  Biso   1.000  C
  H259     1.0000 0.60980  0.76540  0.96540  Biso   1.000  H
  H260     1.0000 0.59190  0.63990  0.98470  Biso   1.000  H
  C186     1.0000 0.55136  0.79880  0.98637  Biso   1.000  C
  H261     1.0000 0.54390  0.87650  0.97000  Biso   1.000  H
  H262     1.0000 0.52390  0.75000  0.98710  Biso   1.000  H
  C187     1.0000 0.56990  0.84060  0.02721  Biso   1.000  C
  H263     1.0000 0.59780  0.88720  0.02650  Biso   1.000  H
  H264     1.0000 0.57660  0.76290  0.04380  Biso   1.000  H
  C188     1.0000 0.53880  0.92810  0.04588  Biso   1.000  C
  H265     1.0000 0.53900  0.01590  0.03460  Biso   1.000  H
  H266     1.0000 0.50850  0.89400  0.03990  Biso   1.000  H
  C189     1.0000 0.55220  0.93520  0.08949  Biso   1.000  C
  O25      1.0000 0.62071  0.70400  0.88888  Biso   1.000  O
  O26      1.0000 0.61147  0.50060  0.90803  Biso   1.000  O
  O27      1.0000 0.57200  0.03280  0.10429  Biso   1.000  O
  O28      1.0000 0.54230  0.84040  0.10986  Biso   1.000  O
  C190     1.0000 0.10120  0.11970  0.90607  Biso   1.000  C
  C191     1.0000 0.06393  0.16470  0.92685  Biso   1.000  C
  H267     1.0000 0.04360  0.09210  0.92930  Biso   1.000  H
  H268     1.0000 0.04720  0.23430  0.91160  Biso   1.000  H
  C192     1.0000 0.08310  0.21460  0.96745  Biso   1.000  C
  H269     1.0000 0.10980  0.26540  0.96540  Biso   1.000  H
  H270     1.0000 0.09190  0.13990  0.98470  Biso   1.000  H
  C193     1.0000 0.05136  0.29880  0.98637  Biso   1.000  C
  H271     1.0000 0.04390  0.37650  0.97000  Biso   1.000  H
  H272     1.0000 0.02390  0.25000  0.98710  Biso   1.000  H
  C194     1.0000 0.06990  0.34060  0.02721  Biso   1.000  C
  H273     1.0000 0.09780  0.38720  0.02650  Biso   1.000  H
  H274     1.0000 0.07660  0.26290  0.04380  Biso   1.000  H
  C195     1.0000 0.03880  0.42810  0.04588  Biso   1.000  C
  H275     1.0000 0.03900  0.51590  0.03460  Biso   1.000  H
  H276     1.0000 0.00850  0.39400  0.03990  Biso   1.000  H
  C196     1.0000 0.05220  0.43520  0.08949  Biso   1.000  C
  O29      1.0000 0.12071  0.20400  0.88888  Biso   1.000  O
  O30      1.0000 0.11147  0.00060  0.90803  Biso   1.000  O
  O31      1.0000 0.07200  0.53280  0.10429  Biso   1.000  O
  O32      1.0000 0.04230  0.34040  0.10986  Biso   1.000  O
  Ag9      1.0000 0.61844  0.06466  0.16955  Biso   1.000  Ag
  Ag10     1.0000 0.68587  0.31429  0.35350  Biso   1.000  Ag
  C197     1.0000 0.73380  0.16290  0.18150  Biso   1.000  C
  H277     1.0000 0.74220  0.10020  0.16270  Biso   1.000  H
  H278     1.0000 0.75990  0.21020  0.19370  Biso   1.000  H
  H279     1.0000 0.72080  0.11730  0.20180  Biso   1.000  H
  C198     1.0000 0.70100  0.25590  0.16073  Biso   1.000  C
  C199     1.0000 0.70841  0.37920  0.14603  Biso   1.000  C
  C200     1.0000 0.66751  0.42430  0.12927  Biso   1.000  C
  C201     1.0000 0.65330  0.54610  0.10690  Biso   1.000  C
  H280     1.0000 0.63900  0.60410  0.12350  Biso   1.000  H
  H281     1.0000 0.67900  0.58920  0.09930  Biso   1.000  H
  H282     1.0000 0.63260  0.52420  0.08340  Biso   1.000  H
  C202     1.0000 0.73330  0.65730  0.18762  Biso   1.000  C
  H283     1.0000 0.74390  0.74660  0.18760  Biso   1.000  H
  H284     1.0000 0.70250  0.65400  0.17540  Biso   1.000  H
  H285     1.0000 0.73590  0.62610  0.21460  Biso   1.000  H
  C203     1.0000 0.76037  0.57370  0.16508  Biso   1.000  C
  C204     1.0000 0.74992  0.45080  0.14778  Biso   1.000  C
  C205     1.0000 0.78690  0.41330  0.13267  Biso   1.000  C
  C206     1.0000 0.79600  0.29530  0.11008  Biso   1.000  C
  H286     1.0000 0.80960  0.22900  0.12820  Biso   1.000  H
  H287     1.0000 0.76850  0.26230  0.09560  Biso   1.000  H
  H288     1.0000 0.81610  0.31770  0.09160  Biso   1.000  H
  C207     1.0000 0.67680  0.89470  0.25422  Biso   1.000  C
  H289     1.0000 0.67770  0.98380  0.24490  Biso   1.000  H
  H290     1.0000 0.67020  0.89460  0.28110  Biso   1.000  H
  H291     1.0000 0.70530  0.85340  0.25370  Biso   1.000  H
  C208     1.0000 0.64178  0.82140  0.22821  Biso   1.000  C
  C209     1.0000 0.62290  0.70270  0.23477  Biso   1.000  C
  C210     1.0000 0.59330  0.67850  0.20132  Biso   1.000  C
  C211     1.0000 0.56350  0.56690  0.18990  Biso   1.000  C
  H292     1.0000 0.55270  0.57090  0.16180  Biso   1.000  H
  H293     1.0000 0.57970  0.48610  0.19600  Biso   1.000  H
  H294     1.0000 0.53860  0.57040  0.20450  Biso   1.000  H
  C212     1.0000 0.67140  0.42010  0.24964  Biso   1.000  C
  H295     1.0000 0.65440  0.34030  0.24470  Biso   1.000  H
  H296     1.0000 0.67170  0.46620  0.22490  Biso   1.000  H
  H297     1.0000 0.70160  0.39900  0.26130  Biso   1.000  H
  C213     1.0000 0.65090  0.50410  0.27737  Biso   1.000  C
  C214     1.0000 0.62970  0.62430  0.27099  Biso   1.000  C
  C215     1.0000 0.61645  0.65570  0.30617  Biso   1.000  C
  C216     1.0000 0.59050  0.76780  0.31815  Biso   1.000  C
  H298     1.0000 0.60910  0.84510  0.32120  Biso   1.000  H
  H299     1.0000 0.56500  0.78340  0.29800  Biso   1.000  H
  H300     1.0000 0.58040  0.74800  0.34310  Biso   1.000  H
  C217     1.0000 0.80580  0.39570  0.40122  Biso   1.000  C
  H301     1.0000 0.81940  0.47010  0.39020  Biso   1.000  H
  H302     1.0000 0.82780  0.35150  0.42010  Biso   1.000  H
  H303     1.0000 0.79440  0.33590  0.38010  Biso   1.000  H
  C218     1.0000 0.76900  0.44100  0.42141  Biso   1.000  C
  C219     1.0000 0.77157  0.49990  0.45792  Biso   1.000  C
  C220     1.0000 0.72820  0.52570  0.46299  Biso   1.000  C
  C221     1.0000 0.70880  0.58710  0.49514  Biso   1.000  C
  H304     1.0000 0.69460  0.52100  0.50920  Biso   1.000  H
  H305     1.0000 0.73200  0.62960  0.51320  Biso   1.000  H
  H306     1.0000 0.68700  0.65130  0.48420  Biso   1.000  H
  C222     1.0000 0.85100  0.69820  0.44995  Biso   1.000  C
  H307     1.0000 0.86770  0.64990  0.43280  Biso   1.000  H
  H308     1.0000 0.82230  0.72170  0.43540  Biso   1.000  H
  H309     1.0000 0.86710  0.77670  0.45910  Biso   1.000  H
  C223     1.0000 0.84490  0.61630  0.48424  Biso   1.000  C
  C224     1.0000 0.81068  0.52750  0.48784  Biso   1.000  C
  C225     1.0000 0.82075  0.47340  0.52431  Biso   1.000  C
  C226     1.0000 0.79730  0.37390  0.54459  Biso   1.000  C
  H310     1.0000 0.77610  0.41630  0.55880  Biso   1.000  H
  H311     1.0000 0.78190  0.31420  0.52520  Biso   1.000  H
  H312     1.0000 0.81860  0.32580  0.56310  Biso   1.000  H
  C227     1.0000 0.57900  0.10000  0.26200  Biso   1.000  C
  H313     1.0000 0.60180  0.15630  0.27570  Biso   1.000  H
  H314     1.0000 0.56070  0.06690  0.28060  Biso   1.000  H
  H315     1.0000 0.59270  0.02750  0.25020  Biso   1.000  H
  C228     1.0000 0.55120  0.17480  0.23063  Biso   1.000  C
  C229     1.0000 0.51180  0.24190  0.23323  Biso   1.000  C
  C230     1.0000 0.49936  0.29620  0.19679  Biso   1.000  C
  C231     1.0000 0.46120  0.37950  0.18222  Biso   1.000  C
  H316     1.0000 0.43540  0.32530  0.17390  Biso   1.000  H
  H317     1.0000 0.45530  0.43760  0.20320  Biso   1.000  H
  H318     1.0000 0.46780  0.43050  0.15990  Biso   1.000  H
  N57      1.0000 0.65871  0.22630  0.15381  Biso   1.000  N
  N58      1.0000 0.63835  0.33000  0.13447  Biso   1.000  N
  H319     1.0000 0.60990  0.33500  0.12640  Biso   1.000  H
  N59      1.0000 0.80070  0.60920  0.15968  Biso   1.000  N
  N60      1.0000 0.81651  0.51010  0.14029  Biso   1.000  N
  H320     1.0000 0.84290  0.50880  0.13350  Biso   1.000  H
  N61      1.0000 0.62515  0.86860  0.19330  Biso   1.000  N
  N62      1.0000 0.59561  0.77810  0.17702  Biso   1.000  N
  H321     1.0000 0.58010  0.78440  0.15350  Biso   1.000  H
  N63      1.0000 0.65082  0.46420  0.31411  Biso   1.000  N
  N64      1.0000 0.62955  0.55880  0.33125  Biso   1.000  N
  H322     1.0000 0.62490  0.55680  0.35570  Biso   1.000  H
  N65      1.0000 0.72735  0.43060  0.40381  Biso   1.000  N
  N66      1.0000 0.70363  0.48310  0.42987  Biso   1.000  N
  H323     1.0000 0.67480  0.48880  0.42550  Biso   1.000  H
  N67      1.0000 0.87409  0.61740  0.51687  Biso   1.000  N
  N68      1.0000 0.85890  0.53130  0.54110  Biso   1.000  N
  H324     1.0000 0.87210  0.51460  0.56500  Biso   1.000  H
  N69      1.0000 0.56224  0.18640  0.19495  Biso   1.000  N
  N70      1.0000 0.52983  0.26020  0.17453  Biso   1.000  N
  H325     1.0000 0.52890  0.28180  0.14980  Biso   1.000  H
  Ag11     1.0000 0.11844  0.56466  0.16955  Biso   1.000  Ag
  Ag12     1.0000 0.18587  0.81429  0.35350  Biso   1.000  Ag
  C232     1.0000 0.23380  0.66290  0.18150  Biso   1.000  C
  H326     1.0000 0.24220  0.60020  0.16270  Biso   1.000  H
  H327     1.0000 0.25990  0.71020  0.19370  Biso   1.000  H
  H328     1.0000 0.22080  0.61730  0.20180  Biso   1.000  H
  C233     1.0000 0.20100  0.75590  0.16073  Biso   1.000  C
  C234     1.0000 0.20841  0.87920  0.14603  Biso   1.000  C
  C235     1.0000 0.16751  0.92430  0.12927  Biso   1.000  C
  C236     1.0000 0.15330  0.04610  0.10690  Biso   1.000  C
  H329     1.0000 0.13900  0.10410  0.12350  Biso   1.000  H
  H330     1.0000 0.17900  0.08920  0.09930  Biso   1.000  H
  H331     1.0000 0.13260  0.02420  0.08340  Biso   1.000  H
  C237     1.0000 0.23330  0.15730  0.18762  Biso   1.000  C
  H332     1.0000 0.24390  0.24660  0.18760  Biso   1.000  H
  H333     1.0000 0.20250  0.15400  0.17540  Biso   1.000  H
  H334     1.0000 0.23590  0.12610  0.21460  Biso   1.000  H
  C238     1.0000 0.26037  0.07370  0.16508  Biso   1.000  C
  C239     1.0000 0.24992  0.95080  0.14778  Biso   1.000  C
  C240     1.0000 0.28690  0.91330  0.13267  Biso   1.000  C
  C241     1.0000 0.29600  0.79530  0.11008  Biso   1.000  C
  H335     1.0000 0.30960  0.72900  0.12820  Biso   1.000  H
  H336     1.0000 0.26850  0.76230  0.09560  Biso   1.000  H
  H337     1.0000 0.31610  0.81770  0.09160  Biso   1.000  H
  C242     1.0000 0.17680  0.39470  0.25422  Biso   1.000  C
  H338     1.0000 0.17770  0.48380  0.24490  Biso   1.000  H
  H339     1.0000 0.17020  0.39460  0.28110  Biso   1.000  H
  H340     1.0000 0.20530  0.35340  0.25370  Biso   1.000  H
  C243     1.0000 0.14178  0.32140  0.22821  Biso   1.000  C
  C244     1.0000 0.12290  0.20270  0.23477  Biso   1.000  C
  C245     1.0000 0.09330  0.17850  0.20132  Biso   1.000  C
  C246     1.0000 0.06350  0.06690  0.18990  Biso   1.000  C
  H341     1.0000 0.05270  0.07090  0.16180  Biso   1.000  H
  H342     1.0000 0.07970  0.98610  0.19600  Biso   1.000  H
  H343     1.0000 0.03860  0.07040  0.20450  Biso   1.000  H
  C247     1.0000 0.17140  0.92010  0.24964  Biso   1.000  C
  H344     1.0000 0.15440  0.84030  0.24470  Biso   1.000  H
  H345     1.0000 0.17170  0.96620  0.22490  Biso   1.000  H
  H346     1.0000 0.20160  0.89900  0.26130  Biso   1.000  H
  C248     1.0000 0.15090  0.00410  0.27737  Biso   1.000  C
  C249     1.0000 0.12970  0.12430  0.27099  Biso   1.000  C
  C250     1.0000 0.11645  0.15570  0.30617  Biso   1.000  C
  C251     1.0000 0.09050  0.26780  0.31815  Biso   1.000  C
  H347     1.0000 0.10910  0.34510  0.32120  Biso   1.000  H
  H348     1.0000 0.06500  0.28340  0.29800  Biso   1.000  H
  H349     1.0000 0.08040  0.24800  0.34310  Biso   1.000  H
  C252     1.0000 0.30580  0.89570  0.40122  Biso   1.000  C
  H350     1.0000 0.31940  0.97010  0.39020  Biso   1.000  H
  H351     1.0000 0.32780  0.85150  0.42010  Biso   1.000  H
  H352     1.0000 0.29440  0.83590  0.38010  Biso   1.000  H
  C253     1.0000 0.26900  0.94100  0.42141  Biso   1.000  C
  C254     1.0000 0.27157  0.99990  0.45792  Biso   1.000  C
  C255     1.0000 0.22820  0.02570  0.46299  Biso   1.000  C
  C256     1.0000 0.20880  0.08710  0.49514  Biso   1.000  C
  H353     1.0000 0.19460  0.02100  0.50920  Biso   1.000  H
  H354     1.0000 0.23200  0.12960  0.51320  Biso   1.000  H
  H355     1.0000 0.18700  0.15130  0.48420  Biso   1.000  H
  C257     1.0000 0.35100  0.19820  0.44995  Biso   1.000  C
  H356     1.0000 0.36770  0.14990  0.43280  Biso   1.000  H
  H357     1.0000 0.32230  0.22170  0.43540  Biso   1.000  H
  H358     1.0000 0.36710  0.27670  0.45910  Biso   1.000  H
  C258     1.0000 0.34490  0.11630  0.48424  Biso   1.000  C
  C259     1.0000 0.31068  0.02750  0.48784  Biso   1.000  C
  C260     1.0000 0.32075  0.97340  0.52431  Biso   1.000  C
  C261     1.0000 0.29730  0.87390  0.54459  Biso   1.000  C
  H359     1.0000 0.27610  0.91630  0.55880  Biso   1.000  H
  H360     1.0000 0.28190  0.81420  0.52520  Biso   1.000  H
  H361     1.0000 0.31860  0.82580  0.56310  Biso   1.000  H
  C262     1.0000 0.07900  0.60000  0.26200  Biso   1.000  C
  H362     1.0000 0.10180  0.65630  0.27570  Biso   1.000  H
  H363     1.0000 0.06070  0.56690  0.28060  Biso   1.000  H
  H364     1.0000 0.09270  0.52750  0.25020  Biso   1.000  H
  C263     1.0000 0.05120  0.67480  0.23063  Biso   1.000  C
  C264     1.0000 0.01180  0.74190  0.23323  Biso   1.000  C
  C265     1.0000 0.99936  0.79620  0.19679  Biso   1.000  C
  C266     1.0000 0.96120  0.87950  0.18222  Biso   1.000  C
  H365     1.0000 0.93540  0.82530  0.17390  Biso   1.000  H
  H366     1.0000 0.95530  0.93760  0.20320  Biso   1.000  H
  H367     1.0000 0.96780  0.93050  0.15990  Biso   1.000  H
  N71      1.0000 0.15871  0.72630  0.15381  Biso   1.000  N
  N72      1.0000 0.13835  0.83000  0.13447  Biso   1.000  N
  H368     1.0000 0.10990  0.83500  0.12640  Biso   1.000  H
  N73      1.0000 0.30070  0.10920  0.15968  Biso   1.000  N
  N74      1.0000 0.31651  0.01010  0.14029  Biso   1.000  N
  H369     1.0000 0.34290  0.00880  0.13350  Biso   1.000  H
  N75      1.0000 0.12515  0.36860  0.19330  Biso   1.000  N
  N76      1.0000 0.09561  0.27810  0.17702  Biso   1.000  N
  H370     1.0000 0.08010  0.28440  0.15350  Biso   1.000  H
  N77      1.0000 0.15082  0.96420  0.31411  Biso   1.000  N
  N78      1.0000 0.12955  0.05880  0.33125  Biso   1.000  N
  H371     1.0000 0.12490  0.05680  0.35570  Biso   1.000  H
  N79      1.0000 0.22735  0.93060  0.40381  Biso   1.000  N
  N80      1.0000 0.20363  0.98310  0.42987  Biso   1.000  N
  H372     1.0000 0.17480  0.98880  0.42550  Biso   1.000  H
  N81      1.0000 0.37409  0.11740  0.51687  Biso   1.000  N
  N82      1.0000 0.35890  0.03130  0.54110  Biso   1.000  N
  H373     1.0000 0.37210  0.01460  0.56500  Biso   1.000  H
  N83      1.0000 0.06224  0.68640  0.19495  Biso   1.000  N
  N84      1.0000 0.02983  0.76020  0.17453  Biso   1.000  N
  H374     1.0000 0.02890  0.78180  0.14980  Biso   1.000  H
  Ag13     1.0000 0.38156  0.06466  0.33045  Biso   1.000  Ag
  Ag14     1.0000 0.31413  0.31429  0.14650  Biso   1.000  Ag
  C267     1.0000 0.26620  0.16290  0.31850  Biso   1.000  C
  H375     1.0000 0.25780  0.10020  0.33730  Biso   1.000  H
  H376     1.0000 0.24010  0.21020  0.30630  Biso   1.000  H
  H377     1.0000 0.27920  0.11730  0.29820  Biso   1.000  H
  C268     1.0000 0.29900  0.25590  0.33927  Biso   1.000  C
  C269     1.0000 0.29159  0.37920  0.35397  Biso   1.000  C
  C270     1.0000 0.33249  0.42430  0.37073  Biso   1.000  C
  C271     1.0000 0.34670  0.54610  0.39310  Biso   1.000  C
  H378     1.0000 0.36100  0.60410  0.37650  Biso   1.000  H
  H379     1.0000 0.32100  0.58920  0.40070  Biso   1.000  H
  H380     1.0000 0.36740  0.52420  0.41660  Biso   1.000  H
  C272     1.0000 0.26670  0.65730  0.31238  Biso   1.000  C
  H381     1.0000 0.25610  0.74660  0.31240  Biso   1.000  H
  H382     1.0000 0.29750  0.65400  0.32460  Biso   1.000  H
  H383     1.0000 0.26410  0.62610  0.28540  Biso   1.000  H
  C273     1.0000 0.23963  0.57370  0.33492  Biso   1.000  C
  C274     1.0000 0.25008  0.45080  0.35222  Biso   1.000  C
  C275     1.0000 0.21310  0.41330  0.36733  Biso   1.000  C
  C276     1.0000 0.20400  0.29530  0.38992  Biso   1.000  C
  H384     1.0000 0.19040  0.22900  0.37180  Biso   1.000  H
  H385     1.0000 0.23150  0.26230  0.40440  Biso   1.000  H
  H386     1.0000 0.18390  0.31770  0.40840  Biso   1.000  H
  C277     1.0000 0.32320  0.89470  0.24578  Biso   1.000  C
  H387     1.0000 0.32230  0.98380  0.25510  Biso   1.000  H
  H388     1.0000 0.32980  0.89460  0.21890  Biso   1.000  H
  H389     1.0000 0.29470  0.85340  0.24630  Biso   1.000  H
  C278     1.0000 0.35822  0.82140  0.27179  Biso   1.000  C
  C279     1.0000 0.37710  0.70270  0.26523  Biso   1.000  C
  C280     1.0000 0.40670  0.67850  0.29868  Biso   1.000  C
  C281     1.0000 0.43650  0.56690  0.31010  Biso   1.000  C
  H390     1.0000 0.44730  0.57090  0.33820  Biso   1.000  H
  H391     1.0000 0.42030  0.48610  0.30400  Biso   1.000  H
  H392     1.0000 0.46140  0.57040  0.29550  Biso   1.000  H
  C282     1.0000 0.32860  0.42010  0.25036  Biso   1.000  C
  H393     1.0000 0.34560  0.34030  0.25530  Biso   1.000  H
  H394     1.0000 0.32830  0.46620  0.27510  Biso   1.000  H
  H395     1.0000 0.29840  0.39900  0.23870  Biso   1.000  H
  C283     1.0000 0.34910  0.50410  0.22263  Biso   1.000  C
  C284     1.0000 0.37030  0.62430  0.22901  Biso   1.000  C
  C285     1.0000 0.38355  0.65570  0.19383  Biso   1.000  C
  C286     1.0000 0.40950  0.76780  0.18185  Biso   1.000  C
  H396     1.0000 0.39090  0.84510  0.17880  Biso   1.000  H
  H397     1.0000 0.43500  0.78340  0.20200  Biso   1.000  H
  H398     1.0000 0.41960  0.74800  0.15690  Biso   1.000  H
  C287     1.0000 0.19420  0.39570  0.09878  Biso   1.000  C
  H399     1.0000 0.18060  0.47010  0.10980  Biso   1.000  H
  H400     1.0000 0.17220  0.35150  0.07990  Biso   1.000  H
  H401     1.0000 0.20560  0.33590  0.11990  Biso   1.000  H
  C288     1.0000 0.23100  0.44100  0.07859  Biso   1.000  C
  C289     1.0000 0.22843  0.49990  0.04208  Biso   1.000  C
  C290     1.0000 0.27180  0.52570  0.03701  Biso   1.000  C
  C291     1.0000 0.29120  0.58710  0.00486  Biso   1.000  C
  H402     1.0000 0.30540  0.52100  0.99080  Biso   1.000  H
  H403     1.0000 0.26800  0.62960  0.98680  Biso   1.000  H
  H404     1.0000 0.31300  0.65130  0.01580  Biso   1.000  H
  C292     1.0000 0.14900  0.69820  0.05005  Biso   1.000  C
  H405     1.0000 0.13230  0.64990  0.06720  Biso   1.000  H
  H406     1.0000 0.17770  0.72170  0.06460  Biso   1.000  H
  H407     1.0000 0.13290  0.77670  0.04090  Biso   1.000  H
  C293     1.0000 0.15510  0.61630  0.01576  Biso   1.000  C
  C294     1.0000 0.18932  0.52750  0.01216  Biso   1.000  C
  C295     1.0000 0.17925  0.47340  0.97569  Biso   1.000  C
  C296     1.0000 0.20270  0.37390  0.95541  Biso   1.000  C
  H408     1.0000 0.22390  0.41630  0.94120  Biso   1.000  H
  H409     1.0000 0.21810  0.31420  0.97480  Biso   1.000  H
  H410     1.0000 0.18140  0.32580  0.93690  Biso   1.000  H
  C297     1.0000 0.42100  0.10000  0.23800  Biso   1.000  C
  H411     1.0000 0.39820  0.15630  0.22430  Biso   1.000  H
  H412     1.0000 0.43930  0.06690  0.21940  Biso   1.000  H
  H413     1.0000 0.40730  0.02750  0.24980  Biso   1.000  H
  C298     1.0000 0.44880  0.17480  0.26937  Biso   1.000  C
  C299     1.0000 0.48820  0.24190  0.26677  Biso   1.000  C
  C300     1.0000 0.50064  0.29620  0.30321  Biso   1.000  C
  C301     1.0000 0.53880  0.37950  0.31778  Biso   1.000  C
  H414     1.0000 0.56460  0.32530  0.32610  Biso   1.000  H
  H415     1.0000 0.54470  0.43760  0.29680  Biso   1.000  H
  H416     1.0000 0.53220  0.43050  0.34010  Biso   1.000  H
  N85      1.0000 0.34129  0.22630  0.34619  Biso   1.000  N
  N86      1.0000 0.36165  0.33000  0.36553  Biso   1.000  N
  H417     1.0000 0.39010  0.33500  0.37360  Biso   1.000  H
  N87      1.0000 0.19930  0.60920  0.34032  Biso   1.000  N
  N88      1.0000 0.18349  0.51010  0.35971  Biso   1.000  N
  H418     1.0000 0.15710  0.50880  0.36650  Biso   1.000  H
  N89      1.0000 0.37485  0.86860  0.30670  Biso   1.000  N
  N90      1.0000 0.40439  0.77810  0.32298  Biso   1.000  N
  H419     1.0000 0.41990  0.78440  0.34650  Biso   1.000  H
  N91      1.0000 0.34918  0.46420  0.18589  Biso   1.000  N
  N92      1.0000 0.37045  0.55880  0.16875  Biso   1.000  N
  H420     1.0000 0.37510  0.55680  0.14430  Biso   1.000  H
  N93      1.0000 0.27265  0.43060  0.09619  Biso   1.000  N
  N94      1.0000 0.29637  0.48310  0.07013  Biso   1.000  N
  H421     1.0000 0.32520  0.48880  0.07450  Biso   1.000  H
  N95      1.0000 0.12591  0.61740  0.98313  Biso   1.000  N
  N96      1.0000 0.14110  0.53130  0.95890  Biso   1.000  N
  H422     1.0000 0.12790  0.51460  0.93500  Biso   1.000  H
  N97      1.0000 0.43776  0.18640  0.30505  Biso   1.000  N
  N98      1.0000 0.47017  0.26020  0.32547  Biso   1.000  N
  H423     1.0000 0.47110  0.28180  0.35020  Biso   1.000  H
  Ag15     1.0000 0.88156  0.56466  0.33045  Biso   1.000  Ag
  Ag16     1.0000 0.81413  0.81429  0.14650  Biso   1.000  Ag
  C302     1.0000 0.76620  0.66290  0.31850  Biso   1.000  C
  H424     1.0000 0.75780  0.60020  0.33730  Biso   1.000  H
  H425     1.0000 0.74010  0.71020  0.30630  Biso   1.000  H
  H426     1.0000 0.77920  0.61730  0.29820  Biso   1.000  H
  C303     1.0000 0.79900  0.75590  0.33927  Biso   1.000  C
  C304     1.0000 0.79159  0.87920  0.35397  Biso   1.000  C
  C305     1.0000 0.83249  0.92430  0.37073  Biso   1.000  C
  C306     1.0000 0.84670  0.04610  0.39310  Biso   1.000  C
  H427     1.0000 0.86100  0.10410  0.37650  Biso   1.000  H
  H428     1.0000 0.82100  0.08920  0.40070  Biso   1.000  H
  H429     1.0000 0.86740  0.02420  0.41660  Biso   1.000  H
  C307     1.0000 0.76670  0.15730  0.31238  Biso   1.000  C
  H430     1.0000 0.75610  0.24660  0.31240  Biso   1.000  H
  H431     1.0000 0.79750  0.15400  0.32460  Biso   1.000  H
  H432     1.0000 0.76410  0.12610  0.28540  Biso   1.000  H
  C308     1.0000 0.73963  0.07370  0.33492  Biso   1.000  C
  C309     1.0000 0.75008  0.95080  0.35222  Biso   1.000  C
  C310     1.0000 0.71310  0.91330  0.36733  Biso   1.000  C
  C311     1.0000 0.70400  0.79530  0.38992  Biso   1.000  C
  H433     1.0000 0.69040  0.72900  0.37180  Biso   1.000  H
  H434     1.0000 0.73150  0.76230  0.40440  Biso   1.000  H
  H435     1.0000 0.68390  0.81770  0.40840  Biso   1.000  H
  C312     1.0000 0.82320  0.39470  0.24578  Biso   1.000  C
  H436     1.0000 0.82230  0.48380  0.25510  Biso   1.000  H
  H437     1.0000 0.82980  0.39460  0.21890  Biso   1.000  H
  H438     1.0000 0.79470  0.35340  0.24630  Biso   1.000  H
  C313     1.0000 0.85822  0.32140  0.27179  Biso   1.000  C
  C314     1.0000 0.87710  0.20270  0.26523  Biso   1.000  C
  C315     1.0000 0.90670  0.17850  0.29868  Biso   1.000  C
  C316     1.0000 0.93650  0.06690  0.31010  Biso   1.000  C
  H439     1.0000 0.94730  0.07090  0.33820  Biso   1.000  H
  H440     1.0000 0.92030  0.98610  0.30400  Biso   1.000  H
  H441     1.0000 0.96140  0.07040  0.29550  Biso   1.000  H
  C317     1.0000 0.82860  0.92010  0.25036  Biso   1.000  C
  H442     1.0000 0.84560  0.84030  0.25530  Biso   1.000  H
  H443     1.0000 0.82830  0.96620  0.27510  Biso   1.000  H
  H444     1.0000 0.79840  0.89900  0.23870  Biso   1.000  H
  C318     1.0000 0.84910  0.00410  0.22263  Biso   1.000  C
  C319     1.0000 0.87030  0.12430  0.22901  Biso   1.000  C
  C320     1.0000 0.88355  0.15570  0.19383  Biso   1.000  C
  C321     1.0000 0.90950  0.26780  0.18185  Biso   1.000  C
  H445     1.0000 0.89090  0.34510  0.17880  Biso   1.000  H
  H446     1.0000 0.93500  0.28340  0.20200  Biso   1.000  H
  H447     1.0000 0.91960  0.24800  0.15690  Biso   1.000  H
  C322     1.0000 0.69420  0.89570  0.09878  Biso   1.000  C
  H448     1.0000 0.68060  0.97010  0.10980  Biso   1.000  H
  H449     1.0000 0.67220  0.85150  0.07990  Biso   1.000  H
  H450     1.0000 0.70560  0.83590  0.11990  Biso   1.000  H
  C323     1.0000 0.73100  0.94100  0.07859  Biso   1.000  C
  C324     1.0000 0.72843  0.99990  0.04208  Biso   1.000  C
  C325     1.0000 0.77180  0.02570  0.03701  Biso   1.000  C
  C326     1.0000 0.79120  0.08710  0.00486  Biso   1.000  C
  H451     1.0000 0.80540  0.02100  0.99080  Biso   1.000  H
  H452     1.0000 0.76800  0.12960  0.98680  Biso   1.000  H
  H453     1.0000 0.81300  0.15130  0.01580  Biso   1.000  H
  C327     1.0000 0.64900  0.19820  0.05005  Biso   1.000  C
  H454     1.0000 0.63230  0.14990  0.06720  Biso   1.000  H
  H455     1.0000 0.67770  0.22170  0.06460  Biso   1.000  H
  H456     1.0000 0.63290  0.27670  0.04090  Biso   1.000  H
  C328     1.0000 0.65510  0.11630  0.01576  Biso   1.000  C
  C329     1.0000 0.68932  0.02750  0.01216  Biso   1.000  C
  C330     1.0000 0.67925  0.97340  0.97569  Biso   1.000  C
  C331     1.0000 0.70270  0.87390  0.95541  Biso   1.000  C
  H457     1.0000 0.72390  0.91630  0.94120  Biso   1.000  H
  H458     1.0000 0.71810  0.81420  0.97480  Biso   1.000  H
  H459     1.0000 0.68140  0.82580  0.93690  Biso   1.000  H
  C332     1.0000 0.92100  0.60000  0.23800  Biso   1.000  C
  H460     1.0000 0.89820  0.65630  0.22430  Biso   1.000  H
  H461     1.0000 0.93930  0.56690  0.21940  Biso   1.000  H
  H462     1.0000 0.90730  0.52750  0.24980  Biso   1.000  H
  C333     1.0000 0.94880  0.67480  0.26937  Biso   1.000  C
  C334     1.0000 0.98820  0.74190  0.26677  Biso   1.000  C
  C335     1.0000 0.00064  0.79620  0.30321  Biso   1.000  C
  C336     1.0000 0.03880  0.87950  0.31778  Biso   1.000  C
  H463     1.0000 0.06460  0.82530  0.32610  Biso   1.000  H
  H464     1.0000 0.04470  0.93760  0.29680  Biso   1.000  H
  H465     1.0000 0.03220  0.93050  0.34010  Biso   1.000  H
  N99      1.0000 0.84129  0.72630  0.34619  Biso   1.000  N
  N100     1.0000 0.86165  0.83000  0.36553  Biso   1.000  N
  H466     1.0000 0.89010  0.83500  0.37360  Biso   1.000  H
  N101     1.0000 0.69930  0.10920  0.34032  Biso   1.000  N
  N102     1.0000 0.68349  0.01010  0.35971  Biso   1.000  N
  H467     1.0000 0.65710  0.00880  0.36650  Biso   1.000  H
  N103     1.0000 0.87485  0.36860  0.30670  Biso   1.000  N
  N104     1.0000 0.90439  0.27810  0.32298  Biso   1.000  N
  H468     1.0000 0.91990  0.28440  0.34650  Biso   1.000  H
  N105     1.0000 0.84918  0.96420  0.18589  Biso   1.000  N
  N106     1.0000 0.87045  0.05880  0.16875  Biso   1.000  N
  H469     1.0000 0.87510  0.05680  0.14430  Biso   1.000  H
  N107     1.0000 0.77265  0.93060  0.09619  Biso   1.000  N
  N108     1.0000 0.79637  0.98310  0.07013  Biso   1.000  N
  H470     1.0000 0.82520  0.98880  0.07450  Biso   1.000  H
  N109     1.0000 0.62591  0.11740  0.98313  Biso   1.000  N
  N110     1.0000 0.64110  0.03130  0.95890  Biso   1.000  N
  H471     1.0000 0.62790  0.01460  0.93500  Biso   1.000  H
  N111     1.0000 0.93776  0.68640  0.30505  Biso   1.000  N
  N112     1.0000 0.97017  0.76020  0.32547  Biso   1.000  N
  H472     1.0000 0.97110  0.78180  0.35020  Biso   1.000  H
