data_image0
_cell_length_a       33.5767
_cell_length_b       33.5767
_cell_length_c       33.5767
_cell_angle_alpha    109.471
_cell_angle_beta     109.471
_cell_angle_gamma    109.471

_symmetry_space_group_name_H-M    P 1
_symmetry_int_tables_number       1

loop_
  _symmetry_equiv_pos_as_xyz
  'x, y, z'

loop_
  _atom_site_label
  _atom_site_occupancy
  _atom_site_fract_x
  _atom_site_fract_y
  _atom_site_fract_z
  _atom_site_thermal_displace_type
  _atom_site_B_iso_or_equiv
  _atom_site_type_symbol
  In1      1.0000 0.77764  0.92230  0.11518  Biso   1.000  In
  In2      1.0000 0.30712  0.66246  0.38482  Biso   1.000  In
  In3      1.0000 0.19288  0.57770  0.35534  Biso   1.000  In
  In4      1.0000 0.72236  0.83754  0.14466  Biso   1.000  In
  In5      1.0000 0.85534  0.19288  0.07770  Biso   1.000  In
  In6      1.0000 0.64466  0.72236  0.33754  Biso   1.000  In
  In7      1.0000 0.61518  0.77764  0.42230  Biso   1.000  In
  In8      1.0000 0.88482  0.30712  0.16246  Biso   1.000  In
  In9      1.0000 0.66246  0.88482  0.80712  Biso   1.000  In
  In10     1.0000 0.92230  0.61518  0.27764  Biso   1.000  In
  In11     1.0000 0.83754  0.64466  0.22236  Biso   1.000  In
  In12     1.0000 0.57770  0.85534  0.69288  Biso   1.000  In
  In13     1.0000 0.16246  0.80712  0.88482  Biso   1.000  In
  In14     1.0000 0.42230  0.27764  0.61518  Biso   1.000  In
  In15     1.0000 0.33754  0.22236  0.64466  Biso   1.000  In
  In16     1.0000 0.07770  0.69288  0.85534  Biso   1.000  In
  In17     1.0000 0.27764  0.11518  0.92230  Biso   1.000  In
  In18     1.0000 0.80712  0.38482  0.66246  Biso   1.000  In
  In19     1.0000 0.69288  0.35534  0.57770  Biso   1.000  In
  In20     1.0000 0.22236  0.14466  0.83754  Biso   1.000  In
  In21     1.0000 0.35534  0.07770  0.19288  Biso   1.000  In
  In22     1.0000 0.14466  0.33754  0.72236  Biso   1.000  In
  In23     1.0000 0.11518  0.42230  0.77764  Biso   1.000  In
  In24     1.0000 0.38482  0.16246  0.30712  Biso   1.000  In
  In25     1.0000 0.75000  0.80002  0.05002  Biso   1.000  In
  In26     1.0000 0.25000  0.69998  0.44998  Biso   1.000  In
  In27     1.0000 0.94998  0.25000  0.19998  Biso   1.000  In
  In28     1.0000 0.55002  0.75000  0.30002  Biso   1.000  In
  In29     1.0000 0.69998  0.94998  0.75000  Biso   1.000  In
  In30     1.0000 0.80002  0.55002  0.25000  Biso   1.000  In
  In31     1.0000 0.19998  0.75000  0.94998  Biso   1.000  In
  In32     1.0000 0.30002  0.25000  0.55002  Biso   1.000  In
  In33     1.0000 0.25000  0.05002  0.80002  Biso   1.000  In
  In34     1.0000 0.75000  0.44998  0.69998  Biso   1.000  In
  In35     1.0000 0.44998  0.19998  0.25000  Biso   1.000  In
  In36     1.0000 0.05002  0.30002  0.75000  Biso   1.000  In
  H1       1.0000 0.69410  0.91900  0.97890  Biso   1.000  H
  H2       1.0000 0.71870  0.81350  0.91440  Biso   1.000  H
  H3       1.0000 0.69330  0.82030  0.84640  Biso   1.000  H
  H4       1.0000 0.66960  0.92350  0.90870  Biso   1.000  H
  H5       1.0000 0.19950  0.00900  0.14370  Biso   1.000  H
  H6       1.0000 0.92640  0.98420  0.14760  Biso   1.000  H
  H7       1.0000 0.23090  0.12090  0.26260  Biso   1.000  H
  H8       1.0000 0.11860  0.97620  0.11920  Biso   1.000  H
  H9       1.0000 0.14810  0.08830  0.23540  Biso   1.000  H
  H10      1.0000 0.90260  0.84940  0.07500  Biso   1.000  H
  H11      1.0000 0.00310  0.01440  0.15650  Biso   1.000  H
  H12      1.0000 0.97990  0.88410  0.08740  Biso   1.000  H
  H13      1.0000 0.44010  0.71520  0.52110  Biso   1.000  H
  H14      1.0000 0.39910  0.80430  0.58560  Biso   1.000  H
  H15      1.0000 0.47390  0.84690  0.65360  Biso   1.000  H
  H16      1.0000 0.51480  0.76090  0.59130  Biso   1.000  H
  H17      1.0000 0.36530  0.05580  0.35630  Biso   1.000  H
  H18      1.0000 0.33660  0.77880  0.35240  Biso   1.000  H
  H19      1.0000 0.35830  0.96830  0.23740  Biso   1.000  H
  H20      1.0000 0.35700  0.99940  0.38080  Biso   1.000  H
  H21      1.0000 0.35290  0.91270  0.26460  Biso   1.000  H
  H22      1.0000 0.27440  0.82760  0.42500  Biso   1.000  H
  H23      1.0000 0.35790  0.84660  0.34350  Biso   1.000  H
  H24      1.0000 0.29670  0.89250  0.41260  Biso   1.000  H
  H25      1.0000 0.05990  0.58100  0.27510  Biso   1.000  H
  H26      1.0000 0.10090  0.68650  0.40520  Biso   1.000  H
  H27      1.0000 0.02610  0.67970  0.37300  Biso   1.000  H
  H28      1.0000 0.98520  0.57650  0.24610  Biso   1.000  H
  H29      1.0000 0.13470  0.49100  0.69050  Biso   1.000  H
  H30      1.0000 0.16340  0.51580  0.44220  Biso   1.000  H
  H31      1.0000 0.14170  0.37910  0.61000  Biso   1.000  H
  H32      1.0000 0.14300  0.52380  0.64240  Biso   1.000  H
  H33      1.0000 0.14710  0.41170  0.55980  Biso   1.000  H
  H34      1.0000 0.22560  0.65060  0.55320  Biso   1.000  H
  H35      1.0000 0.14210  0.48560  0.48870  Biso   1.000  H
  H36      1.0000 0.20330  0.61590  0.59580  Biso   1.000  H
  H37      1.0000 0.80590  0.78480  0.22490  Biso   1.000  H
  H38      1.0000 0.78130  0.69570  0.09480  Biso   1.000  H
  H39      1.0000 0.80670  0.65310  0.12700  Biso   1.000  H
  H40      1.0000 0.83040  0.73910  0.25390  Biso   1.000  H
  H41      1.0000 0.30050  0.44420  0.80950  Biso   1.000  H
  H42      1.0000 0.57360  0.72120  0.05780  Biso   1.000  H
  H43      1.0000 0.26910  0.53170  0.89000  Biso   1.000  H
  H44      1.0000 0.38140  0.50060  0.85760  Biso   1.000  H
  H45      1.0000 0.35190  0.58730  0.94020  Biso   1.000  H
  H46      1.0000 0.59740  0.67240  0.94680  Biso   1.000  H
  H47      1.0000 0.49690  0.65340  0.01130  Biso   1.000  H
  H48      1.0000 0.52010  0.60750  0.90420  Biso   1.000  H
  H49      1.0000 0.77510  0.05990  0.08100  Biso   1.000  H
  H50      1.0000 0.90520  0.10090  0.18650  Biso   1.000  H
  H51      1.0000 0.87300  0.02610  0.17970  Biso   1.000  H
  H52      1.0000 0.74610  0.98520  0.07650  Biso   1.000  H
  H53      1.0000 0.19050  0.13470  0.99100  Biso   1.000  H
  H54      1.0000 0.94220  0.16340  0.01580  Biso   1.000  H
  H55      1.0000 0.11000  0.14170  0.87910  Biso   1.000  H
  H56      1.0000 0.14240  0.14300  0.02380  Biso   1.000  H
  H57      1.0000 0.05980  0.14710  0.91170  Biso   1.000  H
  H58      1.0000 0.05320  0.22560  0.15060  Biso   1.000  H
  H59      1.0000 0.98870  0.14210  0.98560  Biso   1.000  H
  H60      1.0000 0.09580  0.20330  0.11590  Biso   1.000  H
  H61      1.0000 0.72490  0.80590  0.28480  Biso   1.000  H
  H62      1.0000 0.59480  0.78130  0.19570  Biso   1.000  H
  H63      1.0000 0.62700  0.80670  0.15310  Biso   1.000  H
  H64      1.0000 0.75390  0.83040  0.23910  Biso   1.000  H
  H65      1.0000 0.30950  0.30050  0.94420  Biso   1.000  H
  H66      1.0000 0.55780  0.57360  0.22120  Biso   1.000  H
  H67      1.0000 0.39000  0.26910  0.03170  Biso   1.000  H
  H68      1.0000 0.35760  0.38140  0.00060  Biso   1.000  H
  H69      1.0000 0.44020  0.35190  0.08730  Biso   1.000  H
  H70      1.0000 0.44680  0.59740  0.17240  Biso   1.000  H
  H71      1.0000 0.51130  0.49690  0.15340  Biso   1.000  H
  H72      1.0000 0.40420  0.52010  0.10750  Biso   1.000  H
  H73      1.0000 0.47890  0.69410  0.41900  Biso   1.000  H
  H74      1.0000 0.41440  0.71870  0.31350  Biso   1.000  H
  H75      1.0000 0.34640  0.69330  0.32030  Biso   1.000  H
  H76      1.0000 0.40870  0.66960  0.42350  Biso   1.000  H
  H77      1.0000 0.64370  0.19950  0.50900  Biso   1.000  H
  H78      1.0000 0.64760  0.92640  0.48420  Biso   1.000  H
  H79      1.0000 0.76260  0.23090  0.62090  Biso   1.000  H
  H80      1.0000 0.61920  0.11860  0.47620  Biso   1.000  H
  H81      1.0000 0.73540  0.14810  0.58830  Biso   1.000  H
  H82      1.0000 0.57500  0.90260  0.34940  Biso   1.000  H
  H83      1.0000 0.65650  0.00310  0.51440  Biso   1.000  H
  H84      1.0000 0.58740  0.97990  0.38410  Biso   1.000  H
  H85      1.0000 0.02110  0.44010  0.21520  Biso   1.000  H
  H86      1.0000 0.08560  0.39910  0.30430  Biso   1.000  H
  H87      1.0000 0.15360  0.47390  0.34690  Biso   1.000  H
  H88      1.0000 0.09130  0.51480  0.26090  Biso   1.000  H
  H89      1.0000 0.85630  0.36530  0.55580  Biso   1.000  H
  H90      1.0000 0.85240  0.33660  0.27880  Biso   1.000  H
  H91      1.0000 0.73740  0.35830  0.46830  Biso   1.000  H
  H92      1.0000 0.88080  0.35700  0.49940  Biso   1.000  H
  H93      1.0000 0.76460  0.35290  0.41270  Biso   1.000  H
  H94      1.0000 0.92500  0.27440  0.32760  Biso   1.000  H
  H95      1.0000 0.84350  0.35790  0.34660  Biso   1.000  H
  H96      1.0000 0.91260  0.29670  0.39250  Biso   1.000  H
  H97      1.0000 0.71520  0.02110  0.94010  Biso   1.000  H
  H98      1.0000 0.80430  0.08560  0.89910  Biso   1.000  H
  H99      1.0000 0.84690  0.15360  0.97390  Biso   1.000  H
  H100     1.0000 0.76090  0.09130  0.01480  Biso   1.000  H
  H101     1.0000 0.05580  0.85630  0.86530  Biso   1.000  H
  H102     1.0000 0.77880  0.85240  0.83660  Biso   1.000  H
  H103     1.0000 0.96830  0.73740  0.85830  Biso   1.000  H
  H104     1.0000 0.99940  0.88080  0.85700  Biso   1.000  H
  H105     1.0000 0.91270  0.76460  0.85290  Biso   1.000  H
  H106     1.0000 0.82760  0.92500  0.77440  Biso   1.000  H
  H107     1.0000 0.84660  0.84350  0.85790  Biso   1.000  H
  H108     1.0000 0.89250  0.91260  0.79670  Biso   1.000  H
  H109     1.0000 0.91900  0.47890  0.19410  Biso   1.000  H
  H110     1.0000 0.81350  0.41440  0.21870  Biso   1.000  H
  H111     1.0000 0.82030  0.34640  0.19330  Biso   1.000  H
  H112     1.0000 0.92350  0.40870  0.16960  Biso   1.000  H
  H113     1.0000 0.00900  0.64370  0.69950  Biso   1.000  H
  H114     1.0000 0.98420  0.64760  0.42640  Biso   1.000  H
  H115     1.0000 0.12090  0.76260  0.73090  Biso   1.000  H
  H116     1.0000 0.97620  0.61920  0.61860  Biso   1.000  H
  H117     1.0000 0.08830  0.73540  0.64810  Biso   1.000  H
  H118     1.0000 0.84940  0.57500  0.40260  Biso   1.000  H
  H119     1.0000 0.01440  0.65650  0.50310  Biso   1.000  H
  H120     1.0000 0.88410  0.58740  0.47990  Biso   1.000  H
  H121     1.0000 0.78480  0.72490  0.30590  Biso   1.000  H
  H122     1.0000 0.69570  0.59480  0.28130  Biso   1.000  H
  H123     1.0000 0.65310  0.62700  0.30670  Biso   1.000  H
  H124     1.0000 0.73910  0.75390  0.33040  Biso   1.000  H
  H125     1.0000 0.44420  0.30950  0.80050  Biso   1.000  H
  H126     1.0000 0.72120  0.55780  0.07360  Biso   1.000  H
  H127     1.0000 0.53170  0.39000  0.76910  Biso   1.000  H
  H128     1.0000 0.50060  0.35760  0.88140  Biso   1.000  H
  H129     1.0000 0.58730  0.44020  0.85190  Biso   1.000  H
  H130     1.0000 0.67240  0.44680  0.09740  Biso   1.000  H
  H131     1.0000 0.65340  0.51130  0.99690  Biso   1.000  H
  H132     1.0000 0.60750  0.40420  0.02010  Biso   1.000  H
  H133     1.0000 0.58100  0.77510  0.55990  Biso   1.000  H
  H134     1.0000 0.68650  0.90520  0.60090  Biso   1.000  H
  H135     1.0000 0.67970  0.87300  0.52610  Biso   1.000  H
  H136     1.0000 0.57650  0.74610  0.48520  Biso   1.000  H
  H137     1.0000 0.49100  0.19050  0.63470  Biso   1.000  H
  H138     1.0000 0.51580  0.94220  0.66340  Biso   1.000  H
  H139     1.0000 0.37910  0.11000  0.64170  Biso   1.000  H
  H140     1.0000 0.52380  0.14240  0.64300  Biso   1.000  H
  H141     1.0000 0.41170  0.05980  0.64710  Biso   1.000  H
  H142     1.0000 0.65060  0.05320  0.72560  Biso   1.000  H
  H143     1.0000 0.48560  0.98870  0.64210  Biso   1.000  H
  H144     1.0000 0.61590  0.09580  0.70330  Biso   1.000  H
  H145     1.0000 0.21520  0.94010  0.02110  Biso   1.000  H
  H146     1.0000 0.30430  0.89910  0.08560  Biso   1.000  H
  H147     1.0000 0.34690  0.97390  0.15360  Biso   1.000  H
  H148     1.0000 0.26090  0.01480  0.09130  Biso   1.000  H
  H149     1.0000 0.55580  0.86530  0.85630  Biso   1.000  H
  H150     1.0000 0.27880  0.83660  0.85240  Biso   1.000  H
  H151     1.0000 0.46830  0.85830  0.73740  Biso   1.000  H
  H152     1.0000 0.49940  0.85700  0.88080  Biso   1.000  H
  H153     1.0000 0.41270  0.85290  0.76460  Biso   1.000  H
  H154     1.0000 0.32760  0.77440  0.92500  Biso   1.000  H
  H155     1.0000 0.34660  0.85790  0.84350  Biso   1.000  H
  H156     1.0000 0.39250  0.79670  0.91260  Biso   1.000  H
  H157     1.0000 0.41900  0.19410  0.47890  Biso   1.000  H
  H158     1.0000 0.31350  0.21870  0.41440  Biso   1.000  H
  H159     1.0000 0.32030  0.19330  0.34640  Biso   1.000  H
  H160     1.0000 0.42350  0.16960  0.40870  Biso   1.000  H
  H161     1.0000 0.50900  0.69950  0.64370  Biso   1.000  H
  H162     1.0000 0.48420  0.42640  0.64760  Biso   1.000  H
  H163     1.0000 0.62090  0.73090  0.76260  Biso   1.000  H
  H164     1.0000 0.47620  0.61860  0.61920  Biso   1.000  H
  H165     1.0000 0.58830  0.64810  0.73540  Biso   1.000  H
  H166     1.0000 0.34940  0.40260  0.57500  Biso   1.000  H
  H167     1.0000 0.51440  0.50310  0.65650  Biso   1.000  H
  H168     1.0000 0.38410  0.47990  0.58740  Biso   1.000  H
  H169     1.0000 0.28480  0.30590  0.72490  Biso   1.000  H
  H170     1.0000 0.19570  0.28130  0.59480  Biso   1.000  H
  H171     1.0000 0.15310  0.30670  0.62700  Biso   1.000  H
  H172     1.0000 0.23910  0.33040  0.75390  Biso   1.000  H
  H173     1.0000 0.94420  0.80050  0.30950  Biso   1.000  H
  H174     1.0000 0.22120  0.07360  0.55780  Biso   1.000  H
  H175     1.0000 0.03170  0.76910  0.39000  Biso   1.000  H
  H176     1.0000 0.00060  0.88140  0.35760  Biso   1.000  H
  H177     1.0000 0.08730  0.85190  0.44020  Biso   1.000  H
  H178     1.0000 0.17240  0.09740  0.44680  Biso   1.000  H
  H179     1.0000 0.15340  0.99690  0.51130  Biso   1.000  H
  H180     1.0000 0.10750  0.02010  0.40420  Biso   1.000  H
  H181     1.0000 0.08100  0.55990  0.77510  Biso   1.000  H
  H182     1.0000 0.18650  0.60090  0.90520  Biso   1.000  H
  H183     1.0000 0.17970  0.52610  0.87300  Biso   1.000  H
  H184     1.0000 0.07650  0.48520  0.74610  Biso   1.000  H
  H185     1.0000 0.99100  0.63470  0.19050  Biso   1.000  H
  H186     1.0000 0.01580  0.66340  0.94220  Biso   1.000  H
  H187     1.0000 0.87910  0.64170  0.11000  Biso   1.000  H
  H188     1.0000 0.02380  0.64300  0.14240  Biso   1.000  H
  H189     1.0000 0.91170  0.64710  0.05980  Biso   1.000  H
  H190     1.0000 0.15060  0.72560  0.05320  Biso   1.000  H
  H191     1.0000 0.98560  0.64210  0.98870  Biso   1.000  H
  H192     1.0000 0.11590  0.70330  0.09580  Biso   1.000  H
  H193     1.0000 0.19410  0.97890  0.91900  Biso   1.000  H
  H194     1.0000 0.21870  0.91440  0.81350  Biso   1.000  H
  H195     1.0000 0.19330  0.84640  0.82030  Biso   1.000  H
  H196     1.0000 0.16960  0.90870  0.92350  Biso   1.000  H
  H197     1.0000 0.69950  0.14370  0.00900  Biso   1.000  H
  H198     1.0000 0.42640  0.14760  0.98420  Biso   1.000  H
  H199     1.0000 0.73090  0.26260  0.12090  Biso   1.000  H
  H200     1.0000 0.61860  0.11920  0.97620  Biso   1.000  H
  H201     1.0000 0.64810  0.23540  0.08830  Biso   1.000  H
  H202     1.0000 0.40260  0.07500  0.84940  Biso   1.000  H
  H203     1.0000 0.50310  0.15650  0.01440  Biso   1.000  H
  H204     1.0000 0.47990  0.08740  0.88410  Biso   1.000  H
  H205     1.0000 0.94010  0.52110  0.71520  Biso   1.000  H
  H206     1.0000 0.89910  0.58560  0.80430  Biso   1.000  H
  H207     1.0000 0.97390  0.65360  0.84690  Biso   1.000  H
  H208     1.0000 0.01480  0.59130  0.76090  Biso   1.000  H
  H209     1.0000 0.86530  0.35630  0.05580  Biso   1.000  H
  H210     1.0000 0.83660  0.35240  0.77880  Biso   1.000  H
  H211     1.0000 0.85830  0.23740  0.96830  Biso   1.000  H
  H212     1.0000 0.85700  0.38080  0.99940  Biso   1.000  H
  H213     1.0000 0.85290  0.26460  0.91270  Biso   1.000  H
  H214     1.0000 0.77440  0.42500  0.82760  Biso   1.000  H
  H215     1.0000 0.85790  0.34350  0.84660  Biso   1.000  H
  H216     1.0000 0.79670  0.41260  0.89250  Biso   1.000  H
  H217     1.0000 0.55990  0.27510  0.58100  Biso   1.000  H
  H218     1.0000 0.60090  0.40520  0.68650  Biso   1.000  H
  H219     1.0000 0.52610  0.37300  0.67970  Biso   1.000  H
  H220     1.0000 0.48520  0.24610  0.57650  Biso   1.000  H
  H221     1.0000 0.63470  0.69050  0.49100  Biso   1.000  H
  H222     1.0000 0.66340  0.44220  0.51580  Biso   1.000  H
  H223     1.0000 0.64170  0.61000  0.37910  Biso   1.000  H
  H224     1.0000 0.64300  0.64240  0.52380  Biso   1.000  H
  H225     1.0000 0.64710  0.55980  0.41170  Biso   1.000  H
  H226     1.0000 0.72560  0.55320  0.65060  Biso   1.000  H
  H227     1.0000 0.64210  0.48870  0.48560  Biso   1.000  H
  H228     1.0000 0.70330  0.59580  0.61590  Biso   1.000  H
  H229     1.0000 0.30590  0.22490  0.78480  Biso   1.000  H
  H230     1.0000 0.28130  0.09480  0.69570  Biso   1.000  H
  H231     1.0000 0.30670  0.12700  0.65310  Biso   1.000  H
  H232     1.0000 0.33040  0.25390  0.73910  Biso   1.000  H
  H233     1.0000 0.80050  0.80950  0.44420  Biso   1.000  H
  H234     1.0000 0.07360  0.05780  0.72120  Biso   1.000  H
  H235     1.0000 0.76910  0.89000  0.53170  Biso   1.000  H
  H236     1.0000 0.88140  0.85760  0.50060  Biso   1.000  H
  H237     1.0000 0.85190  0.94020  0.58730  Biso   1.000  H
  H238     1.0000 0.09740  0.94680  0.67240  Biso   1.000  H
  H239     1.0000 0.99690  0.01130  0.65340  Biso   1.000  H
  H240     1.0000 0.02010  0.90420  0.60750  Biso   1.000  H
  H241     1.0000 0.27510  0.08100  0.05990  Biso   1.000  H
  H242     1.0000 0.40520  0.18650  0.10090  Biso   1.000  H
  H243     1.0000 0.37300  0.17970  0.02610  Biso   1.000  H
  H244     1.0000 0.24610  0.07650  0.98520  Biso   1.000  H
  H245     1.0000 0.69050  0.99100  0.13470  Biso   1.000  H
  H246     1.0000 0.44220  0.01580  0.16340  Biso   1.000  H
  H247     1.0000 0.61000  0.87910  0.14170  Biso   1.000  H
  H248     1.0000 0.64240  0.02380  0.14300  Biso   1.000  H
  H249     1.0000 0.55980  0.91170  0.14710  Biso   1.000  H
  H250     1.0000 0.55320  0.15060  0.22560  Biso   1.000  H
  H251     1.0000 0.48870  0.98560  0.14210  Biso   1.000  H
  H252     1.0000 0.59580  0.11590  0.20330  Biso   1.000  H
  H253     1.0000 0.22490  0.28480  0.80590  Biso   1.000  H
  H254     1.0000 0.09480  0.19570  0.78130  Biso   1.000  H
  H255     1.0000 0.12700  0.15310  0.80670  Biso   1.000  H
  H256     1.0000 0.25390  0.23910  0.83040  Biso   1.000  H
  H257     1.0000 0.80950  0.94420  0.30050  Biso   1.000  H
  H258     1.0000 0.05780  0.22120  0.57360  Biso   1.000  H
  H259     1.0000 0.89000  0.03170  0.26910  Biso   1.000  H
  H260     1.0000 0.85760  0.00060  0.38140  Biso   1.000  H
  H261     1.0000 0.94020  0.08730  0.35190  Biso   1.000  H
  H262     1.0000 0.94680  0.17240  0.59740  Biso   1.000  H
  H263     1.0000 0.01130  0.15340  0.49690  Biso   1.000  H
  H264     1.0000 0.90420  0.10750  0.52010  Biso   1.000  H
  H265     1.0000 0.97890  0.41900  0.69410  Biso   1.000  H
  H266     1.0000 0.91440  0.31350  0.71870  Biso   1.000  H
  H267     1.0000 0.84640  0.32030  0.69330  Biso   1.000  H
  H268     1.0000 0.90870  0.42350  0.66960  Biso   1.000  H
  H269     1.0000 0.14370  0.50900  0.19950  Biso   1.000  H
  H270     1.0000 0.14760  0.48420  0.92640  Biso   1.000  H
  H271     1.0000 0.26260  0.62090  0.23090  Biso   1.000  H
  H272     1.0000 0.11920  0.47620  0.11860  Biso   1.000  H
  H273     1.0000 0.23540  0.58830  0.14810  Biso   1.000  H
  H274     1.0000 0.07500  0.34940  0.90260  Biso   1.000  H
  H275     1.0000 0.15650  0.51440  0.00310  Biso   1.000  H
  H276     1.0000 0.08740  0.38410  0.97990  Biso   1.000  H
  H277     1.0000 0.52110  0.21520  0.44010  Biso   1.000  H
  H278     1.0000 0.58560  0.30430  0.39910  Biso   1.000  H
  H279     1.0000 0.65360  0.34690  0.47390  Biso   1.000  H
  H280     1.0000 0.59130  0.26090  0.51480  Biso   1.000  H
  H281     1.0000 0.35630  0.55580  0.36530  Biso   1.000  H
  H282     1.0000 0.35240  0.27880  0.33660  Biso   1.000  H
  H283     1.0000 0.23740  0.46830  0.35830  Biso   1.000  H
  H284     1.0000 0.38080  0.49940  0.35700  Biso   1.000  H
  H285     1.0000 0.26460  0.41270  0.35290  Biso   1.000  H
  H286     1.0000 0.42500  0.32760  0.27440  Biso   1.000  H
  H287     1.0000 0.34350  0.34660  0.35790  Biso   1.000  H
  H288     1.0000 0.41260  0.39250  0.29670  Biso   1.000  H
  C1       1.0000 0.69431  0.89853  0.95234  Biso   1.000  C
  C2       1.0000 0.70871  0.83615  0.91402  Biso   1.000  C
  C3       1.0000 0.85297  0.89383  0.09634  Biso   1.000  C
  C4       1.0000 0.90467  0.91396  0.10713  Biso   1.000  C
  C5       1.0000 0.70863  0.86549  0.95480  Biso   1.000  C
  C6       1.0000 0.27654  0.08948  0.22068  Biso   1.000  C
  C7       1.0000 0.69403  0.84085  0.87362  Biso   1.000  C
  C8       1.0000 0.72561  0.86238  0.00023  Biso   1.000  C
  C9       1.0000 0.68003  0.90141  0.91020  Biso   1.000  C
  C10      1.0000 0.22377  0.06850  0.20427  Biso   1.000  C
  C11      1.0000 0.00090  0.95200  0.12790  Biso   1.000  C
  C12      1.0000 0.18960  0.02560  0.16300  Biso   1.000  C
  C13      1.0000 0.12590  0.02860  0.17630  Biso   1.000  C
  C14      1.0000 0.93640  0.96300  0.13420  Biso   1.000  C
  C15      1.0000 0.20830  0.09190  0.23300  Biso   1.000  C
  C16      1.0000 0.14110  0.00550  0.14820  Biso   1.000  C
  C17      1.0000 0.15870  0.07160  0.21710  Biso   1.000  C
  C18      1.0000 0.92220  0.88310  0.09130  Biso   1.000  C
  C19      1.0000 0.98320  0.98090  0.14150  Biso   1.000  C
  C20      1.0000 0.96920  0.90440  0.10080  Biso   1.000  C
  C21      1.0000 0.44619  0.74197  0.54766  Biso   1.000  C
  C22      1.0000 0.42213  0.79469  0.58598  Biso   1.000  C
  C23      1.0000 0.29749  0.75663  0.40366  Biso   1.000  C
  C24      1.0000 0.30683  0.79754  0.39287  Biso   1.000  C
  C25      1.0000 0.41069  0.75383  0.54520  Biso   1.000  C
  C26      1.0000 0.36880  0.05586  0.27932  Biso   1.000  C
  C27      1.0000 0.46723  0.82041  0.62638  Biso   1.000  C
  C28      1.0000 0.36215  0.72538  0.49977  Biso   1.000  C
  C29      1.0000 0.49121  0.76983  0.58980  Biso   1.000  C
  C30      1.0000 0.36423  0.01950  0.29573  Biso   1.000  C
  C31      1.0000 0.32410  0.87300  0.37210  Biso   1.000  C
  C32      1.0000 0.36260  0.02660  0.33700  Biso   1.000  C
  C33      1.0000 0.35230  0.94960  0.32370  Biso   1.000  C
  C34      1.0000 0.32880  0.80220  0.36580  Biso   1.000  C
  C35      1.0000 0.35890  0.97530  0.26700  Biso   1.000  C
  C36      1.0000 0.35730  0.99290  0.35180  Biso   1.000  C
  C37      1.0000 0.35450  0.94160  0.28290  Biso   1.000  C
  C38      1.0000 0.29180  0.83090  0.40870  Biso   1.000  C
  C39      1.0000 0.33940  0.84170  0.35850  Biso   1.000  C
  C40      1.0000 0.30360  0.86840  0.39920  Biso   1.000  C
  C41      1.0000 0.05381  0.60147  0.29578  Biso   1.000  C
  C42      1.0000 0.07787  0.66385  0.37256  Biso   1.000  C
  C43      1.0000 0.20251  0.60617  0.45914  Biso   1.000  C
  C44      1.0000 0.19317  0.58604  0.49071  Biso   1.000  C
  C45      1.0000 0.08931  0.63451  0.34314  Biso   1.000  C
  C46      1.0000 0.13120  0.41052  0.68706  Biso   1.000  C
  C47      1.0000 0.03277  0.65915  0.35318  Biso   1.000  C
  C48      1.0000 0.13785  0.63762  0.36323  Biso   1.000  C
  C49      1.0000 0.00879  0.59859  0.27862  Biso   1.000  C
  C50      1.0000 0.13577  0.43150  0.65527  Biso   1.000  C
  C51      1.0000 0.17590  0.54800  0.54890  Biso   1.000  C
  C52      1.0000 0.13740  0.47440  0.66400  Biso   1.000  C
  C53      1.0000 0.14770  0.47140  0.59730  Biso   1.000  C
  C54      1.0000 0.17120  0.53700  0.47340  Biso   1.000  C
  C55      1.0000 0.14110  0.40810  0.61640  Biso   1.000  C
  C56      1.0000 0.14270  0.49450  0.63560  Biso   1.000  C
  C57      1.0000 0.14550  0.42840  0.58710  Biso   1.000  C
  C58      1.0000 0.20820  0.61690  0.53910  Biso   1.000  C
  C59      1.0000 0.16060  0.51910  0.50230  Biso   1.000  C
  C60      1.0000 0.19640  0.59560  0.56480  Biso   1.000  C
  C61      1.0000 0.80569  0.75803  0.20422  Biso   1.000  C
  C62      1.0000 0.79129  0.70531  0.12744  Biso   1.000  C
  C63      1.0000 0.64703  0.74337  0.04086  Biso   1.000  C
  C64      1.0000 0.59533  0.70246  0.00929  Biso   1.000  C
  C65      1.0000 0.79137  0.74617  0.15686  Biso   1.000  C
  C66      1.0000 0.22346  0.44414  0.81294  Biso   1.000  C
  C67      1.0000 0.80597  0.67959  0.14682  Biso   1.000  C
  C68      1.0000 0.77439  0.77462  0.13677  Biso   1.000  C
  C69      1.0000 0.81997  0.73017  0.22138  Biso   1.000  C
  C70      1.0000 0.27623  0.48050  0.84473  Biso   1.000  C
  C71      1.0000 0.49910  0.62700  0.95110  Biso   1.000  C
  C72      1.0000 0.31040  0.47340  0.83600  Biso   1.000  C
  C73      1.0000 0.37410  0.55040  0.90270  Biso   1.000  C
  C74      1.0000 0.56360  0.69780  0.02660  Biso   1.000  C
  C75      1.0000 0.29170  0.52470  0.88360  Biso   1.000  C
  C76      1.0000 0.35890  0.50710  0.86440  Biso   1.000  C
  C77      1.0000 0.34130  0.55840  0.91290  Biso   1.000  C
  C78      1.0000 0.57780  0.66910  0.96090  Biso   1.000  C
  C79      1.0000 0.51680  0.65830  0.99770  Biso   1.000  C
  C80      1.0000 0.53080  0.63160  0.93520  Biso   1.000  C
  C81      1.0000 0.79578  0.05381  0.10147  Biso   1.000  C
  C82      1.0000 0.87256  0.07787  0.16385  Biso   1.000  C
  C83      1.0000 0.95914  0.20251  0.10617  Biso   1.000  C
  C84      1.0000 0.99071  0.19317  0.08604  Biso   1.000  C
  C85      1.0000 0.84314  0.08931  0.13451  Biso   1.000  C
  C86      1.0000 0.18706  0.13120  0.91052  Biso   1.000  C
  C87      1.0000 0.85318  0.03277  0.15915  Biso   1.000  C
  C88      1.0000 0.86323  0.13785  0.13762  Biso   1.000  C
  C89      1.0000 0.77862  0.00879  0.09859  Biso   1.000  C
  C90      1.0000 0.15527  0.13577  0.93150  Biso   1.000  C
  C91      1.0000 0.04890  0.17590  0.04800  Biso   1.000  C
  C92      1.0000 0.16400  0.13740  0.97440  Biso   1.000  C
  C93      1.0000 0.09730  0.14770  0.97140  Biso   1.000  C
  C94      1.0000 0.97340  0.17120  0.03700  Biso   1.000  C
  C95      1.0000 0.11640  0.14110  0.90810  Biso   1.000  C
  C96      1.0000 0.13560  0.14270  0.99450  Biso   1.000  C
  C97      1.0000 0.08710  0.14550  0.92840  Biso   1.000  C
  C98      1.0000 0.03910  0.20820  0.11690  Biso   1.000  C
  C99      1.0000 0.00230  0.16060  0.01910  Biso   1.000  C
  C100     1.0000 0.06480  0.19640  0.09560  Biso   1.000  C
  C101     1.0000 0.70422  0.80569  0.25803  Biso   1.000  C
  C102     1.0000 0.62744  0.79129  0.20531  Biso   1.000  C
  C103     1.0000 0.54086  0.64703  0.24337  Biso   1.000  C
  C104     1.0000 0.50929  0.59533  0.20246  Biso   1.000  C
  C105     1.0000 0.65686  0.79137  0.24617  Biso   1.000  C
  C106     1.0000 0.31294  0.22346  0.94414  Biso   1.000  C
  C107     1.0000 0.64682  0.80597  0.17959  Biso   1.000  C
  C108     1.0000 0.63677  0.77439  0.27462  Biso   1.000  C
  C109     1.0000 0.72138  0.81997  0.23017  Biso   1.000  C
  C110     1.0000 0.34473  0.27623  0.98050  Biso   1.000  C
  C111     1.0000 0.45110  0.49910  0.12700  Biso   1.000  C
  C112     1.0000 0.33600  0.31040  0.97340  Biso   1.000  C
  C113     1.0000 0.40270  0.37410  0.05040  Biso   1.000  C
  C114     1.0000 0.52660  0.56360  0.19780  Biso   1.000  C
  C115     1.0000 0.38360  0.29170  0.02470  Biso   1.000  C
  C116     1.0000 0.36440  0.35890  0.00710  Biso   1.000  C
  C117     1.0000 0.41290  0.34130  0.05840  Biso   1.000  C
  C118     1.0000 0.46090  0.57780  0.16910  Biso   1.000  C
  C119     1.0000 0.49770  0.51680  0.15830  Biso   1.000  C
  C120     1.0000 0.43520  0.53080  0.13160  Biso   1.000  C
  C121     1.0000 0.45234  0.69431  0.39853  Biso   1.000  C
  C122     1.0000 0.41402  0.70871  0.33615  Biso   1.000  C
  C123     1.0000 0.59634  0.85297  0.39383  Biso   1.000  C
  C124     1.0000 0.60713  0.90467  0.41396  Biso   1.000  C
  C125     1.0000 0.45480  0.70863  0.36549  Biso   1.000  C
  C126     1.0000 0.72068  0.27654  0.58948  Biso   1.000  C
  C127     1.0000 0.37362  0.69403  0.34085  Biso   1.000  C
  C128     1.0000 0.50023  0.72561  0.36238  Biso   1.000  C
  C129     1.0000 0.41020  0.68003  0.40141  Biso   1.000  C
  C130     1.0000 0.70427  0.22377  0.56850  Biso   1.000  C
  C131     1.0000 0.62790  0.00090  0.45200  Biso   1.000  C
  C132     1.0000 0.66300  0.18960  0.52560  Biso   1.000  C
  C133     1.0000 0.67630  0.12590  0.52860  Biso   1.000  C
  C134     1.0000 0.63420  0.93640  0.46300  Biso   1.000  C
  C135     1.0000 0.73300  0.20830  0.59190  Biso   1.000  C
  C136     1.0000 0.64820  0.14110  0.50550  Biso   1.000  C
  C137     1.0000 0.71710  0.15870  0.57160  Biso   1.000  C
  C138     1.0000 0.59130  0.92220  0.38310  Biso   1.000  C
  C139     1.0000 0.64150  0.98320  0.48090  Biso   1.000  C
  C140     1.0000 0.60080  0.96920  0.40440  Biso   1.000  C
  C141     1.0000 0.04766  0.44619  0.24197  Biso   1.000  C
  C142     1.0000 0.08598  0.42213  0.29469  Biso   1.000  C
  C143     1.0000 0.90366  0.29749  0.25663  Biso   1.000  C
  C144     1.0000 0.89287  0.30683  0.29754  Biso   1.000  C
  C145     1.0000 0.04520  0.41069  0.25383  Biso   1.000  C
  C146     1.0000 0.77932  0.36880  0.55586  Biso   1.000  C
  C147     1.0000 0.12638  0.46723  0.32041  Biso   1.000  C
  C148     1.0000 0.99977  0.36215  0.22538  Biso   1.000  C
  C149     1.0000 0.08980  0.49121  0.26983  Biso   1.000  C
  C150     1.0000 0.79573  0.36423  0.51950  Biso   1.000  C
  C151     1.0000 0.87210  0.32410  0.37300  Biso   1.000  C
  C152     1.0000 0.83700  0.36260  0.52660  Biso   1.000  C
  C153     1.0000 0.82370  0.35230  0.44960  Biso   1.000  C
  C154     1.0000 0.86580  0.32880  0.30220  Biso   1.000  C
  C155     1.0000 0.76700  0.35890  0.47530  Biso   1.000  C
  C156     1.0000 0.85180  0.35730  0.49290  Biso   1.000  C
  C157     1.0000 0.78290  0.35450  0.44160  Biso   1.000  C
  C158     1.0000 0.90870  0.29180  0.33090  Biso   1.000  C
  C159     1.0000 0.85850  0.33940  0.34170  Biso   1.000  C
  C160     1.0000 0.89920  0.30360  0.36840  Biso   1.000  C
  C161     1.0000 0.74197  0.04766  0.94619  Biso   1.000  C
  C162     1.0000 0.79469  0.08598  0.92213  Biso   1.000  C
  C163     1.0000 0.75663  0.90366  0.79749  Biso   1.000  C
  C164     1.0000 0.79754  0.89287  0.80683  Biso   1.000  C
  C165     1.0000 0.75383  0.04520  0.91069  Biso   1.000  C
  C166     1.0000 0.05586  0.77932  0.86880  Biso   1.000  C
  C167     1.0000 0.82041  0.12638  0.96723  Biso   1.000  C
  C168     1.0000 0.72538  0.99977  0.86215  Biso   1.000  C
  C169     1.0000 0.76983  0.08980  0.99121  Biso   1.000  C
  C170     1.0000 0.01950  0.79573  0.86423  Biso   1.000  C
  C171     1.0000 0.87300  0.87210  0.82410  Biso   1.000  C
  C172     1.0000 0.02660  0.83700  0.86260  Biso   1.000  C
  C173     1.0000 0.94960  0.82370  0.85230  Biso   1.000  C
  C174     1.0000 0.80220  0.86580  0.82880  Biso   1.000  C
  C175     1.0000 0.97530  0.76700  0.85890  Biso   1.000  C
  C176     1.0000 0.99290  0.85180  0.85730  Biso   1.000  C
  C177     1.0000 0.94160  0.78290  0.85450  Biso   1.000  C
  C178     1.0000 0.83090  0.90870  0.79180  Biso   1.000  C
  C179     1.0000 0.84170  0.85850  0.83940  Biso   1.000  C
  C180     1.0000 0.86840  0.89920  0.80360  Biso   1.000  C
  C181     1.0000 0.89853  0.45234  0.19431  Biso   1.000  C
  C182     1.0000 0.83615  0.41402  0.20871  Biso   1.000  C
  C183     1.0000 0.89383  0.59634  0.35297  Biso   1.000  C
  C184     1.0000 0.91396  0.60713  0.40467  Biso   1.000  C
  C185     1.0000 0.86549  0.45480  0.20863  Biso   1.000  C
  C186     1.0000 0.08948  0.72068  0.77654  Biso   1.000  C
  C187     1.0000 0.84085  0.37362  0.19403  Biso   1.000  C
  C188     1.0000 0.86238  0.50023  0.22561  Biso   1.000  C
  C189     1.0000 0.90141  0.41020  0.18003  Biso   1.000  C
  C190     1.0000 0.06850  0.70427  0.72377  Biso   1.000  C
  C191     1.0000 0.95200  0.62790  0.50090  Biso   1.000  C
  C192     1.0000 0.02560  0.66300  0.68960  Biso   1.000  C
  C193     1.0000 0.02860  0.67630  0.62590  Biso   1.000  C
  C194     1.0000 0.96300  0.63420  0.43640  Biso   1.000  C
  C195     1.0000 0.09190  0.73300  0.70830  Biso   1.000  C
  C196     1.0000 0.00550  0.64820  0.64110  Biso   1.000  C
  C197     1.0000 0.07160  0.71710  0.65870  Biso   1.000  C
  C198     1.0000 0.88310  0.59130  0.42220  Biso   1.000  C
  C199     1.0000 0.98090  0.64150  0.48320  Biso   1.000  C
  C200     1.0000 0.90440  0.60080  0.46920  Biso   1.000  C
  C201     1.0000 0.75803  0.70422  0.30569  Biso   1.000  C
  C202     1.0000 0.70531  0.62744  0.29129  Biso   1.000  C
  C203     1.0000 0.74337  0.54086  0.14703  Biso   1.000  C
  C204     1.0000 0.70246  0.50929  0.09533  Biso   1.000  C
  C205     1.0000 0.74617  0.65686  0.29137  Biso   1.000  C
  C206     1.0000 0.44414  0.31294  0.72346  Biso   1.000  C
  C207     1.0000 0.67959  0.64682  0.30597  Biso   1.000  C
  C208     1.0000 0.77462  0.63677  0.27439  Biso   1.000  C
  C209     1.0000 0.73017  0.72138  0.31997  Biso   1.000  C
  C210     1.0000 0.48050  0.34473  0.77623  Biso   1.000  C
  C211     1.0000 0.62700  0.45110  0.99910  Biso   1.000  C
  C212     1.0000 0.47340  0.33600  0.81040  Biso   1.000  C
  C213     1.0000 0.55040  0.40270  0.87410  Biso   1.000  C
  C214     1.0000 0.69780  0.52660  0.06360  Biso   1.000  C
  C215     1.0000 0.52470  0.38360  0.79170  Biso   1.000  C
  C216     1.0000 0.50710  0.36440  0.85890  Biso   1.000  C
  C217     1.0000 0.55840  0.41290  0.84130  Biso   1.000  C
  C218     1.0000 0.66910  0.46090  0.07780  Biso   1.000  C
  C219     1.0000 0.65830  0.49770  0.01680  Biso   1.000  C
  C220     1.0000 0.63160  0.43520  0.03080  Biso   1.000  C
  C221     1.0000 0.60147  0.79578  0.55381  Biso   1.000  C
  C222     1.0000 0.66385  0.87256  0.57787  Biso   1.000  C
  C223     1.0000 0.60617  0.95914  0.70251  Biso   1.000  C
  C224     1.0000 0.58604  0.99071  0.69317  Biso   1.000  C
  C225     1.0000 0.63451  0.84314  0.58931  Biso   1.000  C
  C226     1.0000 0.41052  0.18706  0.63120  Biso   1.000  C
  C227     1.0000 0.65915  0.85318  0.53277  Biso   1.000  C
  C228     1.0000 0.63762  0.86323  0.63785  Biso   1.000  C
  C229     1.0000 0.59859  0.77862  0.50879  Biso   1.000  C
  C230     1.0000 0.43150  0.15527  0.63577  Biso   1.000  C
  C231     1.0000 0.54800  0.04890  0.67590  Biso   1.000  C
  C232     1.0000 0.47440  0.16400  0.63740  Biso   1.000  C
  C233     1.0000 0.47140  0.09730  0.64770  Biso   1.000  C
  C234     1.0000 0.53700  0.97340  0.67120  Biso   1.000  C
  C235     1.0000 0.40810  0.11640  0.64110  Biso   1.000  C
  C236     1.0000 0.49450  0.13560  0.64270  Biso   1.000  C
  C237     1.0000 0.42840  0.08710  0.64550  Biso   1.000  C
  C238     1.0000 0.61690  0.03910  0.70820  Biso   1.000  C
  C239     1.0000 0.51910  0.00230  0.66060  Biso   1.000  C
  C240     1.0000 0.59560  0.06480  0.69640  Biso   1.000  C
  C241     1.0000 0.24197  0.94619  0.04766  Biso   1.000  C
  C242     1.0000 0.29469  0.92213  0.08598  Biso   1.000  C
  C243     1.0000 0.25663  0.79749  0.90366  Biso   1.000  C
  C244     1.0000 0.29754  0.80683  0.89287  Biso   1.000  C
  C245     1.0000 0.25383  0.91069  0.04520  Biso   1.000  C
  C246     1.0000 0.55586  0.86880  0.77932  Biso   1.000  C
  C247     1.0000 0.32041  0.96723  0.12638  Biso   1.000  C
  C248     1.0000 0.22538  0.86215  0.99977  Biso   1.000  C
  C249     1.0000 0.26983  0.99121  0.08980  Biso   1.000  C
  C250     1.0000 0.51950  0.86423  0.79573  Biso   1.000  C
  C251     1.0000 0.37300  0.82410  0.87210  Biso   1.000  C
  C252     1.0000 0.52660  0.86260  0.83700  Biso   1.000  C
  C253     1.0000 0.44960  0.85230  0.82370  Biso   1.000  C
  C254     1.0000 0.30220  0.82880  0.86580  Biso   1.000  C
  C255     1.0000 0.47530  0.85890  0.76700  Biso   1.000  C
  C256     1.0000 0.49290  0.85730  0.85180  Biso   1.000  C
  C257     1.0000 0.44160  0.85450  0.78290  Biso   1.000  C
  C258     1.0000 0.33090  0.79180  0.90870  Biso   1.000  C
  C259     1.0000 0.34170  0.83940  0.85850  Biso   1.000  C
  C260     1.0000 0.36840  0.80360  0.89920  Biso   1.000  C
  C261     1.0000 0.39853  0.19431  0.45234  Biso   1.000  C
  C262     1.0000 0.33615  0.20871  0.41402  Biso   1.000  C
  C263     1.0000 0.39383  0.35297  0.59634  Biso   1.000  C
  C264     1.0000 0.41396  0.40467  0.60713  Biso   1.000  C
  C265     1.0000 0.36549  0.20863  0.45480  Biso   1.000  C
  C266     1.0000 0.58948  0.77654  0.72068  Biso   1.000  C
  C267     1.0000 0.34085  0.19403  0.37362  Biso   1.000  C
  C268     1.0000 0.36238  0.22561  0.50023  Biso   1.000  C
  C269     1.0000 0.40141  0.18003  0.41020  Biso   1.000  C
  C270     1.0000 0.56850  0.72377  0.70427  Biso   1.000  C
  C271     1.0000 0.45200  0.50090  0.62790  Biso   1.000  C
  C272     1.0000 0.52560  0.68960  0.66300  Biso   1.000  C
  C273     1.0000 0.52860  0.62590  0.67630  Biso   1.000  C
  C274     1.0000 0.46300  0.43640  0.63420  Biso   1.000  C
  C275     1.0000 0.59190  0.70830  0.73300  Biso   1.000  C
  C276     1.0000 0.50550  0.64110  0.64820  Biso   1.000  C
  C277     1.0000 0.57160  0.65870  0.71710  Biso   1.000  C
  C278     1.0000 0.38310  0.42220  0.59130  Biso   1.000  C
  C279     1.0000 0.48090  0.48320  0.64150  Biso   1.000  C
  C280     1.0000 0.40440  0.46920  0.60080  Biso   1.000  C
  C281     1.0000 0.25803  0.30569  0.70422  Biso   1.000  C
  C282     1.0000 0.20531  0.29129  0.62744  Biso   1.000  C
  C283     1.0000 0.24337  0.14703  0.54086  Biso   1.000  C
  C284     1.0000 0.20246  0.09533  0.50929  Biso   1.000  C
  C285     1.0000 0.24617  0.29137  0.65686  Biso   1.000  C
  C286     1.0000 0.94414  0.72346  0.31294  Biso   1.000  C
  C287     1.0000 0.17959  0.30597  0.64682  Biso   1.000  C
  C288     1.0000 0.27462  0.27439  0.63677  Biso   1.000  C
  C289     1.0000 0.23017  0.31997  0.72138  Biso   1.000  C
  C290     1.0000 0.98050  0.77623  0.34473  Biso   1.000  C
  C291     1.0000 0.12700  0.99910  0.45110  Biso   1.000  C
  C292     1.0000 0.97340  0.81040  0.33600  Biso   1.000  C
  C293     1.0000 0.05040  0.87410  0.40270  Biso   1.000  C
  C294     1.0000 0.19780  0.06360  0.52660  Biso   1.000  C
  C295     1.0000 0.02470  0.79170  0.38360  Biso   1.000  C
  C296     1.0000 0.00710  0.85890  0.36440  Biso   1.000  C
  C297     1.0000 0.05840  0.84130  0.41290  Biso   1.000  C
  C298     1.0000 0.16910  0.07780  0.46090  Biso   1.000  C
  C299     1.0000 0.15830  0.01680  0.49770  Biso   1.000  C
  C300     1.0000 0.13160  0.03080  0.43520  Biso   1.000  C
  C301     1.0000 0.10147  0.55381  0.79578  Biso   1.000  C
  C302     1.0000 0.16385  0.57787  0.87256  Biso   1.000  C
  C303     1.0000 0.10617  0.70251  0.95914  Biso   1.000  C
  C304     1.0000 0.08604  0.69317  0.99071  Biso   1.000  C
  C305     1.0000 0.13451  0.58931  0.84314  Biso   1.000  C
  C306     1.0000 0.91052  0.63120  0.18706  Biso   1.000  C
  C307     1.0000 0.15915  0.53277  0.85318  Biso   1.000  C
  C308     1.0000 0.13762  0.63785  0.86323  Biso   1.000  C
  C309     1.0000 0.09859  0.50879  0.77862  Biso   1.000  C
  C310     1.0000 0.93150  0.63577  0.15527  Biso   1.000  C
  C311     1.0000 0.04800  0.67590  0.04890  Biso   1.000  C
  C312     1.0000 0.97440  0.63740  0.16400  Biso   1.000  C
  C313     1.0000 0.97140  0.64770  0.09730  Biso   1.000  C
  C314     1.0000 0.03700  0.67120  0.97340  Biso   1.000  C
  C315     1.0000 0.90810  0.64110  0.11640  Biso   1.000  C
  C316     1.0000 0.99450  0.64270  0.13560  Biso   1.000  C
  C317     1.0000 0.92840  0.64550  0.08710  Biso   1.000  C
  C318     1.0000 0.11690  0.70820  0.03910  Biso   1.000  C
  C319     1.0000 0.01910  0.66060  0.00230  Biso   1.000  C
  C320     1.0000 0.09560  0.69640  0.06480  Biso   1.000  C
  C321     1.0000 0.19431  0.95234  0.89853  Biso   1.000  C
  C322     1.0000 0.20871  0.91402  0.83615  Biso   1.000  C
  C323     1.0000 0.35297  0.09634  0.89383  Biso   1.000  C
  C324     1.0000 0.40467  0.10713  0.91396  Biso   1.000  C
  C325     1.0000 0.20863  0.95480  0.86549  Biso   1.000  C
  C326     1.0000 0.77654  0.22068  0.08948  Biso   1.000  C
  C327     1.0000 0.19403  0.87362  0.84085  Biso   1.000  C
  C328     1.0000 0.22561  0.00023  0.86238  Biso   1.000  C
  C329     1.0000 0.18003  0.91020  0.90141  Biso   1.000  C
  C330     1.0000 0.72377  0.20427  0.06850  Biso   1.000  C
  C331     1.0000 0.50090  0.12790  0.95200  Biso   1.000  C
  C332     1.0000 0.68960  0.16300  0.02560  Biso   1.000  C
  C333     1.0000 0.62590  0.17630  0.02860  Biso   1.000  C
  C334     1.0000 0.43640  0.13420  0.96300  Biso   1.000  C
  C335     1.0000 0.70830  0.23300  0.09190  Biso   1.000  C
  C336     1.0000 0.64110  0.14820  0.00550  Biso   1.000  C
  C337     1.0000 0.65870  0.21710  0.07160  Biso   1.000  C
  C338     1.0000 0.42220  0.09130  0.88310  Biso   1.000  C
  C339     1.0000 0.48320  0.14150  0.98090  Biso   1.000  C
  C340     1.0000 0.46920  0.10080  0.90440  Biso   1.000  C
  C341     1.0000 0.94619  0.54766  0.74197  Biso   1.000  C
  C342     1.0000 0.92213  0.58598  0.79469  Biso   1.000  C
  C343     1.0000 0.79749  0.40366  0.75663  Biso   1.000  C
  C344     1.0000 0.80683  0.39287  0.79754  Biso   1.000  C
  C345     1.0000 0.91069  0.54520  0.75383  Biso   1.000  C
  C346     1.0000 0.86880  0.27932  0.05586  Biso   1.000  C
  C347     1.0000 0.96723  0.62638  0.82041  Biso   1.000  C
  C348     1.0000 0.86215  0.49977  0.72538  Biso   1.000  C
  C349     1.0000 0.99121  0.58980  0.76983  Biso   1.000  C
  C350     1.0000 0.86423  0.29573  0.01950  Biso   1.000  C
  C351     1.0000 0.82410  0.37210  0.87300  Biso   1.000  C
  C352     1.0000 0.86260  0.33700  0.02660  Biso   1.000  C
  C353     1.0000 0.85230  0.32370  0.94960  Biso   1.000  C
  C354     1.0000 0.82880  0.36580  0.80220  Biso   1.000  C
  C355     1.0000 0.85890  0.26700  0.97530  Biso   1.000  C
  C356     1.0000 0.85730  0.35180  0.99290  Biso   1.000  C
  C357     1.0000 0.85450  0.28290  0.94160  Biso   1.000  C
  C358     1.0000 0.79180  0.40870  0.83090  Biso   1.000  C
  C359     1.0000 0.83940  0.35850  0.84170  Biso   1.000  C
  C360     1.0000 0.80360  0.39920  0.86840  Biso   1.000  C
  C361     1.0000 0.55381  0.29578  0.60147  Biso   1.000  C
  C362     1.0000 0.57787  0.37256  0.66385  Biso   1.000  C
  C363     1.0000 0.70251  0.45914  0.60617  Biso   1.000  C
  C364     1.0000 0.69317  0.49071  0.58604  Biso   1.000  C
  C365     1.0000 0.58931  0.34314  0.63451  Biso   1.000  C
  C366     1.0000 0.63120  0.68706  0.41052  Biso   1.000  C
  C367     1.0000 0.53277  0.35318  0.65915  Biso   1.000  C
  C368     1.0000 0.63785  0.36323  0.63762  Biso   1.000  C
  C369     1.0000 0.50879  0.27862  0.59859  Biso   1.000  C
  C370     1.0000 0.63577  0.65527  0.43150  Biso   1.000  C
  C371     1.0000 0.67590  0.54890  0.54800  Biso   1.000  C
  C372     1.0000 0.63740  0.66400  0.47440  Biso   1.000  C
  C373     1.0000 0.64770  0.59730  0.47140  Biso   1.000  C
  C374     1.0000 0.67120  0.47340  0.53700  Biso   1.000  C
  C375     1.0000 0.64110  0.61640  0.40810  Biso   1.000  C
  C376     1.0000 0.64270  0.63560  0.49450  Biso   1.000  C
  C377     1.0000 0.64550  0.58710  0.42840  Biso   1.000  C
  C378     1.0000 0.70820  0.53910  0.61690  Biso   1.000  C
  C379     1.0000 0.66060  0.50230  0.51910  Biso   1.000  C
  C380     1.0000 0.69640  0.56480  0.59560  Biso   1.000  C
  C381     1.0000 0.30569  0.20422  0.75803  Biso   1.000  C
  C382     1.0000 0.29129  0.12744  0.70531  Biso   1.000  C
  C383     1.0000 0.14703  0.04086  0.74337  Biso   1.000  C
  C384     1.0000 0.09533  0.00929  0.70246  Biso   1.000  C
  C385     1.0000 0.29137  0.15686  0.74617  Biso   1.000  C
  C386     1.0000 0.72346  0.81294  0.44414  Biso   1.000  C
  C387     1.0000 0.30597  0.14682  0.67959  Biso   1.000  C
  C388     1.0000 0.27439  0.13677  0.77462  Biso   1.000  C
  C389     1.0000 0.31997  0.22138  0.73017  Biso   1.000  C
  C390     1.0000 0.77623  0.84473  0.48050  Biso   1.000  C
  C391     1.0000 0.99910  0.95110  0.62700  Biso   1.000  C
  C392     1.0000 0.81040  0.83600  0.47340  Biso   1.000  C
  C393     1.0000 0.87410  0.90270  0.55040  Biso   1.000  C
  C394     1.0000 0.06360  0.02660  0.69780  Biso   1.000  C
  C395     1.0000 0.79170  0.88360  0.52470  Biso   1.000  C
  C396     1.0000 0.85890  0.86440  0.50710  Biso   1.000  C
  C397     1.0000 0.84130  0.91290  0.55840  Biso   1.000  C
  C398     1.0000 0.07780  0.96090  0.66910  Biso   1.000  C
  C399     1.0000 0.01680  0.99770  0.65830  Biso   1.000  C
  C400     1.0000 0.03080  0.93520  0.63160  Biso   1.000  C
  C401     1.0000 0.29578  0.10147  0.05381  Biso   1.000  C
  C402     1.0000 0.37256  0.16385  0.07787  Biso   1.000  C
  C403     1.0000 0.45914  0.10617  0.20251  Biso   1.000  C
  C404     1.0000 0.49071  0.08604  0.19317  Biso   1.000  C
  C405     1.0000 0.34314  0.13451  0.08931  Biso   1.000  C
  C406     1.0000 0.68706  0.91052  0.13120  Biso   1.000  C
  C407     1.0000 0.35318  0.15915  0.03277  Biso   1.000  C
  C408     1.0000 0.36323  0.13762  0.13785  Biso   1.000  C
  C409     1.0000 0.27862  0.09859  0.00879  Biso   1.000  C
  C410     1.0000 0.65527  0.93150  0.13577  Biso   1.000  C
  C411     1.0000 0.54890  0.04800  0.17590  Biso   1.000  C
  C412     1.0000 0.66400  0.97440  0.13740  Biso   1.000  C
  C413     1.0000 0.59730  0.97140  0.14770  Biso   1.000  C
  C414     1.0000 0.47340  0.03700  0.17120  Biso   1.000  C
  C415     1.0000 0.61640  0.90810  0.14110  Biso   1.000  C
  C416     1.0000 0.63560  0.99450  0.14270  Biso   1.000  C
  C417     1.0000 0.58710  0.92840  0.14550  Biso   1.000  C
  C418     1.0000 0.53910  0.11690  0.20820  Biso   1.000  C
  C419     1.0000 0.50230  0.01910  0.16060  Biso   1.000  C
  C420     1.0000 0.56480  0.09560  0.19640  Biso   1.000  C
  C421     1.0000 0.20422  0.25803  0.80569  Biso   1.000  C
  C422     1.0000 0.12744  0.20531  0.79129  Biso   1.000  C
  C423     1.0000 0.04086  0.24337  0.64703  Biso   1.000  C
  C424     1.0000 0.00929  0.20246  0.59533  Biso   1.000  C
  C425     1.0000 0.15686  0.24617  0.79137  Biso   1.000  C
  C426     1.0000 0.81294  0.94414  0.22346  Biso   1.000  C
  C427     1.0000 0.14682  0.17959  0.80597  Biso   1.000  C
  C428     1.0000 0.13677  0.27462  0.77439  Biso   1.000  C
  C429     1.0000 0.22138  0.23017  0.81997  Biso   1.000  C
  C430     1.0000 0.84473  0.98050  0.27623  Biso   1.000  C
  C431     1.0000 0.95110  0.12700  0.49910  Biso   1.000  C
  C432     1.0000 0.83600  0.97340  0.31040  Biso   1.000  C
  C433     1.0000 0.90270  0.05040  0.37410  Biso   1.000  C
  C434     1.0000 0.02660  0.19780  0.56360  Biso   1.000  C
  C435     1.0000 0.88360  0.02470  0.29170  Biso   1.000  C
  C436     1.0000 0.86440  0.00710  0.35890  Biso   1.000  C
  C437     1.0000 0.91290  0.05840  0.34130  Biso   1.000  C
  C438     1.0000 0.96090  0.16910  0.57780  Biso   1.000  C
  C439     1.0000 0.99770  0.15830  0.51680  Biso   1.000  C
  C440     1.0000 0.93520  0.13160  0.53080  Biso   1.000  C
  C441     1.0000 0.95234  0.39853  0.69431  Biso   1.000  C
  C442     1.0000 0.91402  0.33615  0.70871  Biso   1.000  C
  C443     1.0000 0.09634  0.39383  0.85297  Biso   1.000  C
  C444     1.0000 0.10713  0.41396  0.90467  Biso   1.000  C
  C445     1.0000 0.95480  0.36549  0.70863  Biso   1.000  C
  C446     1.0000 0.22068  0.58948  0.27654  Biso   1.000  C
  C447     1.0000 0.87362  0.34085  0.69403  Biso   1.000  C
  C448     1.0000 0.00023  0.36238  0.72561  Biso   1.000  C
  C449     1.0000 0.91020  0.40141  0.68003  Biso   1.000  C
  C450     1.0000 0.20427  0.56850  0.22377  Biso   1.000  C
  C451     1.0000 0.12790  0.45200  0.00090  Biso   1.000  C
  C452     1.0000 0.16300  0.52560  0.18960  Biso   1.000  C
  C453     1.0000 0.17630  0.52860  0.12590  Biso   1.000  C
  C454     1.0000 0.13420  0.46300  0.93640  Biso   1.000  C
  C455     1.0000 0.23300  0.59190  0.20830  Biso   1.000  C
  C456     1.0000 0.14820  0.50550  0.14110  Biso   1.000  C
  C457     1.0000 0.21710  0.57160  0.15870  Biso   1.000  C
  C458     1.0000 0.09130  0.38310  0.92220  Biso   1.000  C
  C459     1.0000 0.14150  0.48090  0.98320  Biso   1.000  C
  C460     1.0000 0.10080  0.40440  0.96920  Biso   1.000  C
  C461     1.0000 0.54766  0.24197  0.44619  Biso   1.000  C
  C462     1.0000 0.58598  0.29469  0.42213  Biso   1.000  C
  C463     1.0000 0.40366  0.25663  0.29749  Biso   1.000  C
  C464     1.0000 0.39287  0.29754  0.30683  Biso   1.000  C
  C465     1.0000 0.54520  0.25383  0.41069  Biso   1.000  C
  C466     1.0000 0.27932  0.55586  0.36880  Biso   1.000  C
  C467     1.0000 0.62638  0.32041  0.46723  Biso   1.000  C
  C468     1.0000 0.49977  0.22538  0.36215  Biso   1.000  C
  C469     1.0000 0.58980  0.26983  0.49121  Biso   1.000  C
  C470     1.0000 0.29573  0.51950  0.36423  Biso   1.000  C
  C471     1.0000 0.37210  0.37300  0.32410  Biso   1.000  C
  C472     1.0000 0.33700  0.52660  0.36260  Biso   1.000  C
  C473     1.0000 0.32370  0.44960  0.35230  Biso   1.000  C
  C474     1.0000 0.36580  0.30220  0.32880  Biso   1.000  C
  C475     1.0000 0.26700  0.47530  0.35890  Biso   1.000  C
  C476     1.0000 0.35180  0.49290  0.35730  Biso   1.000  C
  C477     1.0000 0.28290  0.44160  0.35450  Biso   1.000  C
  C478     1.0000 0.40870  0.33090  0.29180  Biso   1.000  C
  C479     1.0000 0.35850  0.34170  0.33940  Biso   1.000  C
  C480     1.0000 0.39920  0.36840  0.30360  Biso   1.000  C
  N1       1.0000 0.68071  0.87336  0.87131  Biso   1.000  N
  N2       1.0000 0.07670  0.01150  0.16860  Biso   1.000  N
  N3       1.0000 0.04900  0.96780  0.13780  Biso   1.000  N
  N4       1.0000 0.50205  0.80940  0.62869  Biso   1.000  N
  N5       1.0000 0.34290  0.90810  0.33140  Biso   1.000  N
  N6       1.0000 0.33000  0.91120  0.36220  Biso   1.000  N
  N7       1.0000 0.99795  0.62664  0.30735  Biso   1.000  N
  N8       1.0000 0.15710  0.48850  0.56520  Biso   1.000  N
  N9       1.0000 0.17000  0.53220  0.58120  Biso   1.000  N
  N10      1.0000 0.81929  0.69060  0.19265  Biso   1.000  N
  N11      1.0000 0.42330  0.59190  0.93480  Biso   1.000  N
  N12      1.0000 0.45100  0.58880  0.91880  Biso   1.000  N
  N13      1.0000 0.80735  0.99795  0.12664  Biso   1.000  N
  N14      1.0000 0.06520  0.15710  0.98850  Biso   1.000  N
  N15      1.0000 0.08120  0.17000  0.03220  Biso   1.000  N
  N16      1.0000 0.69265  0.81929  0.19060  Biso   1.000  N
  N17      1.0000 0.43480  0.42330  0.09190  Biso   1.000  N
  N18      1.0000 0.41880  0.45100  0.08880  Biso   1.000  N
  N19      1.0000 0.37131  0.68071  0.37336  Biso   1.000  N
  N20      1.0000 0.66860  0.07670  0.51150  Biso   1.000  N
  N21      1.0000 0.63780  0.04900  0.46780  Biso   1.000  N
  N22      1.0000 0.12869  0.50205  0.30940  Biso   1.000  N
  N23      1.0000 0.83140  0.34290  0.40810  Biso   1.000  N
  N24      1.0000 0.86220  0.33000  0.41120  Biso   1.000  N
  N25      1.0000 0.80940  0.12869  0.00205  Biso   1.000  N
  N26      1.0000 0.90810  0.83140  0.84290  Biso   1.000  N
  N27      1.0000 0.91120  0.86220  0.83000  Biso   1.000  N
  N28      1.0000 0.87336  0.37131  0.18071  Biso   1.000  N
  N29      1.0000 0.01150  0.66860  0.57670  Biso   1.000  N
  N30      1.0000 0.96780  0.63780  0.54900  Biso   1.000  N
  N31      1.0000 0.69060  0.69265  0.31929  Biso   1.000  N
  N32      1.0000 0.59190  0.43480  0.92330  Biso   1.000  N
  N33      1.0000 0.58880  0.41880  0.95100  Biso   1.000  N
  N34      1.0000 0.62664  0.80735  0.49795  Biso   1.000  N
  N35      1.0000 0.48850  0.06520  0.65710  Biso   1.000  N
  N36      1.0000 0.53220  0.08120  0.67000  Biso   1.000  N
  N37      1.0000 0.30940  0.00205  0.12869  Biso   1.000  N
  N38      1.0000 0.40810  0.84290  0.83140  Biso   1.000  N
  N39      1.0000 0.41120  0.83000  0.86220  Biso   1.000  N
  N40      1.0000 0.37336  0.18071  0.37131  Biso   1.000  N
  N41      1.0000 0.51150  0.57670  0.66860  Biso   1.000  N
  N42      1.0000 0.46780  0.54900  0.63780  Biso   1.000  N
  N43      1.0000 0.19060  0.31929  0.69265  Biso   1.000  N
  N44      1.0000 0.09190  0.92330  0.43480  Biso   1.000  N
  N45      1.0000 0.08880  0.95100  0.41880  Biso   1.000  N
  N46      1.0000 0.12664  0.49795  0.80735  Biso   1.000  N
  N47      1.0000 0.98850  0.65710  0.06520  Biso   1.000  N
  N48      1.0000 0.03220  0.67000  0.08120  Biso   1.000  N
  N49      1.0000 0.18071  0.87131  0.87336  Biso   1.000  N
  N50      1.0000 0.57670  0.16860  0.01150  Biso   1.000  N
  N51      1.0000 0.54900  0.13780  0.96780  Biso   1.000  N
  N52      1.0000 0.00205  0.62869  0.80940  Biso   1.000  N
  N53      1.0000 0.84290  0.33140  0.90810  Biso   1.000  N
  N54      1.0000 0.83000  0.36220  0.91120  Biso   1.000  N
  N55      1.0000 0.49795  0.30735  0.62664  Biso   1.000  N
  N56      1.0000 0.65710  0.56520  0.48850  Biso   1.000  N
  N57      1.0000 0.67000  0.58120  0.53220  Biso   1.000  N
  N58      1.0000 0.31929  0.19265  0.69060  Biso   1.000  N
  N59      1.0000 0.92330  0.93480  0.59190  Biso   1.000  N
  N60      1.0000 0.95100  0.91880  0.58880  Biso   1.000  N
  N61      1.0000 0.30735  0.12664  0.99795  Biso   1.000  N
  N62      1.0000 0.56520  0.98850  0.15710  Biso   1.000  N
  N63      1.0000 0.58120  0.03220  0.17000  Biso   1.000  N
  N64      1.0000 0.19265  0.19060  0.81929  Biso   1.000  N
  N65      1.0000 0.93480  0.09190  0.42330  Biso   1.000  N
  N66      1.0000 0.91880  0.08880  0.45100  Biso   1.000  N
  N67      1.0000 0.87131  0.37336  0.68071  Biso   1.000  N
  N68      1.0000 0.16860  0.51150  0.07670  Biso   1.000  N
  N69      1.0000 0.13780  0.46780  0.04900  Biso   1.000  N
  N70      1.0000 0.62869  0.30940  0.50205  Biso   1.000  N
  N71      1.0000 0.33140  0.40810  0.34290  Biso   1.000  N
  N72      1.0000 0.36220  0.41120  0.33000  Biso   1.000  N
  O1       1.0000 0.72848  0.82532  0.99780  Biso   1.000  O
  O2       1.0000 0.83994  0.92459  0.10901  Biso   1.000  O
  O3       1.0000 0.73679  0.89883  0.03784  Biso   1.000  O
  O4       1.0000 0.30598  0.12640  0.26198  Biso   1.000  O
  O5       1.0000 0.82628  0.84807  0.07475  Biso   1.000  O
  O6       1.0000 0.28744  0.06778  0.19084  Biso   1.000  O
  O7       1.0000 0.32752  0.73068  0.50220  Biso   1.000  O
  O8       1.0000 0.31558  0.73093  0.39099  Biso   1.000  O
  O9       1.0000 0.36099  0.69895  0.46216  Biso   1.000  O
  O10      1.0000 0.36442  0.04400  0.23802  Biso   1.000  O
  O11      1.0000 0.27332  0.75153  0.42525  Biso   1.000  O
  O12      1.0000 0.37694  0.09660  0.30916  Biso   1.000  O
  O13      1.0000 0.17248  0.67468  0.40316  Biso   1.000  O
  O14      1.0000 0.18442  0.57541  0.41535  Biso   1.000  O
  O15      1.0000 0.13901  0.60117  0.33796  Biso   1.000  O
  O16      1.0000 0.13558  0.37360  0.67958  Biso   1.000  O
  O17      1.0000 0.22668  0.65193  0.47821  Biso   1.000  O
  O18      1.0000 0.12306  0.43222  0.71966  Biso   1.000  O
  O19      1.0000 0.77152  0.76932  0.09684  Biso   1.000  O
  O20      1.0000 0.66006  0.76907  0.08465  Biso   1.000  O
  O21      1.0000 0.76321  0.80105  0.16204  Biso   1.000  O
  O22      1.0000 0.19402  0.45600  0.82042  Biso   1.000  O
  O23      1.0000 0.67372  0.74847  0.02179  Biso   1.000  O
  O24      1.0000 0.21256  0.40340  0.78034  Biso   1.000  O
  O25      1.0000 0.90316  0.17248  0.17468  Biso   1.000  O
  O26      1.0000 0.91535  0.18442  0.07541  Biso   1.000  O
  O27      1.0000 0.83796  0.13901  0.10117  Biso   1.000  O
  O28      1.0000 0.17958  0.13558  0.87360  Biso   1.000  O
  O29      1.0000 0.97821  0.22668  0.15193  Biso   1.000  O
  O30      1.0000 0.21966  0.12306  0.93222  Biso   1.000  O
  O31      1.0000 0.59684  0.77152  0.26932  Biso   1.000  O
  O32      1.0000 0.58465  0.66006  0.26907  Biso   1.000  O
  O33      1.0000 0.66204  0.76321  0.30105  Biso   1.000  O
  O34      1.0000 0.32042  0.19402  0.95600  Biso   1.000  O
  O35      1.0000 0.52179  0.67372  0.24847  Biso   1.000  O
  O36      1.0000 0.28034  0.21256  0.90340  Biso   1.000  O
  O37      1.0000 0.49780  0.72848  0.32532  Biso   1.000  O
  O38      1.0000 0.60901  0.83994  0.42459  Biso   1.000  O
  O39      1.0000 0.53784  0.73679  0.39883  Biso   1.000  O
  O40      1.0000 0.76198  0.30598  0.62640  Biso   1.000  O
  O41      1.0000 0.57475  0.82628  0.34807  Biso   1.000  O
  O42      1.0000 0.69084  0.28744  0.56778  Biso   1.000  O
  O43      1.0000 0.00220  0.32752  0.23068  Biso   1.000  O
  O44      1.0000 0.89099  0.31558  0.23093  Biso   1.000  O
  O45      1.0000 0.96216  0.36099  0.19895  Biso   1.000  O
  O46      1.0000 0.73802  0.36442  0.54400  Biso   1.000  O
  O47      1.0000 0.92525  0.27332  0.25153  Biso   1.000  O
  O48      1.0000 0.80916  0.37694  0.59660  Biso   1.000  O
  O49      1.0000 0.73068  0.00220  0.82752  Biso   1.000  O
  O50      1.0000 0.73093  0.89099  0.81558  Biso   1.000  O
  O51      1.0000 0.69895  0.96216  0.86099  Biso   1.000  O
  O52      1.0000 0.04400  0.73802  0.86442  Biso   1.000  O
  O53      1.0000 0.75153  0.92525  0.77332  Biso   1.000  O
  O54      1.0000 0.09660  0.80916  0.87694  Biso   1.000  O
  O55      1.0000 0.82532  0.49780  0.22848  Biso   1.000  O
  O56      1.0000 0.92459  0.60901  0.33994  Biso   1.000  O
  O57      1.0000 0.89883  0.53784  0.23679  Biso   1.000  O
  O58      1.0000 0.12640  0.76198  0.80598  Biso   1.000  O
  O59      1.0000 0.84807  0.57475  0.32628  Biso   1.000  O
  O60      1.0000 0.06778  0.69084  0.78744  Biso   1.000  O
  O61      1.0000 0.76932  0.59684  0.27152  Biso   1.000  O
  O62      1.0000 0.76907  0.58465  0.16006  Biso   1.000  O
  O63      1.0000 0.80105  0.66204  0.26321  Biso   1.000  O
  O64      1.0000 0.45600  0.32042  0.69402  Biso   1.000  O
  O65      1.0000 0.74847  0.52179  0.17372  Biso   1.000  O
  O66      1.0000 0.40340  0.28034  0.71256  Biso   1.000  O
  O67      1.0000 0.67468  0.90316  0.67248  Biso   1.000  O
  O68      1.0000 0.57541  0.91535  0.68442  Biso   1.000  O
  O69      1.0000 0.60117  0.83796  0.63901  Biso   1.000  O
  O70      1.0000 0.37360  0.17958  0.63558  Biso   1.000  O
  O71      1.0000 0.65193  0.97821  0.72668  Biso   1.000  O
  O72      1.0000 0.43222  0.21966  0.62306  Biso   1.000  O
  O73      1.0000 0.23068  0.82752  0.00220  Biso   1.000  O
  O74      1.0000 0.23093  0.81558  0.89099  Biso   1.000  O
  O75      1.0000 0.19895  0.86099  0.96216  Biso   1.000  O
  O76      1.0000 0.54400  0.86442  0.73802  Biso   1.000  O
  O77      1.0000 0.25153  0.77332  0.92525  Biso   1.000  O
  O78      1.0000 0.59660  0.87694  0.80916  Biso   1.000  O
  O79      1.0000 0.32532  0.22848  0.49780  Biso   1.000  O
  O80      1.0000 0.42459  0.33994  0.60901  Biso   1.000  O
  O81      1.0000 0.39883  0.23679  0.53784  Biso   1.000  O
  O82      1.0000 0.62640  0.80598  0.76198  Biso   1.000  O
  O83      1.0000 0.34807  0.32628  0.57475  Biso   1.000  O
  O84      1.0000 0.56778  0.78744  0.69084  Biso   1.000  O
  O85      1.0000 0.26932  0.27152  0.59684  Biso   1.000  O
  O86      1.0000 0.26907  0.16006  0.58465  Biso   1.000  O
  O87      1.0000 0.30105  0.26321  0.66204  Biso   1.000  O
  O88      1.0000 0.95600  0.69402  0.32042  Biso   1.000  O
  O89      1.0000 0.24847  0.17372  0.52179  Biso   1.000  O
  O90      1.0000 0.90340  0.71256  0.28034  Biso   1.000  O
  O91      1.0000 0.17468  0.67248  0.90316  Biso   1.000  O
  O92      1.0000 0.07541  0.68442  0.91535  Biso   1.000  O
  O93      1.0000 0.10117  0.63901  0.83796  Biso   1.000  O
  O94      1.0000 0.87360  0.63558  0.17958  Biso   1.000  O
  O95      1.0000 0.15193  0.72668  0.97821  Biso   1.000  O
  O96      1.0000 0.93222  0.62306  0.21966  Biso   1.000  O
  O97      1.0000 0.22848  0.99780  0.82532  Biso   1.000  O
  O98      1.0000 0.33994  0.10901  0.92459  Biso   1.000  O
  O99      1.0000 0.23679  0.03784  0.89883  Biso   1.000  O
  O100     1.0000 0.80598  0.26198  0.12640  Biso   1.000  O
  O101     1.0000 0.32628  0.07475  0.84807  Biso   1.000  O
  O102     1.0000 0.78744  0.19084  0.06778  Biso   1.000  O
  O103     1.0000 0.82752  0.50220  0.73068  Biso   1.000  O
  O104     1.0000 0.81558  0.39099  0.73093  Biso   1.000  O
  O105     1.0000 0.86099  0.46216  0.69895  Biso   1.000  O
  O106     1.0000 0.86442  0.23802  0.04400  Biso   1.000  O
  O107     1.0000 0.77332  0.42525  0.75153  Biso   1.000  O
  O108     1.0000 0.87694  0.30916  0.09660  Biso   1.000  O
  O109     1.0000 0.67248  0.40316  0.67468  Biso   1.000  O
  O110     1.0000 0.68442  0.41535  0.57541  Biso   1.000  O
  O111     1.0000 0.63901  0.33796  0.60117  Biso   1.000  O
  O112     1.0000 0.63558  0.67958  0.37360  Biso   1.000  O
  O113     1.0000 0.72668  0.47821  0.65193  Biso   1.000  O
  O114     1.0000 0.62306  0.71966  0.43222  Biso   1.000  O
  O115     1.0000 0.27152  0.09684  0.76932  Biso   1.000  O
  O116     1.0000 0.16006  0.08465  0.76907  Biso   1.000  O
  O117     1.0000 0.26321  0.16204  0.80105  Biso   1.000  O
  O118     1.0000 0.69402  0.82042  0.45600  Biso   1.000  O
  O119     1.0000 0.17372  0.02179  0.74847  Biso   1.000  O
  O120     1.0000 0.71256  0.78034  0.40340  Biso   1.000  O
  O121     1.0000 0.40316  0.17468  0.17248  Biso   1.000  O
  O122     1.0000 0.41535  0.07541  0.18442  Biso   1.000  O
  O123     1.0000 0.33796  0.10117  0.13901  Biso   1.000  O
  O124     1.0000 0.67958  0.87360  0.13558  Biso   1.000  O
  O125     1.0000 0.47821  0.15193  0.22668  Biso   1.000  O
  O126     1.0000 0.71966  0.93222  0.12306  Biso   1.000  O
  O127     1.0000 0.09684  0.26932  0.77152  Biso   1.000  O
  O128     1.0000 0.08465  0.26907  0.66006  Biso   1.000  O
  O129     1.0000 0.16204  0.30105  0.76321  Biso   1.000  O
  O130     1.0000 0.82042  0.95600  0.19402  Biso   1.000  O
  O131     1.0000 0.02179  0.24847  0.67372  Biso   1.000  O
  O132     1.0000 0.78034  0.90340  0.21256  Biso   1.000  O
  O133     1.0000 0.99780  0.32532  0.72848  Biso   1.000  O
  O134     1.0000 0.10901  0.42459  0.83994  Biso   1.000  O
  O135     1.0000 0.03784  0.39883  0.73679  Biso   1.000  O
  O136     1.0000 0.26198  0.62640  0.30598  Biso   1.000  O
  O137     1.0000 0.07475  0.34807  0.82628  Biso   1.000  O
  O138     1.0000 0.19084  0.56778  0.28744  Biso   1.000  O
  O139     1.0000 0.50220  0.23068  0.32752  Biso   1.000  O
  O140     1.0000 0.39099  0.23093  0.31558  Biso   1.000  O
  O141     1.0000 0.46216  0.19895  0.36099  Biso   1.000  O
  O142     1.0000 0.23802  0.54400  0.36442  Biso   1.000  O
  O143     1.0000 0.42525  0.25153  0.27332  Biso   1.000  O
  O144     1.0000 0.30916  0.59660  0.37694  Biso   1.000  O
  O145     1.0000 0.75000  0.85274  0.10274  Biso   1.000  O
  O146     1.0000 0.75000  0.74676  0.99676  Biso   1.000  O
  O147     1.0000 0.25000  0.64726  0.39726  Biso   1.000  O
  O148     1.0000 0.25000  0.75324  0.50324  Biso   1.000  O
  O149     1.0000 0.89726  0.25000  0.14726  Biso   1.000  O
  O150     1.0000 0.00324  0.25000  0.25324  Biso   1.000  O
  O151     1.0000 0.60274  0.75000  0.35274  Biso   1.000  O
  O152     1.0000 0.49676  0.75000  0.24676  Biso   1.000  O
  O153     1.0000 0.64726  0.89726  0.75000  Biso   1.000  O
  O154     1.0000 0.75324  0.00324  0.75000  Biso   1.000  O
  O155     1.0000 0.85274  0.60274  0.25000  Biso   1.000  O
  O156     1.0000 0.74676  0.49676  0.25000  Biso   1.000  O
  O157     1.0000 0.14726  0.75000  0.89726  Biso   1.000  O
  O158     1.0000 0.25324  0.75000  0.00324  Biso   1.000  O
  O159     1.0000 0.35274  0.25000  0.60274  Biso   1.000  O
  O160     1.0000 0.24676  0.25000  0.49676  Biso   1.000  O
  O161     1.0000 0.25000  0.10274  0.85274  Biso   1.000  O
  O162     1.0000 0.25000  0.99676  0.74676  Biso   1.000  O
  O163     1.0000 0.75000  0.39726  0.64726  Biso   1.000  O
  O164     1.0000 0.75000  0.50324  0.75324  Biso   1.000  O
  O165     1.0000 0.39726  0.14726  0.25000  Biso   1.000  O
  O166     1.0000 0.50324  0.25324  0.25000  Biso   1.000  O
  O167     1.0000 0.10274  0.35274  0.75000  Biso   1.000  O
  O168     1.0000 0.99676  0.24676  0.75000  Biso   1.000  O
