data_image0
_cell_length_a       33.5256
_cell_length_b       33.5256
_cell_length_c       33.5256
_cell_angle_alpha    109.471
_cell_angle_beta     109.471
_cell_angle_gamma    109.471

_symmetry_space_group_name_H-M    P 1
_symmetry_int_tables_number       1

loop_
  _symmetry_equiv_pos_as_xyz
  'x, y, z'

loop_
  _atom_site_label
  _atom_site_occupancy
  _atom_site_fract_x
  _atom_site_fract_y
  _atom_site_fract_z
  _atom_site_thermal_displace_type
  _atom_site_B_iso_or_equiv
  _atom_site_type_symbol
  In1      1.0000 0.36091  0.27884  0.66767  Biso   1.000  In
  In2      1.0000 0.11117  0.69324  0.83233  Biso   1.000  In
  In3      1.0000 0.38883  0.22115  0.58207  Biso   1.000  In
  In4      1.0000 0.13909  0.80677  0.91793  Biso   1.000  In
  In5      1.0000 0.08207  0.38883  0.72116  Biso   1.000  In
  In6      1.0000 0.41793  0.13909  0.30676  Biso   1.000  In
  In7      1.0000 0.16768  0.36092  0.77885  Biso   1.000  In
  In8      1.0000 0.33232  0.11116  0.19323  Biso   1.000  In
  In9      1.0000 0.69324  0.33233  0.61117  Biso   1.000  In
  In10     1.0000 0.27884  0.16767  0.86091  Biso   1.000  In
  In11     1.0000 0.80676  0.41793  0.63908  Biso   1.000  In
  In12     1.0000 0.22116  0.08207  0.88884  Biso   1.000  In
  In13     1.0000 0.19324  0.61117  0.33233  Biso   1.000  In
  In14     1.0000 0.77884  0.86091  0.16767  Biso   1.000  In
  In15     1.0000 0.30676  0.63908  0.41793  Biso   1.000  In
  In16     1.0000 0.72116  0.88884  0.08207  Biso   1.000  In
  In17     1.0000 0.86091  0.66767  0.27884  Biso   1.000  In
  In18     1.0000 0.61117  0.83233  0.69324  Biso   1.000  In
  In19     1.0000 0.88883  0.58207  0.22115  Biso   1.000  In
  In20     1.0000 0.63909  0.91793  0.80677  Biso   1.000  In
  In21     1.0000 0.58207  0.72116  0.38883  Biso   1.000  In
  In22     1.0000 0.91793  0.30676  0.13909  Biso   1.000  In
  In23     1.0000 0.66768  0.77885  0.36092  Biso   1.000  In
  In24     1.0000 0.83232  0.19323  0.11116  Biso   1.000  In
  In25     1.0000 0.45510  0.25000  0.70510  Biso   1.000  In
  In26     1.0000 0.04490  0.75000  0.79490  Biso   1.000  In
  In27     1.0000 0.20510  0.45510  0.75000  Biso   1.000  In
  In28     1.0000 0.29490  0.04490  0.25000  Biso   1.000  In
  In29     1.0000 0.75000  0.29490  0.54490  Biso   1.000  In
  In30     1.0000 0.25000  0.20510  0.95510  Biso   1.000  In
  In31     1.0000 0.25000  0.54490  0.29490  Biso   1.000  In
  In32     1.0000 0.75000  0.95510  0.20510  Biso   1.000  In
  In33     1.0000 0.95510  0.70510  0.25000  Biso   1.000  In
  In34     1.0000 0.54490  0.79490  0.75000  Biso   1.000  In
  In35     1.0000 0.70510  0.75000  0.45510  Biso   1.000  In
  In36     1.0000 0.79490  0.25000  0.04490  Biso   1.000  In
  H1       1.0000 0.37510  0.19930  0.85720  Biso   1.000  H
  H2       1.0000 0.25030  0.17760  0.76730  Biso   1.000  H
  H3       1.0000 0.44000  0.23010  0.80330  Biso   1.000  H
  H4       1.0000 0.44030  0.21940  0.84310  Biso   1.000  H
  H5       1.0000 0.28130  0.19700  0.72090  Biso   1.000  H
  H6       1.0000 0.43050  0.09660  0.65550  Biso   1.000  H
  H7       1.0000 0.38020  0.87810  0.52730  Biso   1.000  H
  H8       1.0000 0.35690  0.07340  0.52250  Biso   1.000  H
  H9       1.0000 0.23960  0.76690  0.37630  Biso   1.000  H
  H10      1.0000 0.26370  0.84980  0.41350  Biso   1.000  H
  H11      1.0000 0.35900  0.79580  0.49040  Biso   1.000  H
  H12      1.0000 0.41060  0.01510  0.62090  Biso   1.000  H
  H13      1.0000 0.34450  0.99410  0.49080  Biso   1.000  H
  H14      1.0000 0.84210  0.51790  0.64280  Biso   1.000  H
  H15      1.0000 0.91030  0.48300  0.73270  Biso   1.000  H
  H16      1.0000 0.92680  0.63670  0.69670  Biso   1.000  H
  H17      1.0000 0.87630  0.59720  0.65690  Biso   1.000  H
  H18      1.0000 0.97610  0.56040  0.77910  Biso   1.000  H
  H19      1.0000 0.94110  0.77500  0.84450  Biso   1.000  H
  H20      1.0000 0.85080  0.85290  0.97270  Biso   1.000  H
  H21      1.0000 0.05090  0.83440  0.97750  Biso   1.000  H
  H22      1.0000 0.89060  0.86330  0.12370  Biso   1.000  H
  H23      1.0000 0.93630  0.85020  0.08650  Biso   1.000  H
  H24      1.0000 0.80540  0.86860  0.00960  Biso   1.000  H
  H25      1.0000 0.89420  0.78970  0.87910  Biso   1.000  H
  H26      1.0000 0.00330  0.85370  0.00920  Biso   1.000  H
  H27      1.0000 0.65790  0.30070  0.67580  Biso   1.000  H
  H28      1.0000 0.58970  0.32240  0.57270  Biso   1.000  H
  H29      1.0000 0.57320  0.26990  0.70990  Biso   1.000  H
  H30      1.0000 0.62370  0.28060  0.72090  Biso   1.000  H
  H31      1.0000 0.52390  0.30300  0.58430  Biso   1.000  H
  H32      1.0000 0.55890  0.40340  0.83390  Biso   1.000  H
  H33      1.0000 0.64920  0.62190  0.00210  Biso   1.000  H
  H34      1.0000 0.44910  0.42660  0.78350  Biso   1.000  H
  H35      1.0000 0.60940  0.73310  0.97270  Biso   1.000  H
  H36      1.0000 0.56370  0.65020  0.91390  Biso   1.000  H
  H37      1.0000 0.69460  0.70420  0.06320  Biso   1.000  H
  H38      1.0000 0.60580  0.48490  0.89550  Biso   1.000  H
  H39      1.0000 0.49670  0.50590  0.85040  Biso   1.000  H
  H40      1.0000 0.12490  0.98210  0.82420  Biso   1.000  H
  H41      1.0000 0.24970  0.01700  0.92730  Biso   1.000  H
  H42      1.0000 0.06000  0.86330  0.79010  Biso   1.000  H
  H43      1.0000 0.05970  0.90280  0.77910  Biso   1.000  H
  H44      1.0000 0.21870  0.93960  0.91570  Biso   1.000  H
  H45      1.0000 0.06950  0.72500  0.66610  Biso   1.000  H
  H46      1.0000 0.11980  0.64710  0.49790  Biso   1.000  H
  H47      1.0000 0.14310  0.66560  0.71650  Biso   1.000  H
  H48      1.0000 0.26040  0.63670  0.52730  Biso   1.000  H
  H49      1.0000 0.23630  0.64980  0.58610  Biso   1.000  H
  H50      1.0000 0.14100  0.63140  0.43680  Biso   1.000  H
  H51      1.0000 0.08940  0.71030  0.60450  Biso   1.000  H
  H52      1.0000 0.15550  0.64630  0.64960  Biso   1.000  H
  H53      1.0000 0.17580  0.65790  0.80070  Biso   1.000  H
  H54      1.0000 0.07270  0.58970  0.82240  Biso   1.000  H
  H55      1.0000 0.20990  0.57320  0.76990  Biso   1.000  H
  H56      1.0000 0.22090  0.62370  0.78060  Biso   1.000  H
  H57      1.0000 0.08430  0.52390  0.80300  Biso   1.000  H
  H58      1.0000 0.33390  0.55890  0.90340  Biso   1.000  H
  H59      1.0000 0.50210  0.64920  0.12190  Biso   1.000  H
  H60      1.0000 0.28350  0.44910  0.92660  Biso   1.000  H
  H61      1.0000 0.47270  0.60940  0.23310  Biso   1.000  H
  H62      1.0000 0.41390  0.56370  0.15020  Biso   1.000  H
  H63      1.0000 0.56320  0.69460  0.20420  Biso   1.000  H
  H64      1.0000 0.39550  0.60580  0.98490  Biso   1.000  H
  H65      1.0000 0.35040  0.49670  0.00590  Biso   1.000  H
  H66      1.0000 0.32420  0.12490  0.48210  Biso   1.000  H
  H67      1.0000 0.42730  0.24970  0.51700  Biso   1.000  H
  H68      1.0000 0.29010  0.06000  0.36330  Biso   1.000  H
  H69      1.0000 0.27910  0.05970  0.40280  Biso   1.000  H
  H70      1.0000 0.41570  0.21870  0.43960  Biso   1.000  H
  H71      1.0000 0.16610  0.06950  0.22500  Biso   1.000  H
  H72      1.0000 0.99790  0.11980  0.14710  Biso   1.000  H
  H73      1.0000 0.21650  0.14310  0.16560  Biso   1.000  H
  H74      1.0000 0.02730  0.26040  0.13670  Biso   1.000  H
  H75      1.0000 0.08610  0.23630  0.14980  Biso   1.000  H
  H76      1.0000 0.93680  0.14100  0.13140  Biso   1.000  H
  H77      1.0000 0.10450  0.08940  0.21030  Biso   1.000  H
  H78      1.0000 0.14960  0.15550  0.14630  Biso   1.000  H
  H79      1.0000 0.35720  0.37510  0.69930  Biso   1.000  H
  H80      1.0000 0.26730  0.25030  0.67760  Biso   1.000  H
  H81      1.0000 0.30330  0.44000  0.73010  Biso   1.000  H
  H82      1.0000 0.34310  0.44030  0.71940  Biso   1.000  H
  H83      1.0000 0.22090  0.28130  0.69700  Biso   1.000  H
  H84      1.0000 0.15550  0.43050  0.59660  Biso   1.000  H
  H85      1.0000 0.02730  0.38020  0.37810  Biso   1.000  H
  H86      1.0000 0.02250  0.35690  0.57340  Biso   1.000  H
  H87      1.0000 0.87630  0.23960  0.26690  Biso   1.000  H
  H88      1.0000 0.91350  0.26370  0.34980  Biso   1.000  H
  H89      1.0000 0.99040  0.35900  0.29580  Biso   1.000  H
  H90      1.0000 0.12090  0.41060  0.51510  Biso   1.000  H
  H91      1.0000 0.99080  0.34450  0.49410  Biso   1.000  H
  H92      1.0000 0.14280  0.84210  0.01790  Biso   1.000  H
  H93      1.0000 0.23270  0.91030  0.98300  Biso   1.000  H
  H94      1.0000 0.19670  0.92680  0.13670  Biso   1.000  H
  H95      1.0000 0.15690  0.87630  0.09720  Biso   1.000  H
  H96      1.0000 0.27910  0.97610  0.06040  Biso   1.000  H
  H97      1.0000 0.34450  0.94110  0.27500  Biso   1.000  H
  H98      1.0000 0.47270  0.85080  0.35290  Biso   1.000  H
  H99      1.0000 0.47750  0.05090  0.33440  Biso   1.000  H
  H100     1.0000 0.62370  0.89060  0.36330  Biso   1.000  H
  H101     1.0000 0.58650  0.93630  0.35020  Biso   1.000  H
  H102     1.0000 0.50960  0.80540  0.36860  Biso   1.000  H
  H103     1.0000 0.37910  0.89420  0.28970  Biso   1.000  H
  H104     1.0000 0.50920  0.00330  0.35370  Biso   1.000  H
  H105     1.0000 0.51790  0.14280  0.34210  Biso   1.000  H
  H106     1.0000 0.48300  0.23270  0.41030  Biso   1.000  H
  H107     1.0000 0.63670  0.19670  0.42680  Biso   1.000  H
  H108     1.0000 0.59720  0.15690  0.37630  Biso   1.000  H
  H109     1.0000 0.56040  0.27910  0.47610  Biso   1.000  H
  H110     1.0000 0.77500  0.34450  0.44110  Biso   1.000  H
  H111     1.0000 0.85290  0.47270  0.35080  Biso   1.000  H
  H112     1.0000 0.83440  0.47750  0.55090  Biso   1.000  H
  H113     1.0000 0.86330  0.62370  0.39060  Biso   1.000  H
  H114     1.0000 0.85020  0.58650  0.43630  Biso   1.000  H
  H115     1.0000 0.86860  0.50960  0.30540  Biso   1.000  H
  H116     1.0000 0.78970  0.37910  0.39420  Biso   1.000  H
  H117     1.0000 0.85370  0.50920  0.50330  Biso   1.000  H
  H118     1.0000 0.19930  0.35720  0.87510  Biso   1.000  H
  H119     1.0000 0.17760  0.26730  0.75030  Biso   1.000  H
  H120     1.0000 0.23010  0.30330  0.94000  Biso   1.000  H
  H121     1.0000 0.21940  0.34310  0.94030  Biso   1.000  H
  H122     1.0000 0.19700  0.22090  0.78130  Biso   1.000  H
  H123     1.0000 0.09660  0.15550  0.93050  Biso   1.000  H
  H124     1.0000 0.87810  0.02730  0.88020  Biso   1.000  H
  H125     1.0000 0.07340  0.02250  0.85690  Biso   1.000  H
  H126     1.0000 0.76690  0.87630  0.73960  Biso   1.000  H
  H127     1.0000 0.84980  0.91350  0.76370  Biso   1.000  H
  H128     1.0000 0.79580  0.99040  0.85900  Biso   1.000  H
  H129     1.0000 0.01510  0.12090  0.91060  Biso   1.000  H
  H130     1.0000 0.99410  0.99080  0.84450  Biso   1.000  H
  H131     1.0000 0.98210  0.32420  0.62490  Biso   1.000  H
  H132     1.0000 0.01700  0.42730  0.74970  Biso   1.000  H
  H133     1.0000 0.86330  0.29010  0.56000  Biso   1.000  H
  H134     1.0000 0.90280  0.27910  0.55970  Biso   1.000  H
  H135     1.0000 0.93960  0.41570  0.71870  Biso   1.000  H
  H136     1.0000 0.72500  0.16610  0.56950  Biso   1.000  H
  H137     1.0000 0.64710  0.99790  0.61980  Biso   1.000  H
  H138     1.0000 0.66560  0.21650  0.64310  Biso   1.000  H
  H139     1.0000 0.63670  0.02730  0.76040  Biso   1.000  H
  H140     1.0000 0.64980  0.08610  0.73630  Biso   1.000  H
  H141     1.0000 0.63140  0.93680  0.64100  Biso   1.000  H
  H142     1.0000 0.71030  0.10450  0.58940  Biso   1.000  H
  H143     1.0000 0.64630  0.14960  0.65550  Biso   1.000  H
  H144     1.0000 0.30070  0.17580  0.15790  Biso   1.000  H
  H145     1.0000 0.32240  0.07270  0.08970  Biso   1.000  H
  H146     1.0000 0.26990  0.20990  0.07320  Biso   1.000  H
  H147     1.0000 0.28060  0.22090  0.12370  Biso   1.000  H
  H148     1.0000 0.30300  0.08430  0.02390  Biso   1.000  H
  H149     1.0000 0.40340  0.33390  0.05890  Biso   1.000  H
  H150     1.0000 0.62190  0.50210  0.14920  Biso   1.000  H
  H151     1.0000 0.42660  0.28350  0.94910  Biso   1.000  H
  H152     1.0000 0.73310  0.47270  0.10940  Biso   1.000  H
  H153     1.0000 0.65020  0.41390  0.06370  Biso   1.000  H
  H154     1.0000 0.70420  0.56320  0.19460  Biso   1.000  H
  H155     1.0000 0.48490  0.39550  0.10580  Biso   1.000  H
  H156     1.0000 0.50590  0.35040  0.99670  Biso   1.000  H
  H157     1.0000 0.01790  0.34210  0.14280  Biso   1.000  H
  H158     1.0000 0.98300  0.41030  0.23270  Biso   1.000  H
  H159     1.0000 0.13670  0.42680  0.19670  Biso   1.000  H
  H160     1.0000 0.09720  0.37630  0.15690  Biso   1.000  H
  H161     1.0000 0.06040  0.47610  0.27910  Biso   1.000  H
  H162     1.0000 0.27500  0.44110  0.34450  Biso   1.000  H
  H163     1.0000 0.35290  0.35080  0.47270  Biso   1.000  H
  H164     1.0000 0.33440  0.55090  0.47750  Biso   1.000  H
  H165     1.0000 0.36330  0.39060  0.62370  Biso   1.000  H
  H166     1.0000 0.35020  0.43630  0.58650  Biso   1.000  H
  H167     1.0000 0.36860  0.30540  0.50960  Biso   1.000  H
  H168     1.0000 0.28970  0.39420  0.37910  Biso   1.000  H
  H169     1.0000 0.35370  0.50330  0.50920  Biso   1.000  H
  H170     1.0000 0.69930  0.87510  0.35720  Biso   1.000  H
  H171     1.0000 0.67760  0.75030  0.26730  Biso   1.000  H
  H172     1.0000 0.73010  0.94000  0.30330  Biso   1.000  H
  H173     1.0000 0.71940  0.94030  0.34310  Biso   1.000  H
  H174     1.0000 0.69700  0.78130  0.22090  Biso   1.000  H
  H175     1.0000 0.59660  0.93050  0.15550  Biso   1.000  H
  H176     1.0000 0.37810  0.88020  0.02730  Biso   1.000  H
  H177     1.0000 0.57340  0.85690  0.02250  Biso   1.000  H
  H178     1.0000 0.26690  0.73960  0.87630  Biso   1.000  H
  H179     1.0000 0.34980  0.76370  0.91350  Biso   1.000  H
  H180     1.0000 0.29580  0.85900  0.99040  Biso   1.000  H
  H181     1.0000 0.51510  0.91060  0.12090  Biso   1.000  H
  H182     1.0000 0.49410  0.84450  0.99080  Biso   1.000  H
  H183     1.0000 0.48210  0.62490  0.32420  Biso   1.000  H
  H184     1.0000 0.51700  0.74970  0.42730  Biso   1.000  H
  H185     1.0000 0.36330  0.56000  0.29010  Biso   1.000  H
  H186     1.0000 0.40280  0.55970  0.27910  Biso   1.000  H
  H187     1.0000 0.43960  0.71870  0.41570  Biso   1.000  H
  H188     1.0000 0.22500  0.56950  0.16610  Biso   1.000  H
  H189     1.0000 0.14710  0.61980  0.99790  Biso   1.000  H
  H190     1.0000 0.16560  0.64310  0.21650  Biso   1.000  H
  H191     1.0000 0.13670  0.76040  0.02730  Biso   1.000  H
  H192     1.0000 0.14980  0.73630  0.08610  Biso   1.000  H
  H193     1.0000 0.13140  0.64100  0.93680  Biso   1.000  H
  H194     1.0000 0.21030  0.58940  0.10450  Biso   1.000  H
  H195     1.0000 0.14630  0.65550  0.14960  Biso   1.000  H
  H196     1.0000 0.80070  0.15790  0.17580  Biso   1.000  H
  H197     1.0000 0.82240  0.08970  0.07270  Biso   1.000  H
  H198     1.0000 0.76990  0.07320  0.20990  Biso   1.000  H
  H199     1.0000 0.78060  0.12370  0.22090  Biso   1.000  H
  H200     1.0000 0.80300  0.02390  0.08430  Biso   1.000  H
  H201     1.0000 0.90340  0.05890  0.33390  Biso   1.000  H
  H202     1.0000 0.12190  0.14920  0.50210  Biso   1.000  H
  H203     1.0000 0.92660  0.94910  0.28350  Biso   1.000  H
  H204     1.0000 0.23310  0.10940  0.47270  Biso   1.000  H
  H205     1.0000 0.15020  0.06370  0.41390  Biso   1.000  H
  H206     1.0000 0.20420  0.19460  0.56320  Biso   1.000  H
  H207     1.0000 0.98490  0.10580  0.39550  Biso   1.000  H
  H208     1.0000 0.00590  0.99670  0.35040  Biso   1.000  H
  H209     1.0000 0.87510  0.85720  0.19930  Biso   1.000  H
  H210     1.0000 0.75030  0.76730  0.17760  Biso   1.000  H
  H211     1.0000 0.94000  0.80330  0.23010  Biso   1.000  H
  H212     1.0000 0.94030  0.84310  0.21940  Biso   1.000  H
  H213     1.0000 0.78130  0.72090  0.19700  Biso   1.000  H
  H214     1.0000 0.93050  0.65550  0.09660  Biso   1.000  H
  H215     1.0000 0.88020  0.52730  0.87810  Biso   1.000  H
  H216     1.0000 0.85690  0.52250  0.07340  Biso   1.000  H
  H217     1.0000 0.73960  0.37630  0.76690  Biso   1.000  H
  H218     1.0000 0.76370  0.41350  0.84980  Biso   1.000  H
  H219     1.0000 0.85900  0.49040  0.79580  Biso   1.000  H
  H220     1.0000 0.91060  0.62090  0.01510  Biso   1.000  H
  H221     1.0000 0.84450  0.49080  0.99410  Biso   1.000  H
  H222     1.0000 0.34210  0.64280  0.51790  Biso   1.000  H
  H223     1.0000 0.41030  0.73270  0.48300  Biso   1.000  H
  H224     1.0000 0.42680  0.69670  0.63670  Biso   1.000  H
  H225     1.0000 0.37630  0.65690  0.59720  Biso   1.000  H
  H226     1.0000 0.47610  0.77910  0.56040  Biso   1.000  H
  H227     1.0000 0.44110  0.84450  0.77500  Biso   1.000  H
  H228     1.0000 0.35080  0.97270  0.85290  Biso   1.000  H
  H229     1.0000 0.55090  0.97750  0.83440  Biso   1.000  H
  H230     1.0000 0.39060  0.12370  0.86330  Biso   1.000  H
  H231     1.0000 0.43630  0.08650  0.85020  Biso   1.000  H
  H232     1.0000 0.30540  0.00960  0.86860  Biso   1.000  H
  H233     1.0000 0.39420  0.87910  0.78970  Biso   1.000  H
  H234     1.0000 0.50330  0.00920  0.85370  Biso   1.000  H
  H235     1.0000 0.15790  0.67580  0.30070  Biso   1.000  H
  H236     1.0000 0.08970  0.57270  0.32240  Biso   1.000  H
  H237     1.0000 0.07320  0.70990  0.26990  Biso   1.000  H
  H238     1.0000 0.12370  0.72090  0.28060  Biso   1.000  H
  H239     1.0000 0.02390  0.58430  0.30300  Biso   1.000  H
  H240     1.0000 0.05890  0.83390  0.40340  Biso   1.000  H
  H241     1.0000 0.14920  0.00210  0.62190  Biso   1.000  H
  H242     1.0000 0.94910  0.78350  0.42660  Biso   1.000  H
  H243     1.0000 0.10940  0.97270  0.73310  Biso   1.000  H
  H244     1.0000 0.06370  0.91390  0.65020  Biso   1.000  H
  H245     1.0000 0.19460  0.06320  0.70420  Biso   1.000  H
  H246     1.0000 0.10580  0.89550  0.48490  Biso   1.000  H
  H247     1.0000 0.99670  0.85040  0.50590  Biso   1.000  H
  H248     1.0000 0.62490  0.82420  0.98210  Biso   1.000  H
  H249     1.0000 0.74970  0.92730  0.01700  Biso   1.000  H
  H250     1.0000 0.56000  0.79010  0.86330  Biso   1.000  H
  H251     1.0000 0.55970  0.77910  0.90280  Biso   1.000  H
  H252     1.0000 0.71870  0.91570  0.93960  Biso   1.000  H
  H253     1.0000 0.56950  0.66610  0.72500  Biso   1.000  H
  H254     1.0000 0.61980  0.49790  0.64710  Biso   1.000  H
  H255     1.0000 0.64310  0.71650  0.66560  Biso   1.000  H
  H256     1.0000 0.76040  0.52730  0.63670  Biso   1.000  H
  H257     1.0000 0.73630  0.58610  0.64980  Biso   1.000  H
  H258     1.0000 0.64100  0.43680  0.63140  Biso   1.000  H
  H259     1.0000 0.58940  0.60450  0.71030  Biso   1.000  H
  H260     1.0000 0.65550  0.64960  0.64630  Biso   1.000  H
  H261     1.0000 0.67580  0.80070  0.65790  Biso   1.000  H
  H262     1.0000 0.57270  0.82240  0.58970  Biso   1.000  H
  H263     1.0000 0.70990  0.76990  0.57320  Biso   1.000  H
  H264     1.0000 0.72090  0.78060  0.62370  Biso   1.000  H
  H265     1.0000 0.58430  0.80300  0.52390  Biso   1.000  H
  H266     1.0000 0.83390  0.90340  0.55890  Biso   1.000  H
  H267     1.0000 0.00210  0.12190  0.64920  Biso   1.000  H
  H268     1.0000 0.78350  0.92660  0.44910  Biso   1.000  H
  H269     1.0000 0.97270  0.23310  0.60940  Biso   1.000  H
  H270     1.0000 0.91390  0.15020  0.56370  Biso   1.000  H
  H271     1.0000 0.06320  0.20420  0.69460  Biso   1.000  H
  H272     1.0000 0.89550  0.98490  0.60580  Biso   1.000  H
  H273     1.0000 0.85040  0.00590  0.49670  Biso   1.000  H
  H274     1.0000 0.82420  0.48210  0.12490  Biso   1.000  H
  H275     1.0000 0.92730  0.51700  0.24970  Biso   1.000  H
  H276     1.0000 0.79010  0.36330  0.06000  Biso   1.000  H
  H277     1.0000 0.77910  0.40280  0.05970  Biso   1.000  H
  H278     1.0000 0.91570  0.43960  0.21870  Biso   1.000  H
  H279     1.0000 0.66610  0.22500  0.06950  Biso   1.000  H
  H280     1.0000 0.49790  0.14710  0.11980  Biso   1.000  H
  H281     1.0000 0.71650  0.16560  0.14310  Biso   1.000  H
  H282     1.0000 0.52730  0.13670  0.26040  Biso   1.000  H
  H283     1.0000 0.58610  0.14980  0.23630  Biso   1.000  H
  H284     1.0000 0.43680  0.13140  0.14100  Biso   1.000  H
  H285     1.0000 0.60450  0.21030  0.08940  Biso   1.000  H
  H286     1.0000 0.64960  0.14630  0.15550  Biso   1.000  H
  H287     1.0000 0.85720  0.69930  0.37510  Biso   1.000  H
  H288     1.0000 0.76730  0.67760  0.25030  Biso   1.000  H
  H289     1.0000 0.80330  0.73010  0.44000  Biso   1.000  H
  H290     1.0000 0.84310  0.71940  0.44030  Biso   1.000  H
  H291     1.0000 0.72090  0.69700  0.28130  Biso   1.000  H
  H292     1.0000 0.65550  0.59660  0.43050  Biso   1.000  H
  H293     1.0000 0.52730  0.37810  0.38020  Biso   1.000  H
  H294     1.0000 0.52250  0.57340  0.35690  Biso   1.000  H
  H295     1.0000 0.37630  0.26690  0.23960  Biso   1.000  H
  H296     1.0000 0.41350  0.34980  0.26370  Biso   1.000  H
  H297     1.0000 0.49040  0.29580  0.35900  Biso   1.000  H
  H298     1.0000 0.62090  0.51510  0.41060  Biso   1.000  H
  H299     1.0000 0.49080  0.49410  0.34450  Biso   1.000  H
  H300     1.0000 0.64280  0.01790  0.84210  Biso   1.000  H
  H301     1.0000 0.73270  0.98300  0.91030  Biso   1.000  H
  H302     1.0000 0.69670  0.13670  0.92680  Biso   1.000  H
  H303     1.0000 0.65690  0.09720  0.87630  Biso   1.000  H
  H304     1.0000 0.77910  0.06040  0.97610  Biso   1.000  H
  H305     1.0000 0.84450  0.27500  0.94110  Biso   1.000  H
  H306     1.0000 0.97270  0.35290  0.85080  Biso   1.000  H
  H307     1.0000 0.97750  0.33440  0.05090  Biso   1.000  H
  H308     1.0000 0.12370  0.36330  0.89060  Biso   1.000  H
  H309     1.0000 0.08650  0.35020  0.93630  Biso   1.000  H
  H310     1.0000 0.00960  0.36860  0.80540  Biso   1.000  H
  H311     1.0000 0.87910  0.28970  0.89420  Biso   1.000  H
  H312     1.0000 0.00920  0.35370  0.00330  Biso   1.000  H
  C1       1.0000 0.34923  0.21256  0.76181  Biso   1.000  C
  C2       1.0000 0.28058  0.71945  0.40797  Biso   1.000  C
  C3       1.0000 0.35621  0.19846  0.82911  Biso   1.000  C
  C4       1.0000 0.37850  0.21092  0.80218  Biso   1.000  C
  C5       1.0000 0.28258  0.18597  0.77629  Biso   1.000  C
  C6       1.0000 0.36884  0.22832  0.73224  Biso   1.000  C
  C7       1.0000 0.30141  0.19833  0.74886  Biso   1.000  C
  C8       1.0000 0.40748  0.14609  0.61251  Biso   1.000  C
  C9       1.0000 0.39653  0.09402  0.59149  Biso   1.000  C
  C10      1.0000 0.29647  0.77232  0.42957  Biso   1.000  C
  C11      1.0000 0.41228  0.07633  0.62181  Biso   1.000  C
  C12      1.0000 0.35260  0.85590  0.49650  Biso   1.000  C
  C13      1.0000 0.32650  0.87180  0.47370  Biso   1.000  C
  C14      1.0000 0.36977  0.06300  0.54357  Biso   1.000  C
  C15      1.0000 0.26810  0.78892  0.40642  Biso   1.000  C
  C16      1.0000 0.28270  0.83860  0.42850  Biso   1.000  C
  C17      1.0000 0.37588  0.99775  0.55483  Biso   1.000  C
  C18      1.0000 0.33937  0.80604  0.47481  Biso   1.000  C
  C19      1.0000 0.40010  0.02690  0.60040  Biso   1.000  C
  C20      1.0000 0.36080  0.01463  0.52443  Biso   1.000  C
  C21      1.0000 0.95075  0.58742  0.73819  Biso   1.000  C
  C22      1.0000 0.81148  0.87261  0.09203  Biso   1.000  C
  C23      1.0000 0.86935  0.52710  0.67089  Biso   1.000  C
  C24      1.0000 0.90874  0.57632  0.69782  Biso   1.000  C
  C25      1.0000 0.90968  0.50629  0.72371  Biso   1.000  C
  C26      1.0000 0.99608  0.63660  0.76776  Biso   1.000  C
  C27      1.0000 0.94947  0.55255  0.75114  Biso   1.000  C
  C28      1.0000 0.03358  0.79497  0.88749  Biso   1.000  C
  C29      1.0000 0.00253  0.80504  0.90851  Biso   1.000  C
  C30      1.0000 0.84275  0.86690  0.07043  Biso   1.000  C
  C31      1.0000 0.95452  0.79047  0.87819  Biso   1.000  C
  C32      1.0000 0.85940  0.85610  0.00350  Biso   1.000  C
  C33      1.0000 0.89810  0.85280  0.02630  Biso   1.000  C
  C34      1.0000 0.01943  0.82620  0.95643  Biso   1.000  C
  C35      1.0000 0.88250  0.86168  0.09358  Biso   1.000  C
  C36      1.0000 0.91010  0.85420  0.07150  Biso   1.000  C
  C37      1.0000 0.94292  0.82105  0.94517  Biso   1.000  C
  C38      1.0000 0.83123  0.86456  0.02519  Biso   1.000  C
  C39      1.0000 0.92650  0.79970  0.89960  Biso   1.000  C
  C40      1.0000 0.99020  0.83637  0.97557  Biso   1.000  C
  C41      1.0000 0.54925  0.28744  0.63667  Biso   1.000  C
  C42      1.0000 0.68852  0.78055  0.06113  Biso   1.000  C
  C43      1.0000 0.63065  0.30154  0.65775  Biso   1.000  C
  C44      1.0000 0.59126  0.28908  0.66758  Biso   1.000  C
  C45      1.0000 0.59032  0.31403  0.59661  Biso   1.000  C
  C46      1.0000 0.50392  0.27168  0.64052  Biso   1.000  C
  C47      1.0000 0.55053  0.30167  0.60308  Biso   1.000  C
  C48      1.0000 0.46642  0.35391  0.76139  Biso   1.000  C
  C49      1.0000 0.49747  0.40598  0.80251  Biso   1.000  C
  C50      1.0000 0.65725  0.72768  0.02415  Biso   1.000  C
  C51      1.0000 0.54548  0.42367  0.83595  Biso   1.000  C
  C52      1.0000 0.64060  0.64410  0.99670  Biso   1.000  C
  C53      1.0000 0.60190  0.62820  0.95470  Biso   1.000  C
  C54      1.0000 0.48057  0.43700  0.80677  Biso   1.000  C
  C55      1.0000 0.61750  0.71108  0.97918  Biso   1.000  C
  C56      1.0000 0.58990  0.66140  0.94410  Biso   1.000  C
  C57      1.0000 0.55708  0.50225  0.87813  Biso   1.000  C
  C58      1.0000 0.66877  0.69396  0.03333  Biso   1.000  C
  C59      1.0000 0.57350  0.47310  0.87320  Biso   1.000  C
  C60      1.0000 0.50980  0.48537  0.84617  Biso   1.000  C
  C61      1.0000 0.15077  0.91258  0.86333  Biso   1.000  C
  C62      1.0000 0.21942  0.62739  0.43887  Biso   1.000  C
  C63      1.0000 0.14379  0.97290  0.84225  Biso   1.000  C
  C64      1.0000 0.12150  0.92368  0.83242  Biso   1.000  C
  C65      1.0000 0.21742  0.99371  0.90339  Biso   1.000  C
  C66      1.0000 0.13116  0.86340  0.85948  Biso   1.000  C
  C67      1.0000 0.19859  0.94745  0.89692  Biso   1.000  C
  C68      1.0000 0.09252  0.70503  0.73861  Biso   1.000  C
  C69      1.0000 0.10347  0.69496  0.69749  Biso   1.000  C
  C70      1.0000 0.20353  0.63310  0.47585  Biso   1.000  C
  C71      1.0000 0.08772  0.70953  0.66405  Biso   1.000  C
  C72      1.0000 0.14740  0.64390  0.50330  Biso   1.000  C
  C73      1.0000 0.17350  0.64720  0.54530  Biso   1.000  C
  C74      1.0000 0.13023  0.67380  0.69323  Biso   1.000  C
  C75      1.0000 0.23190  0.63832  0.52082  Biso   1.000  C
  C76      1.0000 0.21730  0.64580  0.55590  Biso   1.000  C
  C77      1.0000 0.12412  0.67895  0.62187  Biso   1.000  C
  C78      1.0000 0.16063  0.63544  0.46667  Biso   1.000  C
  C79      1.0000 0.09990  0.70030  0.62680  Biso   1.000  C
  C80      1.0000 0.13920  0.66363  0.65383  Biso   1.000  C
  C81      1.0000 0.13667  0.54925  0.78744  Biso   1.000  C
  C82      1.0000 0.56113  0.68852  0.28055  Biso   1.000  C
  C83      1.0000 0.15775  0.63065  0.80154  Biso   1.000  C
  C84      1.0000 0.16758  0.59126  0.78908  Biso   1.000  C
  C85      1.0000 0.09661  0.59032  0.81403  Biso   1.000  C
  C86      1.0000 0.14052  0.50392  0.77168  Biso   1.000  C
  C87      1.0000 0.10308  0.55053  0.80167  Biso   1.000  C
  C88      1.0000 0.26139  0.46642  0.85391  Biso   1.000  C
  C89      1.0000 0.30251  0.49747  0.90598  Biso   1.000  C
  C90      1.0000 0.52415  0.65725  0.22768  Biso   1.000  C
  C91      1.0000 0.33595  0.54548  0.92367  Biso   1.000  C
  C92      1.0000 0.49670  0.64060  0.14410  Biso   1.000  C
  C93      1.0000 0.45470  0.60190  0.12820  Biso   1.000  C
  C94      1.0000 0.30677  0.48057  0.93700  Biso   1.000  C
  C95      1.0000 0.47918  0.61750  0.21108  Biso   1.000  C
  C96      1.0000 0.44410  0.58990  0.16140  Biso   1.000  C
  C97      1.0000 0.37813  0.55708  0.00225  Biso   1.000  C
  C98      1.0000 0.53333  0.66877  0.19396  Biso   1.000  C
  C99      1.0000 0.37320  0.57350  0.97310  Biso   1.000  C
  C100     1.0000 0.34617  0.50980  0.98537  Biso   1.000  C
  C101     1.0000 0.36333  0.15077  0.41258  Biso   1.000  C
  C102     1.0000 0.93887  0.21942  0.12739  Biso   1.000  C
  C103     1.0000 0.34225  0.14379  0.47290  Biso   1.000  C
  C104     1.0000 0.33242  0.12150  0.42368  Biso   1.000  C
  C105     1.0000 0.40339  0.21742  0.49371  Biso   1.000  C
  C106     1.0000 0.35948  0.13116  0.36340  Biso   1.000  C
  C107     1.0000 0.39692  0.19859  0.44745  Biso   1.000  C
  C108     1.0000 0.23861  0.09252  0.20503  Biso   1.000  C
  C109     1.0000 0.19749  0.10347  0.19496  Biso   1.000  C
  C110     1.0000 0.97585  0.20353  0.13310  Biso   1.000  C
  C111     1.0000 0.16405  0.08772  0.20953  Biso   1.000  C
  C112     1.0000 0.00330  0.14740  0.14390  Biso   1.000  C
  C113     1.0000 0.04530  0.17350  0.14720  Biso   1.000  C
  C114     1.0000 0.19323  0.13023  0.17380  Biso   1.000  C
  C115     1.0000 0.02082  0.23190  0.13832  Biso   1.000  C
  C116     1.0000 0.05590  0.21730  0.14580  Biso   1.000  C
  C117     1.0000 0.12187  0.12412  0.17895  Biso   1.000  C
  C118     1.0000 0.96667  0.16063  0.13544  Biso   1.000  C
  C119     1.0000 0.12680  0.09990  0.20030  Biso   1.000  C
  C120     1.0000 0.15383  0.13920  0.16363  Biso   1.000  C
  C121     1.0000 0.26181  0.34923  0.71256  Biso   1.000  C
  C122     1.0000 0.90797  0.28058  0.21945  Biso   1.000  C
  C123     1.0000 0.32911  0.35621  0.69846  Biso   1.000  C
  C124     1.0000 0.30218  0.37850  0.71092  Biso   1.000  C
  C125     1.0000 0.27629  0.28258  0.68597  Biso   1.000  C
  C126     1.0000 0.23224  0.36884  0.72832  Biso   1.000  C
  C127     1.0000 0.24886  0.30141  0.69833  Biso   1.000  C
  C128     1.0000 0.11251  0.40748  0.64609  Biso   1.000  C
  C129     1.0000 0.09149  0.39653  0.59402  Biso   1.000  C
  C130     1.0000 0.92957  0.29647  0.27232  Biso   1.000  C
  C131     1.0000 0.12181  0.41228  0.57633  Biso   1.000  C
  C132     1.0000 0.99650  0.35260  0.35590  Biso   1.000  C
  C133     1.0000 0.97370  0.32650  0.37180  Biso   1.000  C
  C134     1.0000 0.04357  0.36977  0.56300  Biso   1.000  C
  C135     1.0000 0.90642  0.26810  0.28892  Biso   1.000  C
  C136     1.0000 0.92850  0.28270  0.33860  Biso   1.000  C
  C137     1.0000 0.05483  0.37588  0.49775  Biso   1.000  C
  C138     1.0000 0.97481  0.33937  0.30604  Biso   1.000  C
  C139     1.0000 0.10040  0.40010  0.52690  Biso   1.000  C
  C140     1.0000 0.02443  0.36080  0.51463  Biso   1.000  C
  C141     1.0000 0.23819  0.95075  0.08742  Biso   1.000  C
  C142     1.0000 0.59203  0.81148  0.37261  Biso   1.000  C
  C143     1.0000 0.17089  0.86935  0.02710  Biso   1.000  C
  C144     1.0000 0.19782  0.90874  0.07632  Biso   1.000  C
  C145     1.0000 0.22371  0.90968  0.00629  Biso   1.000  C
  C146     1.0000 0.26776  0.99608  0.13660  Biso   1.000  C
  C147     1.0000 0.25114  0.94947  0.05255  Biso   1.000  C
  C148     1.0000 0.38749  0.03358  0.29497  Biso   1.000  C
  C149     1.0000 0.40851  0.00253  0.30504  Biso   1.000  C
  C150     1.0000 0.57043  0.84275  0.36690  Biso   1.000  C
  C151     1.0000 0.37819  0.95452  0.29047  Biso   1.000  C
  C152     1.0000 0.50350  0.85940  0.35610  Biso   1.000  C
  C153     1.0000 0.52630  0.89810  0.35280  Biso   1.000  C
  C154     1.0000 0.45643  0.01943  0.32620  Biso   1.000  C
  C155     1.0000 0.59358  0.88250  0.36168  Biso   1.000  C
  C156     1.0000 0.57150  0.91010  0.35420  Biso   1.000  C
  C157     1.0000 0.44517  0.94292  0.32105  Biso   1.000  C
  C158     1.0000 0.52519  0.83123  0.36456  Biso   1.000  C
  C159     1.0000 0.39960  0.92650  0.29970  Biso   1.000  C
  C160     1.0000 0.47557  0.99020  0.33637  Biso   1.000  C
  C161     1.0000 0.58742  0.23819  0.45075  Biso   1.000  C
  C162     1.0000 0.87261  0.59203  0.31148  Biso   1.000  C
  C163     1.0000 0.52710  0.17089  0.36935  Biso   1.000  C
  C164     1.0000 0.57632  0.19782  0.40874  Biso   1.000  C
  C165     1.0000 0.50629  0.22371  0.40968  Biso   1.000  C
  C166     1.0000 0.63660  0.26776  0.49608  Biso   1.000  C
  C167     1.0000 0.55255  0.25114  0.44947  Biso   1.000  C
  C168     1.0000 0.79497  0.38749  0.53358  Biso   1.000  C
  C169     1.0000 0.80504  0.40851  0.50253  Biso   1.000  C
  C170     1.0000 0.86690  0.57043  0.34275  Biso   1.000  C
  C171     1.0000 0.79047  0.37819  0.45452  Biso   1.000  C
  C172     1.0000 0.85610  0.50350  0.35940  Biso   1.000  C
  C173     1.0000 0.85280  0.52630  0.39810  Biso   1.000  C
  C174     1.0000 0.82620  0.45643  0.51943  Biso   1.000  C
  C175     1.0000 0.86168  0.59358  0.38250  Biso   1.000  C
  C176     1.0000 0.85420  0.57150  0.41010  Biso   1.000  C
  C177     1.0000 0.82105  0.44517  0.44292  Biso   1.000  C
  C178     1.0000 0.86456  0.52519  0.33123  Biso   1.000  C
  C179     1.0000 0.79970  0.39960  0.42650  Biso   1.000  C
  C180     1.0000 0.83637  0.47557  0.49020  Biso   1.000  C
  C181     1.0000 0.21256  0.26181  0.84923  Biso   1.000  C
  C182     1.0000 0.71945  0.90797  0.78058  Biso   1.000  C
  C183     1.0000 0.19846  0.32911  0.85621  Biso   1.000  C
  C184     1.0000 0.21092  0.30218  0.87850  Biso   1.000  C
  C185     1.0000 0.18597  0.27629  0.78258  Biso   1.000  C
  C186     1.0000 0.22832  0.23224  0.86884  Biso   1.000  C
  C187     1.0000 0.19833  0.24886  0.80141  Biso   1.000  C
  C188     1.0000 0.14609  0.11251  0.90748  Biso   1.000  C
  C189     1.0000 0.09402  0.09149  0.89653  Biso   1.000  C
  C190     1.0000 0.77232  0.92957  0.79647  Biso   1.000  C
  C191     1.0000 0.07633  0.12181  0.91228  Biso   1.000  C
  C192     1.0000 0.85590  0.99650  0.85260  Biso   1.000  C
  C193     1.0000 0.87180  0.97370  0.82650  Biso   1.000  C
  C194     1.0000 0.06300  0.04357  0.86977  Biso   1.000  C
  C195     1.0000 0.78892  0.90642  0.76810  Biso   1.000  C
  C196     1.0000 0.83860  0.92850  0.78270  Biso   1.000  C
  C197     1.0000 0.99775  0.05483  0.87588  Biso   1.000  C
  C198     1.0000 0.80604  0.97481  0.83937  Biso   1.000  C
  C199     1.0000 0.02690  0.10040  0.90010  Biso   1.000  C
  C200     1.0000 0.01463  0.02443  0.86080  Biso   1.000  C
  C201     1.0000 0.91258  0.36333  0.65077  Biso   1.000  C
  C202     1.0000 0.62739  0.93887  0.71942  Biso   1.000  C
  C203     1.0000 0.97290  0.34225  0.64379  Biso   1.000  C
  C204     1.0000 0.92368  0.33242  0.62150  Biso   1.000  C
  C205     1.0000 0.99371  0.40339  0.71742  Biso   1.000  C
  C206     1.0000 0.86340  0.35948  0.63116  Biso   1.000  C
  C207     1.0000 0.94745  0.39692  0.69859  Biso   1.000  C
  C208     1.0000 0.70503  0.23861  0.59252  Biso   1.000  C
  C209     1.0000 0.69496  0.19749  0.60347  Biso   1.000  C
  C210     1.0000 0.63310  0.97585  0.70353  Biso   1.000  C
  C211     1.0000 0.70953  0.16405  0.58772  Biso   1.000  C
  C212     1.0000 0.64390  0.00330  0.64740  Biso   1.000  C
  C213     1.0000 0.64720  0.04530  0.67350  Biso   1.000  C
  C214     1.0000 0.67380  0.19323  0.63023  Biso   1.000  C
  C215     1.0000 0.63832  0.02082  0.73190  Biso   1.000  C
  C216     1.0000 0.64580  0.05590  0.71730  Biso   1.000  C
  C217     1.0000 0.67895  0.12187  0.62412  Biso   1.000  C
  C218     1.0000 0.63544  0.96667  0.66063  Biso   1.000  C
  C219     1.0000 0.70030  0.12680  0.59990  Biso   1.000  C
  C220     1.0000 0.66363  0.15383  0.63920  Biso   1.000  C
  C221     1.0000 0.28744  0.13667  0.04925  Biso   1.000  C
  C222     1.0000 0.78055  0.56113  0.18852  Biso   1.000  C
  C223     1.0000 0.30154  0.15775  0.13065  Biso   1.000  C
  C224     1.0000 0.28908  0.16758  0.09126  Biso   1.000  C
  C225     1.0000 0.31403  0.09661  0.09032  Biso   1.000  C
  C226     1.0000 0.27168  0.14052  0.00392  Biso   1.000  C
  C227     1.0000 0.30167  0.10308  0.05053  Biso   1.000  C
  C228     1.0000 0.35391  0.26139  0.96642  Biso   1.000  C
  C229     1.0000 0.40598  0.30251  0.99747  Biso   1.000  C
  C230     1.0000 0.72768  0.52415  0.15725  Biso   1.000  C
  C231     1.0000 0.42367  0.33595  0.04548  Biso   1.000  C
  C232     1.0000 0.64410  0.49670  0.14060  Biso   1.000  C
  C233     1.0000 0.62820  0.45470  0.10190  Biso   1.000  C
  C234     1.0000 0.43700  0.30677  0.98057  Biso   1.000  C
  C235     1.0000 0.71108  0.47918  0.11750  Biso   1.000  C
  C236     1.0000 0.66140  0.44410  0.08990  Biso   1.000  C
  C237     1.0000 0.50225  0.37813  0.05708  Biso   1.000  C
  C238     1.0000 0.69396  0.53333  0.16877  Biso   1.000  C
  C239     1.0000 0.47310  0.37320  0.07350  Biso   1.000  C
  C240     1.0000 0.48537  0.34617  0.00980  Biso   1.000  C
  C241     1.0000 0.08742  0.45075  0.23819  Biso   1.000  C
  C242     1.0000 0.37261  0.31148  0.59203  Biso   1.000  C
  C243     1.0000 0.02710  0.36935  0.17089  Biso   1.000  C
  C244     1.0000 0.07632  0.40874  0.19782  Biso   1.000  C
  C245     1.0000 0.00629  0.40968  0.22371  Biso   1.000  C
  C246     1.0000 0.13660  0.49608  0.26776  Biso   1.000  C
  C247     1.0000 0.05255  0.44947  0.25114  Biso   1.000  C
  C248     1.0000 0.29497  0.53358  0.38749  Biso   1.000  C
  C249     1.0000 0.30504  0.50253  0.40851  Biso   1.000  C
  C250     1.0000 0.36690  0.34275  0.57043  Biso   1.000  C
  C251     1.0000 0.29047  0.45452  0.37819  Biso   1.000  C
  C252     1.0000 0.35610  0.35940  0.50350  Biso   1.000  C
  C253     1.0000 0.35280  0.39810  0.52630  Biso   1.000  C
  C254     1.0000 0.32620  0.51943  0.45643  Biso   1.000  C
  C255     1.0000 0.36168  0.38250  0.59358  Biso   1.000  C
  C256     1.0000 0.35420  0.41010  0.57150  Biso   1.000  C
  C257     1.0000 0.32105  0.44292  0.44517  Biso   1.000  C
  C258     1.0000 0.36456  0.33123  0.52519  Biso   1.000  C
  C259     1.0000 0.29970  0.42650  0.39960  Biso   1.000  C
  C260     1.0000 0.33637  0.49020  0.47557  Biso   1.000  C
  C261     1.0000 0.71256  0.84923  0.26181  Biso   1.000  C
  C262     1.0000 0.21945  0.78058  0.90797  Biso   1.000  C
  C263     1.0000 0.69846  0.85621  0.32911  Biso   1.000  C
  C264     1.0000 0.71092  0.87850  0.30218  Biso   1.000  C
  C265     1.0000 0.68597  0.78258  0.27629  Biso   1.000  C
  C266     1.0000 0.72832  0.86884  0.23224  Biso   1.000  C
  C267     1.0000 0.69833  0.80141  0.24886  Biso   1.000  C
  C268     1.0000 0.64609  0.90748  0.11251  Biso   1.000  C
  C269     1.0000 0.59402  0.89653  0.09149  Biso   1.000  C
  C270     1.0000 0.27232  0.79647  0.92957  Biso   1.000  C
  C271     1.0000 0.57633  0.91228  0.12181  Biso   1.000  C
  C272     1.0000 0.35590  0.85260  0.99650  Biso   1.000  C
  C273     1.0000 0.37180  0.82650  0.97370  Biso   1.000  C
  C274     1.0000 0.56300  0.86977  0.04357  Biso   1.000  C
  C275     1.0000 0.28892  0.76810  0.90642  Biso   1.000  C
  C276     1.0000 0.33860  0.78270  0.92850  Biso   1.000  C
  C277     1.0000 0.49775  0.87588  0.05483  Biso   1.000  C
  C278     1.0000 0.30604  0.83937  0.97481  Biso   1.000  C
  C279     1.0000 0.52690  0.90010  0.10040  Biso   1.000  C
  C280     1.0000 0.51463  0.86080  0.02443  Biso   1.000  C
  C281     1.0000 0.41258  0.65077  0.36333  Biso   1.000  C
  C282     1.0000 0.12739  0.71942  0.93887  Biso   1.000  C
  C283     1.0000 0.47290  0.64379  0.34225  Biso   1.000  C
  C284     1.0000 0.42368  0.62150  0.33242  Biso   1.000  C
  C285     1.0000 0.49371  0.71742  0.40339  Biso   1.000  C
  C286     1.0000 0.36340  0.63116  0.35948  Biso   1.000  C
  C287     1.0000 0.44745  0.69859  0.39692  Biso   1.000  C
  C288     1.0000 0.20503  0.59252  0.23861  Biso   1.000  C
  C289     1.0000 0.19496  0.60347  0.19749  Biso   1.000  C
  C290     1.0000 0.13310  0.70353  0.97585  Biso   1.000  C
  C291     1.0000 0.20953  0.58772  0.16405  Biso   1.000  C
  C292     1.0000 0.14390  0.64740  0.00330  Biso   1.000  C
  C293     1.0000 0.14720  0.67350  0.04530  Biso   1.000  C
  C294     1.0000 0.17380  0.63023  0.19323  Biso   1.000  C
  C295     1.0000 0.13832  0.73190  0.02082  Biso   1.000  C
  C296     1.0000 0.14580  0.71730  0.05590  Biso   1.000  C
  C297     1.0000 0.17895  0.62412  0.12187  Biso   1.000  C
  C298     1.0000 0.13544  0.66063  0.96667  Biso   1.000  C
  C299     1.0000 0.20030  0.59990  0.12680  Biso   1.000  C
  C300     1.0000 0.16363  0.63920  0.15383  Biso   1.000  C
  C301     1.0000 0.78744  0.04925  0.13667  Biso   1.000  C
  C302     1.0000 0.28055  0.18852  0.56113  Biso   1.000  C
  C303     1.0000 0.80154  0.13065  0.15775  Biso   1.000  C
  C304     1.0000 0.78908  0.09126  0.16758  Biso   1.000  C
  C305     1.0000 0.81403  0.09032  0.09661  Biso   1.000  C
  C306     1.0000 0.77168  0.00392  0.14052  Biso   1.000  C
  C307     1.0000 0.80167  0.05053  0.10308  Biso   1.000  C
  C308     1.0000 0.85391  0.96642  0.26139  Biso   1.000  C
  C309     1.0000 0.90598  0.99747  0.30251  Biso   1.000  C
  C310     1.0000 0.22768  0.15725  0.52415  Biso   1.000  C
  C311     1.0000 0.92367  0.04548  0.33595  Biso   1.000  C
  C312     1.0000 0.14410  0.14060  0.49670  Biso   1.000  C
  C313     1.0000 0.12820  0.10190  0.45470  Biso   1.000  C
  C314     1.0000 0.93700  0.98057  0.30677  Biso   1.000  C
  C315     1.0000 0.21108  0.11750  0.47918  Biso   1.000  C
  C316     1.0000 0.16140  0.08990  0.44410  Biso   1.000  C
  C317     1.0000 0.00225  0.05708  0.37813  Biso   1.000  C
  C318     1.0000 0.19396  0.16877  0.53333  Biso   1.000  C
  C319     1.0000 0.97310  0.07350  0.37320  Biso   1.000  C
  C320     1.0000 0.98537  0.00980  0.34617  Biso   1.000  C
  C321     1.0000 0.84923  0.76181  0.21256  Biso   1.000  C
  C322     1.0000 0.78058  0.40797  0.71945  Biso   1.000  C
  C323     1.0000 0.85621  0.82911  0.19846  Biso   1.000  C
  C324     1.0000 0.87850  0.80218  0.21092  Biso   1.000  C
  C325     1.0000 0.78258  0.77629  0.18597  Biso   1.000  C
  C326     1.0000 0.86884  0.73224  0.22832  Biso   1.000  C
  C327     1.0000 0.80141  0.74886  0.19833  Biso   1.000  C
  C328     1.0000 0.90748  0.61251  0.14609  Biso   1.000  C
  C329     1.0000 0.89653  0.59149  0.09402  Biso   1.000  C
  C330     1.0000 0.79647  0.42957  0.77232  Biso   1.000  C
  C331     1.0000 0.91228  0.62181  0.07633  Biso   1.000  C
  C332     1.0000 0.85260  0.49650  0.85590  Biso   1.000  C
  C333     1.0000 0.82650  0.47370  0.87180  Biso   1.000  C
  C334     1.0000 0.86977  0.54357  0.06300  Biso   1.000  C
  C335     1.0000 0.76810  0.40642  0.78892  Biso   1.000  C
  C336     1.0000 0.78270  0.42850  0.83860  Biso   1.000  C
  C337     1.0000 0.87588  0.55483  0.99775  Biso   1.000  C
  C338     1.0000 0.83937  0.47481  0.80604  Biso   1.000  C
  C339     1.0000 0.90010  0.60040  0.02690  Biso   1.000  C
  C340     1.0000 0.86080  0.52443  0.01463  Biso   1.000  C
  C341     1.0000 0.45075  0.73819  0.58742  Biso   1.000  C
  C342     1.0000 0.31148  0.09203  0.87261  Biso   1.000  C
  C343     1.0000 0.36935  0.67089  0.52710  Biso   1.000  C
  C344     1.0000 0.40874  0.69782  0.57632  Biso   1.000  C
  C345     1.0000 0.40968  0.72371  0.50629  Biso   1.000  C
  C346     1.0000 0.49608  0.76776  0.63660  Biso   1.000  C
  C347     1.0000 0.44947  0.75114  0.55255  Biso   1.000  C
  C348     1.0000 0.53358  0.88749  0.79497  Biso   1.000  C
  C349     1.0000 0.50253  0.90851  0.80504  Biso   1.000  C
  C350     1.0000 0.34275  0.07043  0.86690  Biso   1.000  C
  C351     1.0000 0.45452  0.87819  0.79047  Biso   1.000  C
  C352     1.0000 0.35940  0.00350  0.85610  Biso   1.000  C
  C353     1.0000 0.39810  0.02630  0.85280  Biso   1.000  C
  C354     1.0000 0.51943  0.95643  0.82620  Biso   1.000  C
  C355     1.0000 0.38250  0.09358  0.86168  Biso   1.000  C
  C356     1.0000 0.41010  0.07150  0.85420  Biso   1.000  C
  C357     1.0000 0.44292  0.94517  0.82105  Biso   1.000  C
  C358     1.0000 0.33123  0.02519  0.86456  Biso   1.000  C
  C359     1.0000 0.42650  0.89960  0.79970  Biso   1.000  C
  C360     1.0000 0.49020  0.97557  0.83637  Biso   1.000  C
  C361     1.0000 0.04925  0.63667  0.28744  Biso   1.000  C
  C362     1.0000 0.18852  0.06113  0.78055  Biso   1.000  C
  C363     1.0000 0.13065  0.65775  0.30154  Biso   1.000  C
  C364     1.0000 0.09126  0.66758  0.28908  Biso   1.000  C
  C365     1.0000 0.09032  0.59661  0.31403  Biso   1.000  C
  C366     1.0000 0.00392  0.64052  0.27168  Biso   1.000  C
  C367     1.0000 0.05053  0.60308  0.30167  Biso   1.000  C
  C368     1.0000 0.96642  0.76139  0.35391  Biso   1.000  C
  C369     1.0000 0.99747  0.80251  0.40598  Biso   1.000  C
  C370     1.0000 0.15725  0.02415  0.72768  Biso   1.000  C
  C371     1.0000 0.04548  0.83595  0.42367  Biso   1.000  C
  C372     1.0000 0.14060  0.99670  0.64410  Biso   1.000  C
  C373     1.0000 0.10190  0.95470  0.62820  Biso   1.000  C
  C374     1.0000 0.98057  0.80677  0.43700  Biso   1.000  C
  C375     1.0000 0.11750  0.97918  0.71108  Biso   1.000  C
  C376     1.0000 0.08990  0.94410  0.66140  Biso   1.000  C
  C377     1.0000 0.05708  0.87813  0.50225  Biso   1.000  C
  C378     1.0000 0.16877  0.03333  0.69396  Biso   1.000  C
  C379     1.0000 0.07350  0.87320  0.47310  Biso   1.000  C
  C380     1.0000 0.00980  0.84617  0.48537  Biso   1.000  C
  C381     1.0000 0.65077  0.86333  0.91258  Biso   1.000  C
  C382     1.0000 0.71942  0.43887  0.62739  Biso   1.000  C
  C383     1.0000 0.64379  0.84225  0.97290  Biso   1.000  C
  C384     1.0000 0.62150  0.83242  0.92368  Biso   1.000  C
  C385     1.0000 0.71742  0.90339  0.99371  Biso   1.000  C
  C386     1.0000 0.63116  0.85948  0.86340  Biso   1.000  C
  C387     1.0000 0.69859  0.89692  0.94745  Biso   1.000  C
  C388     1.0000 0.59252  0.73861  0.70503  Biso   1.000  C
  C389     1.0000 0.60347  0.69749  0.69496  Biso   1.000  C
  C390     1.0000 0.70353  0.47585  0.63310  Biso   1.000  C
  C391     1.0000 0.58772  0.66405  0.70953  Biso   1.000  C
  C392     1.0000 0.64740  0.50330  0.64390  Biso   1.000  C
  C393     1.0000 0.67350  0.54530  0.64720  Biso   1.000  C
  C394     1.0000 0.63023  0.69323  0.67380  Biso   1.000  C
  C395     1.0000 0.73190  0.52082  0.63832  Biso   1.000  C
  C396     1.0000 0.71730  0.55590  0.64580  Biso   1.000  C
  C397     1.0000 0.62412  0.62187  0.67895  Biso   1.000  C
  C398     1.0000 0.66063  0.46667  0.63544  Biso   1.000  C
  C399     1.0000 0.59990  0.62680  0.70030  Biso   1.000  C
  C400     1.0000 0.63920  0.65383  0.66363  Biso   1.000  C
  C401     1.0000 0.63667  0.78744  0.54925  Biso   1.000  C
  C402     1.0000 0.06113  0.28055  0.68852  Biso   1.000  C
  C403     1.0000 0.65775  0.80154  0.63065  Biso   1.000  C
  C404     1.0000 0.66758  0.78908  0.59126  Biso   1.000  C
  C405     1.0000 0.59661  0.81403  0.59032  Biso   1.000  C
  C406     1.0000 0.64052  0.77168  0.50392  Biso   1.000  C
  C407     1.0000 0.60308  0.80167  0.55053  Biso   1.000  C
  C408     1.0000 0.76139  0.85391  0.46642  Biso   1.000  C
  C409     1.0000 0.80251  0.90598  0.49747  Biso   1.000  C
  C410     1.0000 0.02415  0.22768  0.65725  Biso   1.000  C
  C411     1.0000 0.83595  0.92367  0.54548  Biso   1.000  C
  C412     1.0000 0.99670  0.14410  0.64060  Biso   1.000  C
  C413     1.0000 0.95470  0.12820  0.60190  Biso   1.000  C
  C414     1.0000 0.80677  0.93700  0.48057  Biso   1.000  C
  C415     1.0000 0.97918  0.21108  0.61750  Biso   1.000  C
  C416     1.0000 0.94410  0.16140  0.58990  Biso   1.000  C
  C417     1.0000 0.87813  0.00225  0.55708  Biso   1.000  C
  C418     1.0000 0.03333  0.19396  0.66877  Biso   1.000  C
  C419     1.0000 0.87320  0.97310  0.57350  Biso   1.000  C
  C420     1.0000 0.84617  0.98537  0.50980  Biso   1.000  C
  C421     1.0000 0.86333  0.41258  0.15077  Biso   1.000  C
  C422     1.0000 0.43887  0.12739  0.21942  Biso   1.000  C
  C423     1.0000 0.84225  0.47290  0.14379  Biso   1.000  C
  C424     1.0000 0.83242  0.42368  0.12150  Biso   1.000  C
  C425     1.0000 0.90339  0.49371  0.21742  Biso   1.000  C
  C426     1.0000 0.85948  0.36340  0.13116  Biso   1.000  C
  C427     1.0000 0.89692  0.44745  0.19859  Biso   1.000  C
  C428     1.0000 0.73861  0.20503  0.09252  Biso   1.000  C
  C429     1.0000 0.69749  0.19496  0.10347  Biso   1.000  C
  C430     1.0000 0.47585  0.13310  0.20353  Biso   1.000  C
  C431     1.0000 0.66405  0.20953  0.08772  Biso   1.000  C
  C432     1.0000 0.50330  0.14390  0.14740  Biso   1.000  C
  C433     1.0000 0.54530  0.14720  0.17350  Biso   1.000  C
  C434     1.0000 0.69323  0.17380  0.13023  Biso   1.000  C
  C435     1.0000 0.52082  0.13832  0.23190  Biso   1.000  C
  C436     1.0000 0.55590  0.14580  0.21730  Biso   1.000  C
  C437     1.0000 0.62187  0.17895  0.12412  Biso   1.000  C
  C438     1.0000 0.46667  0.13544  0.16063  Biso   1.000  C
  C439     1.0000 0.62680  0.20030  0.09990  Biso   1.000  C
  C440     1.0000 0.65383  0.16363  0.13920  Biso   1.000  C
  C441     1.0000 0.76181  0.71256  0.34923  Biso   1.000  C
  C442     1.0000 0.40797  0.21945  0.28058  Biso   1.000  C
  C443     1.0000 0.82911  0.69846  0.35621  Biso   1.000  C
  C444     1.0000 0.80218  0.71092  0.37850  Biso   1.000  C
  C445     1.0000 0.77629  0.68597  0.28258  Biso   1.000  C
  C446     1.0000 0.73224  0.72832  0.36884  Biso   1.000  C
  C447     1.0000 0.74886  0.69833  0.30141  Biso   1.000  C
  C448     1.0000 0.61251  0.64609  0.40748  Biso   1.000  C
  C449     1.0000 0.59149  0.59402  0.39653  Biso   1.000  C
  C450     1.0000 0.42957  0.27232  0.29647  Biso   1.000  C
  C451     1.0000 0.62181  0.57633  0.41228  Biso   1.000  C
  C452     1.0000 0.49650  0.35590  0.35260  Biso   1.000  C
  C453     1.0000 0.47370  0.37180  0.32650  Biso   1.000  C
  C454     1.0000 0.54357  0.56300  0.36977  Biso   1.000  C
  C455     1.0000 0.40642  0.28892  0.26810  Biso   1.000  C
  C456     1.0000 0.42850  0.33860  0.28270  Biso   1.000  C
  C457     1.0000 0.55483  0.49775  0.37588  Biso   1.000  C
  C458     1.0000 0.47481  0.30604  0.33937  Biso   1.000  C
  C459     1.0000 0.60040  0.52690  0.40010  Biso   1.000  C
  C460     1.0000 0.52443  0.51463  0.36080  Biso   1.000  C
  C461     1.0000 0.73819  0.08742  0.95075  Biso   1.000  C
  C462     1.0000 0.09203  0.37261  0.81148  Biso   1.000  C
  C463     1.0000 0.67089  0.02710  0.86935  Biso   1.000  C
  C464     1.0000 0.69782  0.07632  0.90874  Biso   1.000  C
  C465     1.0000 0.72371  0.00629  0.90968  Biso   1.000  C
  C466     1.0000 0.76776  0.13660  0.99608  Biso   1.000  C
  C467     1.0000 0.75114  0.05255  0.94947  Biso   1.000  C
  C468     1.0000 0.88749  0.29497  0.03358  Biso   1.000  C
  C469     1.0000 0.90851  0.30504  0.00253  Biso   1.000  C
  C470     1.0000 0.07043  0.36690  0.84275  Biso   1.000  C
  C471     1.0000 0.87819  0.29047  0.95452  Biso   1.000  C
  C472     1.0000 0.00350  0.35610  0.85940  Biso   1.000  C
  C473     1.0000 0.02630  0.35280  0.89810  Biso   1.000  C
  C474     1.0000 0.95643  0.32620  0.01943  Biso   1.000  C
  C475     1.0000 0.09358  0.36168  0.88250  Biso   1.000  C
  C476     1.0000 0.07150  0.35420  0.91010  Biso   1.000  C
  C477     1.0000 0.94517  0.32105  0.94292  Biso   1.000  C
  C478     1.0000 0.02519  0.36456  0.83123  Biso   1.000  C
  C479     1.0000 0.89960  0.29970  0.92650  Biso   1.000  C
  C480     1.0000 0.97557  0.33637  0.99020  Biso   1.000  C
  N1       1.0000 0.31019  0.18581  0.81624  Biso   1.000  N
  N2       1.0000 0.42524  0.22138  0.81810  Biso   1.000  N
  N3       1.0000 0.36670  0.94803  0.53693  Biso   1.000  N
  N4       1.0000 0.33379  0.92033  0.49312  Biso   1.000  N
  N5       1.0000 0.86957  0.49395  0.68376  Biso   1.000  N
  N6       1.0000 0.90328  0.60714  0.68190  Biso   1.000  N
  N7       1.0000 0.91110  0.82977  0.96307  Biso   1.000  N
  N8       1.0000 0.92721  0.84067  0.00688  Biso   1.000  N
  N9       1.0000 0.63043  0.31419  0.62438  Biso   1.000  N
  N10      1.0000 0.59672  0.27862  0.70386  Biso   1.000  N
  N11      1.0000 0.58890  0.55197  0.91867  Biso   1.000  N
  N12      1.0000 0.57279  0.57967  0.91346  Biso   1.000  N
  N13      1.0000 0.18981  0.00605  0.87562  Biso   1.000  N
  N14      1.0000 0.07476  0.89286  0.79614  Biso   1.000  N
  N15      1.0000 0.13330  0.67023  0.58133  Biso   1.000  N
  N16      1.0000 0.16621  0.65933  0.58654  Biso   1.000  N
  N17      1.0000 0.12438  0.63043  0.81419  Biso   1.000  N
  N18      1.0000 0.20386  0.59672  0.77862  Biso   1.000  N
  N19      1.0000 0.41867  0.58890  0.05197  Biso   1.000  N
  N20      1.0000 0.41346  0.57279  0.07967  Biso   1.000  N
  N21      1.0000 0.37562  0.18981  0.50605  Biso   1.000  N
  N22      1.0000 0.29614  0.07476  0.39286  Biso   1.000  N
  N23      1.0000 0.08133  0.13330  0.17023  Biso   1.000  N
  N24      1.0000 0.08654  0.16621  0.15933  Biso   1.000  N
  N25      1.0000 0.31624  0.31019  0.68581  Biso   1.000  N
  N26      1.0000 0.31810  0.42524  0.72138  Biso   1.000  N
  N27      1.0000 0.03693  0.36670  0.44803  Biso   1.000  N
  N28      1.0000 0.99312  0.33379  0.42033  Biso   1.000  N
  N29      1.0000 0.18376  0.86957  0.99395  Biso   1.000  N
  N30      1.0000 0.18190  0.90328  0.10714  Biso   1.000  N
  N31      1.0000 0.46307  0.91110  0.32977  Biso   1.000  N
  N32      1.0000 0.50688  0.92721  0.34067  Biso   1.000  N
  N33      1.0000 0.49395  0.18376  0.36957  Biso   1.000  N
  N34      1.0000 0.60714  0.18190  0.40328  Biso   1.000  N
  N35      1.0000 0.82977  0.46307  0.41110  Biso   1.000  N
  N36      1.0000 0.84067  0.50688  0.42721  Biso   1.000  N
  N37      1.0000 0.18581  0.31624  0.81019  Biso   1.000  N
  N38      1.0000 0.22138  0.31810  0.92524  Biso   1.000  N
  N39      1.0000 0.94803  0.03693  0.86670  Biso   1.000  N
  N40      1.0000 0.92033  0.99312  0.83379  Biso   1.000  N
  N41      1.0000 0.00605  0.37562  0.68981  Biso   1.000  N
  N42      1.0000 0.89286  0.29614  0.57476  Biso   1.000  N
  N43      1.0000 0.67023  0.08133  0.63330  Biso   1.000  N
  N44      1.0000 0.65933  0.08654  0.66621  Biso   1.000  N
  N45      1.0000 0.31419  0.12438  0.13043  Biso   1.000  N
  N46      1.0000 0.27862  0.20386  0.09672  Biso   1.000  N
  N47      1.0000 0.55197  0.41867  0.08890  Biso   1.000  N
  N48      1.0000 0.57967  0.41346  0.07279  Biso   1.000  N
  N49      1.0000 0.99395  0.36957  0.18376  Biso   1.000  N
  N50      1.0000 0.10714  0.40328  0.18190  Biso   1.000  N
  N51      1.0000 0.32977  0.41110  0.46307  Biso   1.000  N
  N52      1.0000 0.34067  0.42721  0.50688  Biso   1.000  N
  N53      1.0000 0.68581  0.81019  0.31624  Biso   1.000  N
  N54      1.0000 0.72138  0.92524  0.31810  Biso   1.000  N
  N55      1.0000 0.44803  0.86670  0.03693  Biso   1.000  N
  N56      1.0000 0.42033  0.83379  0.99312  Biso   1.000  N
  N57      1.0000 0.50605  0.68981  0.37562  Biso   1.000  N
  N58      1.0000 0.39286  0.57476  0.29614  Biso   1.000  N
  N59      1.0000 0.17023  0.63330  0.08133  Biso   1.000  N
  N60      1.0000 0.15933  0.66621  0.08654  Biso   1.000  N
  N61      1.0000 0.81419  0.13043  0.12438  Biso   1.000  N
  N62      1.0000 0.77862  0.09672  0.20386  Biso   1.000  N
  N63      1.0000 0.05197  0.08890  0.41867  Biso   1.000  N
  N64      1.0000 0.07967  0.07279  0.41346  Biso   1.000  N
  N65      1.0000 0.81019  0.81624  0.18581  Biso   1.000  N
  N66      1.0000 0.92524  0.81810  0.22138  Biso   1.000  N
  N67      1.0000 0.86670  0.53693  0.94803  Biso   1.000  N
  N68      1.0000 0.83379  0.49312  0.92033  Biso   1.000  N
  N69      1.0000 0.36957  0.68376  0.49395  Biso   1.000  N
  N70      1.0000 0.40328  0.68190  0.60714  Biso   1.000  N
  N71      1.0000 0.41110  0.96307  0.82977  Biso   1.000  N
  N72      1.0000 0.42721  0.00688  0.84067  Biso   1.000  N
  N73      1.0000 0.13043  0.62438  0.31419  Biso   1.000  N
  N74      1.0000 0.09672  0.70386  0.27862  Biso   1.000  N
  N75      1.0000 0.08890  0.91867  0.55197  Biso   1.000  N
  N76      1.0000 0.07279  0.91346  0.57967  Biso   1.000  N
  N77      1.0000 0.68981  0.87562  0.00605  Biso   1.000  N
  N78      1.0000 0.57476  0.79614  0.89286  Biso   1.000  N
  N79      1.0000 0.63330  0.58133  0.67023  Biso   1.000  N
  N80      1.0000 0.66621  0.58654  0.65933  Biso   1.000  N
  N81      1.0000 0.62438  0.81419  0.63043  Biso   1.000  N
  N82      1.0000 0.70386  0.77862  0.59672  Biso   1.000  N
  N83      1.0000 0.91867  0.05197  0.58890  Biso   1.000  N
  N84      1.0000 0.91346  0.07967  0.57279  Biso   1.000  N
  N85      1.0000 0.87562  0.50605  0.18981  Biso   1.000  N
  N86      1.0000 0.79614  0.39286  0.07476  Biso   1.000  N
  N87      1.0000 0.58133  0.17023  0.13330  Biso   1.000  N
  N88      1.0000 0.58654  0.15933  0.16621  Biso   1.000  N
  N89      1.0000 0.81624  0.68581  0.31019  Biso   1.000  N
  N90      1.0000 0.81810  0.72138  0.42524  Biso   1.000  N
  N91      1.0000 0.53693  0.44803  0.36670  Biso   1.000  N
  N92      1.0000 0.49312  0.42033  0.33379  Biso   1.000  N
  N93      1.0000 0.68376  0.99395  0.86957  Biso   1.000  N
  N94      1.0000 0.68190  0.10714  0.90328  Biso   1.000  N
  N95      1.0000 0.96307  0.32977  0.91110  Biso   1.000  N
  N96      1.0000 0.00688  0.34067  0.92721  Biso   1.000  N
  O1       1.0000 0.40957  0.23108  0.73775  Biso   1.000  O
  O2       1.0000 0.42821  0.17230  0.65899  Biso   1.000  O
  O3       1.0000 0.23987  0.69062  0.36951  Biso   1.000  O
  O4       1.0000 0.30882  0.70733  0.42857  Biso   1.000  O
  O5       1.0000 0.34332  0.23821  0.70399  Biso   1.000  O
  O6       1.0000 0.39521  0.15912  0.58109  Biso   1.000  O
  O7       1.0000 0.99333  0.67182  0.76225  Biso   1.000  O
  O8       1.0000 0.01331  0.76922  0.84101  Biso   1.000  O
  O9       1.0000 0.82111  0.87036  0.13049  Biso   1.000  O
  O10      1.0000 0.77876  0.88025  0.07143  Biso   1.000  O
  O11      1.0000 0.03422  0.63933  0.79601  Biso   1.000  O
  O12      1.0000 0.07803  0.81412  0.91891  Biso   1.000  O
  O13      1.0000 0.50667  0.26892  0.67849  Biso   1.000  O
  O14      1.0000 0.48669  0.32770  0.75591  Biso   1.000  O
  O15      1.0000 0.67889  0.80938  0.04925  Biso   1.000  O
  O16      1.0000 0.72124  0.79267  0.10149  Biso   1.000  O
  O17      1.0000 0.46578  0.26179  0.60511  Biso   1.000  O
  O18      1.0000 0.42197  0.34088  0.73609  Biso   1.000  O
  O19      1.0000 0.09043  0.82818  0.82151  Biso   1.000  O
  O20      1.0000 0.07179  0.73078  0.74409  Biso   1.000  O
  O21      1.0000 0.26013  0.62964  0.45075  Biso   1.000  O
  O22      1.0000 0.19118  0.61975  0.39851  Biso   1.000  O
  O23      1.0000 0.15668  0.86067  0.89489  Biso   1.000  O
  O24      1.0000 0.10479  0.68588  0.76391  Biso   1.000  O
  O25      1.0000 0.17849  0.50667  0.76892  Biso   1.000  O
  O26      1.0000 0.25591  0.48669  0.82770  Biso   1.000  O
  O27      1.0000 0.54925  0.67889  0.30938  Biso   1.000  O
  O28      1.0000 0.60149  0.72124  0.29267  Biso   1.000  O
  O29      1.0000 0.10511  0.46578  0.76179  Biso   1.000  O
  O30      1.0000 0.23609  0.42197  0.84088  Biso   1.000  O
  O31      1.0000 0.32151  0.09043  0.32818  Biso   1.000  O
  O32      1.0000 0.24409  0.07179  0.23078  Biso   1.000  O
  O33      1.0000 0.95075  0.26013  0.12964  Biso   1.000  O
  O34      1.0000 0.89851  0.19118  0.11975  Biso   1.000  O
  O35      1.0000 0.39489  0.15668  0.36067  Biso   1.000  O
  O36      1.0000 0.26391  0.10479  0.18588  Biso   1.000  O
  O37      1.0000 0.23775  0.40957  0.73108  Biso   1.000  O
  O38      1.0000 0.15899  0.42821  0.67230  Biso   1.000  O
  O39      1.0000 0.86951  0.23987  0.19062  Biso   1.000  O
  O40      1.0000 0.92857  0.30882  0.20733  Biso   1.000  O
  O41      1.0000 0.20399  0.34332  0.73821  Biso   1.000  O
  O42      1.0000 0.08109  0.39521  0.65912  Biso   1.000  O
  O43      1.0000 0.26225  0.99333  0.17182  Biso   1.000  O
  O44      1.0000 0.34101  0.01331  0.26922  Biso   1.000  O
  O45      1.0000 0.63049  0.82111  0.37036  Biso   1.000  O
  O46      1.0000 0.57143  0.77876  0.38025  Biso   1.000  O
  O47      1.0000 0.29601  0.03422  0.13933  Biso   1.000  O
  O48      1.0000 0.41891  0.07803  0.31412  Biso   1.000  O
  O49      1.0000 0.67182  0.26225  0.49333  Biso   1.000  O
  O50      1.0000 0.76922  0.34101  0.51331  Biso   1.000  O
  O51      1.0000 0.87036  0.63049  0.32111  Biso   1.000  O
  O52      1.0000 0.88025  0.57143  0.27876  Biso   1.000  O
  O53      1.0000 0.63933  0.29601  0.53422  Biso   1.000  O
  O54      1.0000 0.81412  0.41891  0.57803  Biso   1.000  O
  O55      1.0000 0.23108  0.23775  0.90957  Biso   1.000  O
  O56      1.0000 0.17230  0.15899  0.92821  Biso   1.000  O
  O57      1.0000 0.69062  0.86951  0.73987  Biso   1.000  O
  O58      1.0000 0.70733  0.92857  0.80882  Biso   1.000  O
  O59      1.0000 0.23821  0.20399  0.84332  Biso   1.000  O
  O60      1.0000 0.15912  0.08109  0.89521  Biso   1.000  O
  O61      1.0000 0.82818  0.32151  0.59043  Biso   1.000  O
  O62      1.0000 0.73078  0.24409  0.57179  Biso   1.000  O
  O63      1.0000 0.62964  0.95075  0.76013  Biso   1.000  O
  O64      1.0000 0.61975  0.89851  0.69118  Biso   1.000  O
  O65      1.0000 0.86067  0.39489  0.65668  Biso   1.000  O
  O66      1.0000 0.68588  0.26391  0.60479  Biso   1.000  O
  O67      1.0000 0.26892  0.17849  0.00667  Biso   1.000  O
  O68      1.0000 0.32770  0.25591  0.98669  Biso   1.000  O
  O69      1.0000 0.80938  0.54925  0.17889  Biso   1.000  O
  O70      1.0000 0.79267  0.60149  0.22124  Biso   1.000  O
  O71      1.0000 0.26179  0.10511  0.96578  Biso   1.000  O
  O72      1.0000 0.34088  0.23609  0.92197  Biso   1.000  O
  O73      1.0000 0.17182  0.49333  0.26225  Biso   1.000  O
  O74      1.0000 0.26922  0.51331  0.34101  Biso   1.000  O
  O75      1.0000 0.37036  0.32111  0.63049  Biso   1.000  O
  O76      1.0000 0.38025  0.27876  0.57143  Biso   1.000  O
  O77      1.0000 0.13933  0.53422  0.29601  Biso   1.000  O
  O78      1.0000 0.31412  0.57803  0.41891  Biso   1.000  O
  O79      1.0000 0.73108  0.90957  0.23775  Biso   1.000  O
  O80      1.0000 0.67230  0.92821  0.15899  Biso   1.000  O
  O81      1.0000 0.19062  0.73987  0.86951  Biso   1.000  O
  O82      1.0000 0.20733  0.80882  0.92857  Biso   1.000  O
  O83      1.0000 0.73821  0.84332  0.20399  Biso   1.000  O
  O84      1.0000 0.65912  0.89521  0.08109  Biso   1.000  O
  O85      1.0000 0.32818  0.59043  0.32151  Biso   1.000  O
  O86      1.0000 0.23078  0.57179  0.24409  Biso   1.000  O
  O87      1.0000 0.12964  0.76013  0.95075  Biso   1.000  O
  O88      1.0000 0.11975  0.69118  0.89851  Biso   1.000  O
  O89      1.0000 0.36067  0.65668  0.39489  Biso   1.000  O
  O90      1.0000 0.18588  0.60479  0.26391  Biso   1.000  O
  O91      1.0000 0.76892  0.00667  0.17849  Biso   1.000  O
  O92      1.0000 0.82770  0.98669  0.25591  Biso   1.000  O
  O93      1.0000 0.30938  0.17889  0.54925  Biso   1.000  O
  O94      1.0000 0.29267  0.22124  0.60149  Biso   1.000  O
  O95      1.0000 0.76179  0.96578  0.10511  Biso   1.000  O
  O96      1.0000 0.84088  0.92197  0.23609  Biso   1.000  O
  O97      1.0000 0.90957  0.73775  0.23108  Biso   1.000  O
  O98      1.0000 0.92821  0.65899  0.17230  Biso   1.000  O
  O99      1.0000 0.73987  0.36951  0.69062  Biso   1.000  O
  O100     1.0000 0.80882  0.42857  0.70733  Biso   1.000  O
  O101     1.0000 0.84332  0.70399  0.23821  Biso   1.000  O
  O102     1.0000 0.89521  0.58109  0.15912  Biso   1.000  O
  O103     1.0000 0.49333  0.76225  0.67182  Biso   1.000  O
  O104     1.0000 0.51331  0.84101  0.76922  Biso   1.000  O
  O105     1.0000 0.32111  0.13049  0.87036  Biso   1.000  O
  O106     1.0000 0.27876  0.07143  0.88025  Biso   1.000  O
  O107     1.0000 0.53422  0.79601  0.63933  Biso   1.000  O
  O108     1.0000 0.57803  0.91891  0.81412  Biso   1.000  O
  O109     1.0000 0.00667  0.67849  0.26892  Biso   1.000  O
  O110     1.0000 0.98669  0.75591  0.32770  Biso   1.000  O
  O111     1.0000 0.17889  0.04925  0.80938  Biso   1.000  O
  O112     1.0000 0.22124  0.10149  0.79267  Biso   1.000  O
  O113     1.0000 0.96578  0.60511  0.26179  Biso   1.000  O
  O114     1.0000 0.92197  0.73609  0.34088  Biso   1.000  O
  O115     1.0000 0.59043  0.82151  0.82818  Biso   1.000  O
  O116     1.0000 0.57179  0.74409  0.73078  Biso   1.000  O
  O117     1.0000 0.76013  0.45075  0.62964  Biso   1.000  O
  O118     1.0000 0.69118  0.39851  0.61975  Biso   1.000  O
  O119     1.0000 0.65668  0.89489  0.86067  Biso   1.000  O
  O120     1.0000 0.60479  0.76391  0.68588  Biso   1.000  O
  O121     1.0000 0.67849  0.76892  0.50667  Biso   1.000  O
  O122     1.0000 0.75591  0.82770  0.48669  Biso   1.000  O
  O123     1.0000 0.04925  0.30938  0.67889  Biso   1.000  O
  O124     1.0000 0.10149  0.29267  0.72124  Biso   1.000  O
  O125     1.0000 0.60511  0.76179  0.46578  Biso   1.000  O
  O126     1.0000 0.73609  0.84088  0.42197  Biso   1.000  O
  O127     1.0000 0.82151  0.32818  0.09043  Biso   1.000  O
  O128     1.0000 0.74409  0.23078  0.07179  Biso   1.000  O
  O129     1.0000 0.45075  0.12964  0.26013  Biso   1.000  O
  O130     1.0000 0.39851  0.11975  0.19118  Biso   1.000  O
  O131     1.0000 0.89489  0.36067  0.15668  Biso   1.000  O
  O132     1.0000 0.76391  0.18588  0.10479  Biso   1.000  O
  O133     1.0000 0.73775  0.73108  0.40957  Biso   1.000  O
  O134     1.0000 0.65899  0.67230  0.42821  Biso   1.000  O
  O135     1.0000 0.36951  0.19062  0.23987  Biso   1.000  O
  O136     1.0000 0.42857  0.20733  0.30882  Biso   1.000  O
  O137     1.0000 0.70399  0.73821  0.34332  Biso   1.000  O
  O138     1.0000 0.58109  0.65912  0.39521  Biso   1.000  O
  O139     1.0000 0.76225  0.17182  0.99333  Biso   1.000  O
  O140     1.0000 0.84101  0.26922  0.01331  Biso   1.000  O
  O141     1.0000 0.13049  0.37036  0.82111  Biso   1.000  O
  O142     1.0000 0.07143  0.38025  0.77876  Biso   1.000  O
  O143     1.0000 0.79601  0.13933  0.03422  Biso   1.000  O
  O144     1.0000 0.91891  0.31412  0.07803  Biso   1.000  O
  O145     1.0000 0.40214  0.25000  0.65214  Biso   1.000  O
  O146     1.0000 0.50862  0.25000  0.75862  Biso   1.000  O
  O147     1.0000 0.09786  0.75000  0.84786  Biso   1.000  O
  O148     1.0000 0.99138  0.75000  0.74138  Biso   1.000  O
  O149     1.0000 0.15214  0.40214  0.75000  Biso   1.000  O
  O150     1.0000 0.25862  0.50862  0.75000  Biso   1.000  O
  O151     1.0000 0.34786  0.09786  0.25000  Biso   1.000  O
  O152     1.0000 0.24138  0.99138  0.25000  Biso   1.000  O
  O153     1.0000 0.75000  0.34786  0.59786  Biso   1.000  O
  O154     1.0000 0.75000  0.24138  0.49138  Biso   1.000  O
  O155     1.0000 0.25000  0.15214  0.90214  Biso   1.000  O
  O156     1.0000 0.25000  0.25862  0.00862  Biso   1.000  O
  O157     1.0000 0.25000  0.59786  0.34786  Biso   1.000  O
  O158     1.0000 0.25000  0.49138  0.24138  Biso   1.000  O
  O159     1.0000 0.75000  0.90214  0.15214  Biso   1.000  O
  O160     1.0000 0.75000  0.00862  0.25862  Biso   1.000  O
  O161     1.0000 0.90214  0.65214  0.25000  Biso   1.000  O
  O162     1.0000 0.00862  0.75862  0.25000  Biso   1.000  O
  O163     1.0000 0.59786  0.84786  0.75000  Biso   1.000  O
  O164     1.0000 0.49138  0.74138  0.75000  Biso   1.000  O
  O165     1.0000 0.65214  0.75000  0.40214  Biso   1.000  O
  O166     1.0000 0.75862  0.75000  0.50862  Biso   1.000  O
  O167     1.0000 0.84786  0.25000  0.09786  Biso   1.000  O
  O168     1.0000 0.74138  0.25000  0.99138  Biso   1.000  O
