data_image0
_cell_length_a       40.463
_cell_length_b       40.463
_cell_length_c       15.71
_cell_angle_alpha    90
_cell_angle_beta     90
_cell_angle_gamma    120

_symmetry_space_group_name_H-M    "P 1"
_symmetry_int_tables_number       1

loop_
  _symmetry_equiv_pos_as_xyz
  'x, y, z'

loop_
  _atom_site_label
  _atom_site_occupancy
  _atom_site_fract_x
  _atom_site_fract_y
  _atom_site_fract_z
  _atom_site_thermal_displace_type
  _atom_site_B_iso_or_equiv
  _atom_site_type_symbol
  Cu1      1.0000 0.51401  0.50417  0.42055  Biso   1.000  Cu
  Cu2      1.0000 0.18701  0.36831  0.35748  Biso   1.000  Cu
  I1       1.0000 0.21158  0.32165  0.39369  Biso   1.000  I
  O1       1.0000 0.48697  0.44904  0.41543  Biso   1.000  O
  O2       1.0000 0.46290  0.44209  0.55204  Biso   1.000  O
  C1       1.0000 0.46774  0.42940  0.48010  Biso   1.000  C
  C2       1.0000 0.44925  0.38770  0.47088  Biso   1.000  C
  C3       1.0000 0.45845  0.37188  0.40275  Biso   1.000  C
  H1       1.0000 0.47640  0.38800  0.36130  Biso   1.000  H
  C4       1.0000 0.44140  0.33248  0.39521  Biso   1.000  C
  H2       1.0000 0.44770  0.32170  0.34860  Biso   1.000  H
  C5       1.0000 0.41514  0.30889  0.45581  Biso   1.000  C
  C6       1.0000 0.40594  0.32471  0.52395  Biso   1.000  C
  H3       1.0000 0.38800  0.30860  0.56540  Biso   1.000  H
  C7       1.0000 0.42299  0.36411  0.53148  Biso   1.000  C
  H4       1.0000 0.41670  0.37490  0.57800  Biso   1.000  H
  C8       1.0000 0.39795  0.26803  0.44948  Biso   1.000  C
  C9       1.0000 0.38191  0.24867  0.37402  Biso   1.000  C
  H5       1.0000 0.38260  0.26240  0.32450  Biso   1.000  H
  N1       1.0000 0.36488  0.20915  0.37107  Biso   1.000  N
  C10      1.0000 0.36390  0.18899  0.44358  Biso   1.000  C
  H6       1.0000 0.35230  0.16200  0.44160  Biso   1.000  H
  N2       1.0000 0.37995  0.20836  0.51904  Biso   1.000  N
  C11      1.0000 0.39697  0.24787  0.52200  Biso   1.000  C
  H7       1.0000 0.40790  0.26110  0.57360  Biso   1.000  H
  O3       1.0000 0.46780  0.50341  0.37646  Biso   1.000  O
  O4       1.0000 0.44450  0.49687  0.51304  Biso   1.000  O
  C12      1.0000 0.44233  0.49858  0.43040  Biso   1.000  C
  C13      1.0000 0.40571  0.49384  0.39341  Biso   1.000  C
  C14      1.0000 0.40059  0.49664  0.30676  Biso   1.000  C
  H8       1.0000 0.42140  0.50430  0.26870  Biso   1.000  H
  C15      1.0000 0.36503  0.48820  0.27586  Biso   1.000  C
  H9       1.0000 0.36150  0.49010  0.21660  Biso   1.000  H
  C16      1.0000 0.33457  0.47696  0.33161  Biso   1.000  C
  C17      1.0000 0.33969  0.47416  0.41826  Biso   1.000  C
  H10      1.0000 0.31890  0.46650  0.45640  Biso   1.000  H
  C18      1.0000 0.37525  0.48260  0.44916  Biso   1.000  C
  H11      1.0000 0.37870  0.48070  0.50840  Biso   1.000  H
  C19      1.0000 0.29561  0.46411  0.29720  Biso   1.000  C
  C20      1.0000 0.28783  0.48517  0.23891  Biso   1.000  C
  H12      1.0000 0.30810  0.50820  0.21620  Biso   1.000  H
  N3       1.0000 0.25043  0.47256  0.21391  Biso   1.000  N
  C21      1.0000 0.22082  0.43891  0.24720  Biso   1.000  C
  H13      1.0000 0.19530  0.43030  0.23010  Biso   1.000  H
  N4       1.0000 0.22861  0.41785  0.30549  Biso   1.000  N
  C22      1.0000 0.26600  0.43045  0.33049  Biso   1.000  C
  H14      1.0000 0.27130  0.41610  0.37030  Biso   1.000  H
  Cu3      1.0000 0.18068  0.83750  0.75388  Biso   1.000  Cu
  Cu4      1.0000 0.85368  0.70164  0.69081  Biso   1.000  Cu
  I2       1.0000 0.87825  0.65498  0.72702  Biso   1.000  I
  O5       1.0000 0.15364  0.78237  0.74876  Biso   1.000  O
  O6       1.0000 0.12957  0.77542  0.88537  Biso   1.000  O
  C23      1.0000 0.13441  0.76273  0.81343  Biso   1.000  C
  C24      1.0000 0.11592  0.72103  0.80421  Biso   1.000  C
  C25      1.0000 0.12512  0.70521  0.73608  Biso   1.000  C
  H15      1.0000 0.14307  0.72133  0.69463  Biso   1.000  H
  C26      1.0000 0.10807  0.66581  0.72854  Biso   1.000  C
  H16      1.0000 0.11437  0.65503  0.68193  Biso   1.000  H
  C27      1.0000 0.08181  0.64222  0.78914  Biso   1.000  C
  C28      1.0000 0.07261  0.65804  0.85728  Biso   1.000  C
  H17      1.0000 0.05467  0.64193  0.89873  Biso   1.000  H
  C29      1.0000 0.08966  0.69744  0.86481  Biso   1.000  C
  H18      1.0000 0.08337  0.70823  0.91133  Biso   1.000  H
  C30      1.0000 0.06462  0.60136  0.78281  Biso   1.000  C
  C31      1.0000 0.04858  0.58200  0.70735  Biso   1.000  C
  H19      1.0000 0.04927  0.59573  0.65783  Biso   1.000  H
  N5       1.0000 0.03155  0.54248  0.70440  Biso   1.000  N
  C32      1.0000 0.03057  0.52232  0.77691  Biso   1.000  C
  H20      1.0000 0.01897  0.49533  0.77493  Biso   1.000  H
  N6       1.0000 0.04662  0.54169  0.85237  Biso   1.000  N
  C33      1.0000 0.06364  0.58120  0.85533  Biso   1.000  C
  H21      1.0000 0.07457  0.59443  0.90693  Biso   1.000  H
  O7       1.0000 0.13447  0.83674  0.70979  Biso   1.000  O
  O8       1.0000 0.11117  0.83020  0.84637  Biso   1.000  O
  C34      1.0000 0.10900  0.83191  0.76373  Biso   1.000  C
  C35      1.0000 0.07238  0.82717  0.72674  Biso   1.000  C
  C36      1.0000 0.06726  0.82997  0.64009  Biso   1.000  C
  H22      1.0000 0.08807  0.83763  0.60203  Biso   1.000  H
  C37      1.0000 0.03170  0.82153  0.60919  Biso   1.000  C
  H23      1.0000 0.02817  0.82343  0.54993  Biso   1.000  H
  C38      1.0000 0.00124  0.81029  0.66494  Biso   1.000  C
  C39      1.0000 0.00636  0.80749  0.75159  Biso   1.000  C
  H24      1.0000 0.98557  0.79983  0.78973  Biso   1.000  H
  C40      1.0000 0.04192  0.81593  0.78249  Biso   1.000  C
  H25      1.0000 0.04537  0.81403  0.84173  Biso   1.000  H
  C41      1.0000 0.96228  0.79744  0.63053  Biso   1.000  C
  C42      1.0000 0.95450  0.81850  0.57224  Biso   1.000  C
  H26      1.0000 0.97477  0.84153  0.54953  Biso   1.000  H
  N7       1.0000 0.91710  0.80589  0.54724  Biso   1.000  N
  C43      1.0000 0.88749  0.77224  0.58053  Biso   1.000  C
  H27      1.0000 0.86197  0.76363  0.56343  Biso   1.000  H
  N8       1.0000 0.89528  0.75118  0.63882  Biso   1.000  N
  C44      1.0000 0.93267  0.76378  0.66382  Biso   1.000  C
  H28      1.0000 0.93797  0.74943  0.70363  Biso   1.000  H
  Cu5      1.0000 0.84734  0.17084  0.08722  Biso   1.000  Cu
  Cu6      1.0000 0.52034  0.03498  0.02415  Biso   1.000  Cu
  I3       1.0000 0.54491  0.98832  0.06036  Biso   1.000  I
  O9       1.0000 0.82030  0.11571  0.08210  Biso   1.000  O
  O10      1.0000 0.79623  0.10876  0.21871  Biso   1.000  O
  C45      1.0000 0.80107  0.09607  0.14677  Biso   1.000  C
  C46      1.0000 0.78258  0.05437  0.13755  Biso   1.000  C
  C47      1.0000 0.79178  0.03855  0.06942  Biso   1.000  C
  H29      1.0000 0.80973  0.05467  0.02797  Biso   1.000  H
  C48      1.0000 0.77473  0.99915  0.06188  Biso   1.000  C
  H30      1.0000 0.78103  0.98837  0.01527  Biso   1.000  H
  C49      1.0000 0.74847  0.97556  0.12248  Biso   1.000  C
  C50      1.0000 0.73927  0.99138  0.19062  Biso   1.000  C
  H31      1.0000 0.72133  0.97527  0.23207  Biso   1.000  H
  C51      1.0000 0.75632  0.03078  0.19815  Biso   1.000  C
  H32      1.0000 0.75003  0.04157  0.24467  Biso   1.000  H
  C52      1.0000 0.73128  0.93470  0.11615  Biso   1.000  C
  C53      1.0000 0.71524  0.91534  0.04069  Biso   1.000  C
  H33      1.0000 0.71593  0.92907  0.99117  Biso   1.000  H
  N9       1.0000 0.69821  0.87582  0.03774  Biso   1.000  N
  C54      1.0000 0.69723  0.85566  0.11025  Biso   1.000  C
  H34      1.0000 0.68563  0.82867  0.10827  Biso   1.000  H
  N10      1.0000 0.71328  0.87503  0.18571  Biso   1.000  N
  C55      1.0000 0.73030  0.91454  0.18867  Biso   1.000  C
  H35      1.0000 0.74123  0.92777  0.24027  Biso   1.000  H
  O11      1.0000 0.80113  0.17008  0.04313  Biso   1.000  O
  O12      1.0000 0.77783  0.16354  0.17971  Biso   1.000  O
  C56      1.0000 0.77566  0.16525  0.09707  Biso   1.000  C
  C57      1.0000 0.73904  0.16051  0.06008  Biso   1.000  C
  C58      1.0000 0.73392  0.16331  0.97343  Biso   1.000  C
  H36      1.0000 0.75473  0.17097  0.93537  Biso   1.000  H
  C59      1.0000 0.69836  0.15487  0.94253  Biso   1.000  C
  H37      1.0000 0.69483  0.15677  0.88327  Biso   1.000  H
  C60      1.0000 0.66790  0.14363  0.99828  Biso   1.000  C
  C61      1.0000 0.67302  0.14083  0.08493  Biso   1.000  C
  H38      1.0000 0.65223  0.13317  0.12307  Biso   1.000  H
  C62      1.0000 0.70858  0.14927  0.11583  Biso   1.000  C
  H39      1.0000 0.71203  0.14737  0.17507  Biso   1.000  H
  C63      1.0000 0.62894  0.13078  0.96387  Biso   1.000  C
  C64      1.0000 0.62116  0.15184  0.90558  Biso   1.000  C
  H40      1.0000 0.64143  0.17487  0.88287  Biso   1.000  H
  N11      1.0000 0.58376  0.13923  0.88058  Biso   1.000  N
  C65      1.0000 0.55415  0.10558  0.91387  Biso   1.000  C
  H41      1.0000 0.52863  0.09697  0.89677  Biso   1.000  H
  N12      1.0000 0.56194  0.08452  0.97216  Biso   1.000  N
  C66      1.0000 0.59933  0.09712  0.99716  Biso   1.000  C
  H42      1.0000 0.60463  0.08277  0.03697  Biso   1.000  H
  Cu7      1.0000 0.49583  0.00984  0.42055  Biso   1.000  Cu
  Cu8      1.0000 0.63169  0.81870  0.35748  Biso   1.000  Cu
  I4       1.0000 0.67835  0.88993  0.39369  Biso   1.000  I
  O13      1.0000 0.55096  0.03793  0.41543  Biso   1.000  O
  O14      1.0000 0.55791  0.02081  0.55204  Biso   1.000  O
  C67      1.0000 0.57060  0.03834  0.48010  Biso   1.000  C
  C68      1.0000 0.61230  0.06155  0.47088  Biso   1.000  C
  C69      1.0000 0.62812  0.08657  0.40275  Biso   1.000  C
  H43      1.0000 0.61200  0.08840  0.36130  Biso   1.000  H
  C70      1.0000 0.66752  0.10892  0.39521  Biso   1.000  C
  H44      1.0000 0.67830  0.12600  0.34860  Biso   1.000  H
  C71      1.0000 0.69111  0.10625  0.45581  Biso   1.000  C
  C72      1.0000 0.67529  0.08123  0.52395  Biso   1.000  C
  H45      1.0000 0.69140  0.07940  0.56540  Biso   1.000  H
  C73      1.0000 0.63589  0.05888  0.53148  Biso   1.000  C
  H46      1.0000 0.62510  0.04180  0.57800  Biso   1.000  H
  C74      1.0000 0.73197  0.12992  0.44948  Biso   1.000  C
  C75      1.0000 0.75133  0.13324  0.37402  Biso   1.000  C
  H47      1.0000 0.73760  0.12020  0.32450  Biso   1.000  H
  N13      1.0000 0.79085  0.15573  0.37107  Biso   1.000  N
  C76      1.0000 0.81101  0.17491  0.44358  Biso   1.000  C
  H48      1.0000 0.83800  0.19030  0.44160  Biso   1.000  H
  N14      1.0000 0.79164  0.17159  0.51904  Biso   1.000  N
  C77      1.0000 0.75213  0.14910  0.52200  Biso   1.000  C
  H49      1.0000 0.73890  0.14680  0.57360  Biso   1.000  H
  O15      1.0000 0.49659  0.96439  0.37646  Biso   1.000  O
  O16      1.0000 0.50313  0.94763  0.51304  Biso   1.000  O
  C78      1.0000 0.50142  0.94375  0.43040  Biso   1.000  C
  C79      1.0000 0.50616  0.91187  0.39341  Biso   1.000  C
  C80      1.0000 0.50336  0.90395  0.30676  Biso   1.000  C
  H50      1.0000 0.49570  0.91710  0.26870  Biso   1.000  H
  C81      1.0000 0.51180  0.87683  0.27586  Biso   1.000  C
  H51      1.0000 0.50990  0.87140  0.21660  Biso   1.000  H
  C82      1.0000 0.52304  0.85761  0.33161  Biso   1.000  C
  C83      1.0000 0.52584  0.86553  0.41826  Biso   1.000  C
  H52      1.0000 0.53350  0.85240  0.45640  Biso   1.000  H
  C84      1.0000 0.51740  0.89265  0.44916  Biso   1.000  C
  H53      1.0000 0.51930  0.89800  0.50840  Biso   1.000  H
  C85      1.0000 0.53589  0.83150  0.29720  Biso   1.000  C
  C86      1.0000 0.51483  0.80266  0.23891  Biso   1.000  C
  H54      1.0000 0.49180  0.79990  0.21620  Biso   1.000  H
  N15      1.0000 0.52744  0.77787  0.21391  Biso   1.000  N
  C87      1.0000 0.56109  0.78191  0.24720  Biso   1.000  C
  H55      1.0000 0.56970  0.76500  0.23010  Biso   1.000  H
  N16      1.0000 0.58215  0.81076  0.30549  Biso   1.000  N
  C88      1.0000 0.56955  0.83555  0.33049  Biso   1.000  C
  H56      1.0000 0.58390  0.85520  0.37030  Biso   1.000  H
  Cu9      1.0000 0.16250  0.34317  0.75388  Biso   1.000  Cu
  Cu10     1.0000 0.29836  0.15203  0.69081  Biso   1.000  Cu
  I5       1.0000 0.34502  0.22326  0.72702  Biso   1.000  I
  O17      1.0000 0.21763  0.37126  0.74876  Biso   1.000  O
  O18      1.0000 0.22458  0.35414  0.88537  Biso   1.000  O
  C89      1.0000 0.23727  0.37167  0.81343  Biso   1.000  C
  C90      1.0000 0.27897  0.39488  0.80421  Biso   1.000  C
  C91      1.0000 0.29479  0.41990  0.73608  Biso   1.000  C
  H57      1.0000 0.27867  0.42173  0.69463  Biso   1.000  H
  C92      1.0000 0.33419  0.44225  0.72854  Biso   1.000  C
  H58      1.0000 0.34497  0.45933  0.68193  Biso   1.000  H
  C93      1.0000 0.35778  0.43958  0.78914  Biso   1.000  C
  C94      1.0000 0.34196  0.41456  0.85728  Biso   1.000  C
  H59      1.0000 0.35807  0.41273  0.89873  Biso   1.000  H
  C95      1.0000 0.30256  0.39221  0.86481  Biso   1.000  C
  H60      1.0000 0.29177  0.37513  0.91133  Biso   1.000  H
  C96      1.0000 0.39864  0.46325  0.78281  Biso   1.000  C
  C97      1.0000 0.41800  0.46657  0.70735  Biso   1.000  C
  H61      1.0000 0.40427  0.45353  0.65783  Biso   1.000  H
  N17      1.0000 0.45752  0.48906  0.70440  Biso   1.000  N
  C98      1.0000 0.47768  0.50824  0.77691  Biso   1.000  C
  H62      1.0000 0.50467  0.52363  0.77493  Biso   1.000  H
  N18      1.0000 0.45831  0.50492  0.85237  Biso   1.000  N
  C99      1.0000 0.41880  0.48243  0.85533  Biso   1.000  C
  H63      1.0000 0.40557  0.48013  0.90693  Biso   1.000  H
  O19      1.0000 0.16326  0.29772  0.70979  Biso   1.000  O
  O20      1.0000 0.16980  0.28096  0.84637  Biso   1.000  O
  C100     1.0000 0.16809  0.27708  0.76373  Biso   1.000  C
  C101     1.0000 0.17283  0.24520  0.72674  Biso   1.000  C
  C102     1.0000 0.17003  0.23728  0.64009  Biso   1.000  C
  H64      1.0000 0.16237  0.25043  0.60203  Biso   1.000  H
  C103     1.0000 0.17847  0.21016  0.60919  Biso   1.000  C
  H65      1.0000 0.17657  0.20473  0.54993  Biso   1.000  H
  C104     1.0000 0.18971  0.19094  0.66494  Biso   1.000  C
  C105     1.0000 0.19251  0.19886  0.75159  Biso   1.000  C
  H66      1.0000 0.20017  0.18573  0.78973  Biso   1.000  H
  C106     1.0000 0.18407  0.22598  0.78249  Biso   1.000  C
  H67      1.0000 0.18597  0.23133  0.84173  Biso   1.000  H
  C107     1.0000 0.20256  0.16483  0.63053  Biso   1.000  C
  C108     1.0000 0.18150  0.13599  0.57224  Biso   1.000  C
  H68      1.0000 0.15847  0.13323  0.54953  Biso   1.000  H
  N19      1.0000 0.19411  0.11120  0.54724  Biso   1.000  N
  C109     1.0000 0.22776  0.11524  0.58053  Biso   1.000  C
  H69      1.0000 0.23637  0.09833  0.56343  Biso   1.000  H
  N20      1.0000 0.24882  0.14409  0.63882  Biso   1.000  N
  C110     1.0000 0.23622  0.16888  0.66382  Biso   1.000  C
  H70      1.0000 0.25057  0.18853  0.70363  Biso   1.000  H
  Cu11     1.0000 0.82916  0.67651  0.08722  Biso   1.000  Cu
  Cu12     1.0000 0.96502  0.48537  0.02415  Biso   1.000  Cu
  I6       1.0000 0.01168  0.55660  0.06036  Biso   1.000  I
  O21      1.0000 0.88429  0.70460  0.08210  Biso   1.000  O
  O22      1.0000 0.89124  0.68748  0.21871  Biso   1.000  O
  C111     1.0000 0.90393  0.70501  0.14677  Biso   1.000  C
  C112     1.0000 0.94563  0.72822  0.13755  Biso   1.000  C
  C113     1.0000 0.96145  0.75324  0.06942  Biso   1.000  C
  H71      1.0000 0.94533  0.75507  0.02797  Biso   1.000  H
  C114     1.0000 0.00085  0.77559  0.06188  Biso   1.000  C
  H72      1.0000 0.01163  0.79267  0.01527  Biso   1.000  H
  C115     1.0000 0.02444  0.77292  0.12248  Biso   1.000  C
  C116     1.0000 0.00862  0.74790  0.19062  Biso   1.000  C
  H73      1.0000 0.02473  0.74607  0.23207  Biso   1.000  H
  C117     1.0000 0.96922  0.72555  0.19815  Biso   1.000  C
  H74      1.0000 0.95843  0.70847  0.24467  Biso   1.000  H
  C118     1.0000 0.06530  0.79659  0.11615  Biso   1.000  C
  C119     1.0000 0.08466  0.79991  0.04069  Biso   1.000  C
  H75      1.0000 0.07093  0.78687  0.99117  Biso   1.000  H
  N21      1.0000 0.12418  0.82240  0.03774  Biso   1.000  N
  C120     1.0000 0.14434  0.84158  0.11025  Biso   1.000  C
  H76      1.0000 0.17133  0.85697  0.10827  Biso   1.000  H
  N22      1.0000 0.12497  0.83826  0.18571  Biso   1.000  N
  C121     1.0000 0.08546  0.81577  0.18867  Biso   1.000  C
  H77      1.0000 0.07223  0.81347  0.24027  Biso   1.000  H
  O23      1.0000 0.82992  0.63106  0.04313  Biso   1.000  O
  O24      1.0000 0.83646  0.61430  0.17971  Biso   1.000  O
  C122     1.0000 0.83475  0.61042  0.09707  Biso   1.000  C
  C123     1.0000 0.83949  0.57854  0.06008  Biso   1.000  C
  C124     1.0000 0.83669  0.57062  0.97343  Biso   1.000  C
  H78      1.0000 0.82903  0.58377  0.93537  Biso   1.000  H
  C125     1.0000 0.84513  0.54350  0.94253  Biso   1.000  C
  H79      1.0000 0.84323  0.53807  0.88327  Biso   1.000  H
  C126     1.0000 0.85637  0.52428  0.99828  Biso   1.000  C
  C127     1.0000 0.85917  0.53220  0.08493  Biso   1.000  C
  H80      1.0000 0.86683  0.51907  0.12307  Biso   1.000  H
  C128     1.0000 0.85073  0.55932  0.11583  Biso   1.000  C
  H81      1.0000 0.85263  0.56467  0.17507  Biso   1.000  H
  C129     1.0000 0.86922  0.49817  0.96387  Biso   1.000  C
  C130     1.0000 0.84816  0.46933  0.90558  Biso   1.000  C
  H82      1.0000 0.82513  0.46657  0.88287  Biso   1.000  H
  N23      1.0000 0.86077  0.44454  0.88058  Biso   1.000  N
  C131     1.0000 0.89442  0.44858  0.91387  Biso   1.000  C
  H83      1.0000 0.90303  0.43167  0.89677  Biso   1.000  H
  N24      1.0000 0.91548  0.47743  0.97216  Biso   1.000  N
  C132     1.0000 0.90288  0.50222  0.99716  Biso   1.000  C
  H84      1.0000 0.91723  0.52187  0.03697  Biso   1.000  H
  Cu13     1.0000 0.99016  0.48599  0.42055  Biso   1.000  Cu
  Cu14     1.0000 0.18130  0.81299  0.35748  Biso   1.000  Cu
  I7       1.0000 0.11007  0.78842  0.39369  Biso   1.000  I
  O25      1.0000 0.96207  0.51303  0.41543  Biso   1.000  O
  O26      1.0000 0.97919  0.53710  0.55204  Biso   1.000  O
  C133     1.0000 0.96166  0.53226  0.48010  Biso   1.000  C
  C134     1.0000 0.93845  0.55075  0.47088  Biso   1.000  C
  C135     1.0000 0.91343  0.54155  0.40275  Biso   1.000  C
  H85      1.0000 0.91160  0.52360  0.36130  Biso   1.000  H
  C136     1.0000 0.89108  0.55860  0.39521  Biso   1.000  C
  H86      1.0000 0.87400  0.55230  0.34860  Biso   1.000  H
  C137     1.0000 0.89375  0.58486  0.45581  Biso   1.000  C
  C138     1.0000 0.91877  0.59406  0.52395  Biso   1.000  C
  H87      1.0000 0.92060  0.61200  0.56540  Biso   1.000  H
  C139     1.0000 0.94112  0.57701  0.53148  Biso   1.000  C
  H88      1.0000 0.95820  0.58330  0.57800  Biso   1.000  H
  C140     1.0000 0.87008  0.60205  0.44948  Biso   1.000  C
  C141     1.0000 0.86676  0.61809  0.37402  Biso   1.000  C
  H89      1.0000 0.87980  0.61740  0.32450  Biso   1.000  H
  N25      1.0000 0.84427  0.63512  0.37107  Biso   1.000  N
  C142     1.0000 0.82509  0.63610  0.44358  Biso   1.000  C
  H90      1.0000 0.80970  0.64770  0.44160  Biso   1.000  H
  N26      1.0000 0.82841  0.62005  0.51904  Biso   1.000  N
  C143     1.0000 0.85090  0.60303  0.52200  Biso   1.000  C
  H91      1.0000 0.85320  0.59210  0.57360  Biso   1.000  H
  O27      1.0000 0.03561  0.53220  0.37646  Biso   1.000  O
  O28      1.0000 0.05237  0.55550  0.51304  Biso   1.000  O
  C144     1.0000 0.05625  0.55767  0.43040  Biso   1.000  C
  C145     1.0000 0.08813  0.59429  0.39341  Biso   1.000  C
  C146     1.0000 0.09605  0.59941  0.30676  Biso   1.000  C
  H92      1.0000 0.08290  0.57860  0.26870  Biso   1.000  H
  C147     1.0000 0.12317  0.63497  0.27586  Biso   1.000  C
  H93      1.0000 0.12860  0.63850  0.21660  Biso   1.000  H
  C148     1.0000 0.14239  0.66543  0.33161  Biso   1.000  C
  C149     1.0000 0.13447  0.66031  0.41826  Biso   1.000  C
  H94      1.0000 0.14760  0.68110  0.45640  Biso   1.000  H
  C150     1.0000 0.10735  0.62475  0.44916  Biso   1.000  C
  H95      1.0000 0.10200  0.62130  0.50840  Biso   1.000  H
  C151     1.0000 0.16850  0.70439  0.29720  Biso   1.000  C
  C152     1.0000 0.19734  0.71217  0.23891  Biso   1.000  C
  H96      1.0000 0.20010  0.69190  0.21620  Biso   1.000  H
  N27      1.0000 0.22213  0.74957  0.21391  Biso   1.000  N
  C153     1.0000 0.21809  0.77918  0.24720  Biso   1.000  C
  H97      1.0000 0.23500  0.80470  0.23010  Biso   1.000  H
  N28      1.0000 0.18924  0.77139  0.30549  Biso   1.000  N
  C154     1.0000 0.16445  0.73400  0.33049  Biso   1.000  C
  H98      1.0000 0.14480  0.72870  0.37030  Biso   1.000  H
  Cu15     1.0000 0.65683  0.81932  0.75388  Biso   1.000  Cu
  Cu16     1.0000 0.84797  0.14632  0.69081  Biso   1.000  Cu
  I8       1.0000 0.77674  0.12175  0.72702  Biso   1.000  I
  O29      1.0000 0.62874  0.84636  0.74876  Biso   1.000  O
  O30      1.0000 0.64586  0.87043  0.88537  Biso   1.000  O
  C155     1.0000 0.62833  0.86559  0.81343  Biso   1.000  C
  C156     1.0000 0.60512  0.88408  0.80421  Biso   1.000  C
  C157     1.0000 0.58010  0.87488  0.73608  Biso   1.000  C
  H99      1.0000 0.57827  0.85693  0.69463  Biso   1.000  H
  C158     1.0000 0.55775  0.89193  0.72854  Biso   1.000  C
  H100     1.0000 0.54067  0.88563  0.68193  Biso   1.000  H
  C159     1.0000 0.56042  0.91819  0.78914  Biso   1.000  C
  C160     1.0000 0.58544  0.92739  0.85728  Biso   1.000  C
  H101     1.0000 0.58727  0.94533  0.89873  Biso   1.000  H
  C161     1.0000 0.60779  0.91034  0.86481  Biso   1.000  C
  H102     1.0000 0.62487  0.91663  0.91133  Biso   1.000  H
  C162     1.0000 0.53675  0.93538  0.78281  Biso   1.000  C
  C163     1.0000 0.53343  0.95142  0.70735  Biso   1.000  C
  H103     1.0000 0.54647  0.95073  0.65783  Biso   1.000  H
  N29      1.0000 0.51094  0.96845  0.70440  Biso   1.000  N
  C164     1.0000 0.49176  0.96943  0.77691  Biso   1.000  C
  H104     1.0000 0.47637  0.98103  0.77493  Biso   1.000  H
  N30      1.0000 0.49508  0.95338  0.85237  Biso   1.000  N
  C165     1.0000 0.51757  0.93636  0.85533  Biso   1.000  C
  H105     1.0000 0.51987  0.92543  0.90693  Biso   1.000  H
  O31      1.0000 0.70228  0.86553  0.70979  Biso   1.000  O
  O32      1.0000 0.71904  0.88883  0.84637  Biso   1.000  O
  C166     1.0000 0.72292  0.89100  0.76373  Biso   1.000  C
  C167     1.0000 0.75480  0.92762  0.72674  Biso   1.000  C
  C168     1.0000 0.76272  0.93274  0.64009  Biso   1.000  C
  H106     1.0000 0.74957  0.91193  0.60203  Biso   1.000  H
  C169     1.0000 0.78984  0.96830  0.60919  Biso   1.000  C
  H107     1.0000 0.79527  0.97183  0.54993  Biso   1.000  H
  C170     1.0000 0.80906  0.99876  0.66494  Biso   1.000  C
  C171     1.0000 0.80114  0.99364  0.75159  Biso   1.000  C
  H108     1.0000 0.81427  0.01443  0.78973  Biso   1.000  H
  C172     1.0000 0.77402  0.95808  0.78249  Biso   1.000  C
  H109     1.0000 0.76867  0.95463  0.84173  Biso   1.000  H
  C173     1.0000 0.83517  0.03772  0.63053  Biso   1.000  C
  C174     1.0000 0.86401  0.04550  0.57224  Biso   1.000  C
  H110     1.0000 0.86677  0.02523  0.54953  Biso   1.000  H
  N31      1.0000 0.88880  0.08290  0.54724  Biso   1.000  N
  C175     1.0000 0.88476  0.11251  0.58053  Biso   1.000  C
  H111     1.0000 0.90167  0.13803  0.56343  Biso   1.000  H
  N32      1.0000 0.85591  0.10472  0.63882  Biso   1.000  N
  C176     1.0000 0.83112  0.06733  0.66382  Biso   1.000  C
  H112     1.0000 0.81147  0.06203  0.70363  Biso   1.000  H
  Cu17     1.0000 0.32349  0.15266  0.08722  Biso   1.000  Cu
  Cu18     1.0000 0.51463  0.47966  0.02415  Biso   1.000  Cu
  I9       1.0000 0.44340  0.45509  0.06036  Biso   1.000  I
  O33      1.0000 0.29540  0.17970  0.08210  Biso   1.000  O
  O34      1.0000 0.31252  0.20377  0.21871  Biso   1.000  O
  C177     1.0000 0.29499  0.19893  0.14677  Biso   1.000  C
  C178     1.0000 0.27178  0.21742  0.13755  Biso   1.000  C
  C179     1.0000 0.24676  0.20822  0.06942  Biso   1.000  C
  H113     1.0000 0.24493  0.19027  0.02797  Biso   1.000  H
  C180     1.0000 0.22441  0.22527  0.06188  Biso   1.000  C
  H114     1.0000 0.20733  0.21897  0.01527  Biso   1.000  H
  C181     1.0000 0.22708  0.25153  0.12248  Biso   1.000  C
  C182     1.0000 0.25210  0.26073  0.19062  Biso   1.000  C
  H115     1.0000 0.25393  0.27867  0.23207  Biso   1.000  H
  C183     1.0000 0.27445  0.24368  0.19815  Biso   1.000  C
  H116     1.0000 0.29153  0.24997  0.24467  Biso   1.000  H
  C184     1.0000 0.20341  0.26872  0.11615  Biso   1.000  C
  C185     1.0000 0.20009  0.28476  0.04069  Biso   1.000  C
  H117     1.0000 0.21313  0.28407  0.99117  Biso   1.000  H
  N33      1.0000 0.17760  0.30179  0.03774  Biso   1.000  N
  C186     1.0000 0.15842  0.30277  0.11025  Biso   1.000  C
  H118     1.0000 0.14303  0.31437  0.10827  Biso   1.000  H
  N34      1.0000 0.16174  0.28672  0.18571  Biso   1.000  N
  C187     1.0000 0.18423  0.26970  0.18867  Biso   1.000  C
  H119     1.0000 0.18653  0.25877  0.24027  Biso   1.000  H
  O35      1.0000 0.36894  0.19887  0.04313  Biso   1.000  O
  O36      1.0000 0.38570  0.22217  0.17971  Biso   1.000  O
  C188     1.0000 0.38958  0.22434  0.09707  Biso   1.000  C
  C189     1.0000 0.42146  0.26096  0.06008  Biso   1.000  C
  C190     1.0000 0.42938  0.26608  0.97343  Biso   1.000  C
  H120     1.0000 0.41623  0.24527  0.93537  Biso   1.000  H
  C191     1.0000 0.45650  0.30164  0.94253  Biso   1.000  C
  H121     1.0000 0.46193  0.30517  0.88327  Biso   1.000  H
  C192     1.0000 0.47572  0.33210  0.99828  Biso   1.000  C
  C193     1.0000 0.46780  0.32698  0.08493  Biso   1.000  C
  H122     1.0000 0.48093  0.34777  0.12307  Biso   1.000  H
  C194     1.0000 0.44068  0.29142  0.11583  Biso   1.000  C
  H123     1.0000 0.43533  0.28797  0.17507  Biso   1.000  H
  C195     1.0000 0.50183  0.37106  0.96387  Biso   1.000  C
  C196     1.0000 0.53067  0.37884  0.90558  Biso   1.000  C
  H124     1.0000 0.53343  0.35857  0.88287  Biso   1.000  H
  N35      1.0000 0.55546  0.41624  0.88058  Biso   1.000  N
  C197     1.0000 0.55142  0.44585  0.91387  Biso   1.000  C
  H125     1.0000 0.56833  0.47137  0.89677  Biso   1.000  H
  N36      1.0000 0.52257  0.43806  0.97216  Biso   1.000  N
  C198     1.0000 0.49778  0.40067  0.99716  Biso   1.000  C
  H126     1.0000 0.47813  0.39537  0.03697  Biso   1.000  H
  Cu19     1.0000 0.48599  0.49583  0.57945  Biso   1.000  Cu
  Cu20     1.0000 0.81299  0.63169  0.64252  Biso   1.000  Cu
  I10      1.0000 0.78842  0.67835  0.60631  Biso   1.000  I
  O37      1.0000 0.51303  0.55096  0.58457  Biso   1.000  O
  O38      1.0000 0.53710  0.55791  0.44796  Biso   1.000  O
  C199     1.0000 0.53226  0.57060  0.51990  Biso   1.000  C
  C200     1.0000 0.55075  0.61230  0.52912  Biso   1.000  C
  C201     1.0000 0.54155  0.62812  0.59725  Biso   1.000  C
  H127     1.0000 0.52360  0.61200  0.63870  Biso   1.000  H
  C202     1.0000 0.55860  0.66752  0.60479  Biso   1.000  C
  H128     1.0000 0.55230  0.67830  0.65140  Biso   1.000  H
  C203     1.0000 0.58486  0.69111  0.54419  Biso   1.000  C
  C204     1.0000 0.59406  0.67529  0.47605  Biso   1.000  C
  H129     1.0000 0.61200  0.69140  0.43460  Biso   1.000  H
  C205     1.0000 0.57701  0.63589  0.46852  Biso   1.000  C
  H130     1.0000 0.58330  0.62510  0.42200  Biso   1.000  H
  C206     1.0000 0.60205  0.73197  0.55052  Biso   1.000  C
  C207     1.0000 0.61809  0.75133  0.62598  Biso   1.000  C
  H131     1.0000 0.61740  0.73760  0.67550  Biso   1.000  H
  N37      1.0000 0.63512  0.79085  0.62893  Biso   1.000  N
  C208     1.0000 0.63610  0.81101  0.55642  Biso   1.000  C
  H132     1.0000 0.64770  0.83800  0.55840  Biso   1.000  H
  N38      1.0000 0.62005  0.79164  0.48096  Biso   1.000  N
  C209     1.0000 0.60303  0.75213  0.47800  Biso   1.000  C
  H133     1.0000 0.59210  0.73890  0.42640  Biso   1.000  H
  O39      1.0000 0.53220  0.49659  0.62354  Biso   1.000  O
  O40      1.0000 0.55550  0.50313  0.48696  Biso   1.000  O
  C210     1.0000 0.55767  0.50142  0.56960  Biso   1.000  C
  C211     1.0000 0.59429  0.50616  0.60659  Biso   1.000  C
  C212     1.0000 0.59941  0.50336  0.69324  Biso   1.000  C
  H134     1.0000 0.57860  0.49570  0.73130  Biso   1.000  H
  C213     1.0000 0.63497  0.51180  0.72414  Biso   1.000  C
  H135     1.0000 0.63850  0.50990  0.78340  Biso   1.000  H
  C214     1.0000 0.66543  0.52304  0.66839  Biso   1.000  C
  C215     1.0000 0.66031  0.52584  0.58174  Biso   1.000  C
  H136     1.0000 0.68110  0.53350  0.54360  Biso   1.000  H
  C216     1.0000 0.62475  0.51740  0.55084  Biso   1.000  C
  H137     1.0000 0.62130  0.51930  0.49160  Biso   1.000  H
  C217     1.0000 0.70439  0.53589  0.70280  Biso   1.000  C
  C218     1.0000 0.71217  0.51483  0.76109  Biso   1.000  C
  H138     1.0000 0.69190  0.49180  0.78380  Biso   1.000  H
  N39      1.0000 0.74957  0.52744  0.78609  Biso   1.000  N
  C219     1.0000 0.77918  0.56109  0.75280  Biso   1.000  C
  H139     1.0000 0.80470  0.56970  0.76990  Biso   1.000  H
  N40      1.0000 0.77139  0.58215  0.69451  Biso   1.000  N
  C220     1.0000 0.73400  0.56955  0.66951  Biso   1.000  C
  H140     1.0000 0.72870  0.58390  0.62970  Biso   1.000  H
  Cu21     1.0000 0.15266  0.82916  0.91278  Biso   1.000  Cu
  Cu22     1.0000 0.47966  0.96502  0.97585  Biso   1.000  Cu
  I11      1.0000 0.45509  0.01168  0.93964  Biso   1.000  I
  O41      1.0000 0.17970  0.88429  0.91790  Biso   1.000  O
  O42      1.0000 0.20377  0.89124  0.78129  Biso   1.000  O
  C221     1.0000 0.19893  0.90393  0.85323  Biso   1.000  C
  C222     1.0000 0.21742  0.94563  0.86245  Biso   1.000  C
  C223     1.0000 0.20822  0.96145  0.93058  Biso   1.000  C
  H141     1.0000 0.19027  0.94533  0.97203  Biso   1.000  H
  C224     1.0000 0.22527  0.00085  0.93812  Biso   1.000  C
  H142     1.0000 0.21897  0.01163  0.98473  Biso   1.000  H
  C225     1.0000 0.25153  0.02444  0.87752  Biso   1.000  C
  C226     1.0000 0.26073  0.00862  0.80938  Biso   1.000  C
  H143     1.0000 0.27867  0.02473  0.76793  Biso   1.000  H
  C227     1.0000 0.24368  0.96922  0.80185  Biso   1.000  C
  H144     1.0000 0.24997  0.95843  0.75533  Biso   1.000  H
  C228     1.0000 0.26872  0.06530  0.88385  Biso   1.000  C
  C229     1.0000 0.28476  0.08466  0.95931  Biso   1.000  C
  H145     1.0000 0.28407  0.07093  0.00883  Biso   1.000  H
  N41      1.0000 0.30179  0.12418  0.96226  Biso   1.000  N
  C230     1.0000 0.30277  0.14434  0.88975  Biso   1.000  C
  H146     1.0000 0.31437  0.17133  0.89173  Biso   1.000  H
  N42      1.0000 0.28672  0.12497  0.81429  Biso   1.000  N
  C231     1.0000 0.26970  0.08546  0.81133  Biso   1.000  C
  H147     1.0000 0.25877  0.07223  0.75973  Biso   1.000  H
  O43      1.0000 0.19887  0.82992  0.95687  Biso   1.000  O
  O44      1.0000 0.22217  0.83646  0.82029  Biso   1.000  O
  C232     1.0000 0.22434  0.83475  0.90293  Biso   1.000  C
  C233     1.0000 0.26096  0.83949  0.93992  Biso   1.000  C
  C234     1.0000 0.26608  0.83669  0.02657  Biso   1.000  C
  H148     1.0000 0.24527  0.82903  0.06463  Biso   1.000  H
  C235     1.0000 0.30164  0.84513  0.05747  Biso   1.000  C
  H149     1.0000 0.30517  0.84323  0.11673  Biso   1.000  H
  C236     1.0000 0.33210  0.85637  0.00172  Biso   1.000  C
  C237     1.0000 0.32698  0.85917  0.91507  Biso   1.000  C
  H150     1.0000 0.34777  0.86683  0.87693  Biso   1.000  H
  C238     1.0000 0.29142  0.85073  0.88417  Biso   1.000  C
  H151     1.0000 0.28797  0.85263  0.82493  Biso   1.000  H
  C239     1.0000 0.37106  0.86922  0.03613  Biso   1.000  C
  C240     1.0000 0.37884  0.84816  0.09442  Biso   1.000  C
  H152     1.0000 0.35857  0.82513  0.11713  Biso   1.000  H
  N43      1.0000 0.41624  0.86077  0.11942  Biso   1.000  N
  C241     1.0000 0.44585  0.89442  0.08613  Biso   1.000  C
  H153     1.0000 0.47137  0.90303  0.10323  Biso   1.000  H
  N44      1.0000 0.43806  0.91548  0.02784  Biso   1.000  N
  C242     1.0000 0.40067  0.90288  0.00284  Biso   1.000  C
  H154     1.0000 0.39537  0.91723  0.96303  Biso   1.000  H
  Cu23     1.0000 0.81932  0.16250  0.24612  Biso   1.000  Cu
  Cu24     1.0000 0.14632  0.29836  0.30919  Biso   1.000  Cu
  I12      1.0000 0.12175  0.34502  0.27298  Biso   1.000  I
  O45      1.0000 0.84636  0.21763  0.25124  Biso   1.000  O
  O46      1.0000 0.87043  0.22458  0.11463  Biso   1.000  O
  C243     1.0000 0.86559  0.23727  0.18657  Biso   1.000  C
  C244     1.0000 0.88408  0.27897  0.19579  Biso   1.000  C
  C245     1.0000 0.87488  0.29479  0.26392  Biso   1.000  C
  H155     1.0000 0.85693  0.27867  0.30537  Biso   1.000  H
  C246     1.0000 0.89193  0.33419  0.27146  Biso   1.000  C
  H156     1.0000 0.88563  0.34497  0.31807  Biso   1.000  H
  C247     1.0000 0.91819  0.35778  0.21086  Biso   1.000  C
  C248     1.0000 0.92739  0.34196  0.14272  Biso   1.000  C
  H157     1.0000 0.94533  0.35807  0.10127  Biso   1.000  H
  C249     1.0000 0.91034  0.30256  0.13519  Biso   1.000  C
  H158     1.0000 0.91663  0.29177  0.08867  Biso   1.000  H
  C250     1.0000 0.93538  0.39864  0.21719  Biso   1.000  C
  C251     1.0000 0.95142  0.41800  0.29265  Biso   1.000  C
  H159     1.0000 0.95073  0.40427  0.34217  Biso   1.000  H
  N45      1.0000 0.96845  0.45752  0.29560  Biso   1.000  N
  C252     1.0000 0.96943  0.47768  0.22309  Biso   1.000  C
  H160     1.0000 0.98103  0.50467  0.22507  Biso   1.000  H
  N46      1.0000 0.95338  0.45831  0.14763  Biso   1.000  N
  C253     1.0000 0.93636  0.41880  0.14467  Biso   1.000  C
  H161     1.0000 0.92543  0.40557  0.09307  Biso   1.000  H
  O47      1.0000 0.86553  0.16326  0.29021  Biso   1.000  O
  O48      1.0000 0.88883  0.16980  0.15363  Biso   1.000  O
  C254     1.0000 0.89100  0.16809  0.23627  Biso   1.000  C
  C255     1.0000 0.92762  0.17283  0.27326  Biso   1.000  C
  C256     1.0000 0.93274  0.17003  0.35991  Biso   1.000  C
  H162     1.0000 0.91193  0.16237  0.39797  Biso   1.000  H
  C257     1.0000 0.96830  0.17847  0.39081  Biso   1.000  C
  H163     1.0000 0.97183  0.17657  0.45007  Biso   1.000  H
  C258     1.0000 0.99876  0.18971  0.33506  Biso   1.000  C
  C259     1.0000 0.99364  0.19251  0.24841  Biso   1.000  C
  H164     1.0000 0.01443  0.20017  0.21027  Biso   1.000  H
  C260     1.0000 0.95808  0.18407  0.21751  Biso   1.000  C
  H165     1.0000 0.95463  0.18597  0.15827  Biso   1.000  H
  C261     1.0000 0.03772  0.20256  0.36947  Biso   1.000  C
  C262     1.0000 0.04550  0.18150  0.42776  Biso   1.000  C
  H166     1.0000 0.02523  0.15847  0.45047  Biso   1.000  H
  N47      1.0000 0.08290  0.19411  0.45276  Biso   1.000  N
  C263     1.0000 0.11251  0.22776  0.41947  Biso   1.000  C
  H167     1.0000 0.13803  0.23637  0.43657  Biso   1.000  H
  N48      1.0000 0.10472  0.24882  0.36118  Biso   1.000  N
  C264     1.0000 0.06733  0.23622  0.33618  Biso   1.000  C
  H168     1.0000 0.06203  0.25057  0.29637  Biso   1.000  H
  Cu25     1.0000 0.50417  0.99016  0.57945  Biso   1.000  Cu
  Cu26     1.0000 0.36831  0.18130  0.64252  Biso   1.000  Cu
  I13      1.0000 0.32165  0.11007  0.60631  Biso   1.000  I
  O49      1.0000 0.44904  0.96207  0.58457  Biso   1.000  O
  O50      1.0000 0.44209  0.97919  0.44796  Biso   1.000  O
  C265     1.0000 0.42940  0.96166  0.51990  Biso   1.000  C
  C266     1.0000 0.38770  0.93845  0.52912  Biso   1.000  C
  C267     1.0000 0.37188  0.91343  0.59725  Biso   1.000  C
  H169     1.0000 0.38800  0.91160  0.63870  Biso   1.000  H
  C268     1.0000 0.33248  0.89108  0.60479  Biso   1.000  C
  H170     1.0000 0.32170  0.87400  0.65140  Biso   1.000  H
  C269     1.0000 0.30889  0.89375  0.54419  Biso   1.000  C
  C270     1.0000 0.32471  0.91877  0.47605  Biso   1.000  C
  H171     1.0000 0.30860  0.92060  0.43460  Biso   1.000  H
  C271     1.0000 0.36411  0.94112  0.46852  Biso   1.000  C
  H172     1.0000 0.37490  0.95820  0.42200  Biso   1.000  H
  C272     1.0000 0.26803  0.87008  0.55052  Biso   1.000  C
  C273     1.0000 0.24867  0.86676  0.62598  Biso   1.000  C
  H173     1.0000 0.26240  0.87980  0.67550  Biso   1.000  H
  N49      1.0000 0.20915  0.84427  0.62893  Biso   1.000  N
  C274     1.0000 0.18899  0.82509  0.55642  Biso   1.000  C
  H174     1.0000 0.16200  0.80970  0.55840  Biso   1.000  H
  N50      1.0000 0.20836  0.82841  0.48096  Biso   1.000  N
  C275     1.0000 0.24787  0.85090  0.47800  Biso   1.000  C
  H175     1.0000 0.26110  0.85320  0.42640  Biso   1.000  H
  O51      1.0000 0.50341  0.03561  0.62354  Biso   1.000  O
  O52      1.0000 0.49687  0.05237  0.48696  Biso   1.000  O
  C276     1.0000 0.49858  0.05625  0.56960  Biso   1.000  C
  C277     1.0000 0.49384  0.08813  0.60659  Biso   1.000  C
  C278     1.0000 0.49664  0.09605  0.69324  Biso   1.000  C
  H176     1.0000 0.50430  0.08290  0.73130  Biso   1.000  H
  C279     1.0000 0.48820  0.12317  0.72414  Biso   1.000  C
  H177     1.0000 0.49010  0.12860  0.78340  Biso   1.000  H
  C280     1.0000 0.47696  0.14239  0.66839  Biso   1.000  C
  C281     1.0000 0.47416  0.13447  0.58174  Biso   1.000  C
  H178     1.0000 0.46650  0.14760  0.54360  Biso   1.000  H
  C282     1.0000 0.48260  0.10735  0.55084  Biso   1.000  C
  H179     1.0000 0.48070  0.10200  0.49160  Biso   1.000  H
  C283     1.0000 0.46411  0.16850  0.70280  Biso   1.000  C
  C284     1.0000 0.48517  0.19734  0.76109  Biso   1.000  C
  H180     1.0000 0.50820  0.20010  0.78380  Biso   1.000  H
  N51      1.0000 0.47256  0.22213  0.78609  Biso   1.000  N
  C285     1.0000 0.43891  0.21809  0.75280  Biso   1.000  C
  H181     1.0000 0.43030  0.23500  0.76990  Biso   1.000  H
  N52      1.0000 0.41785  0.18924  0.69451  Biso   1.000  N
  C286     1.0000 0.43045  0.16445  0.66951  Biso   1.000  C
  H182     1.0000 0.41610  0.14480  0.62970  Biso   1.000  H
  Cu27     1.0000 0.17084  0.32349  0.91278  Biso   1.000  Cu
  Cu28     1.0000 0.03498  0.51463  0.97585  Biso   1.000  Cu
  I14      1.0000 0.98832  0.44340  0.93964  Biso   1.000  I
  O53      1.0000 0.11571  0.29540  0.91790  Biso   1.000  O
  O54      1.0000 0.10876  0.31252  0.78129  Biso   1.000  O
  C287     1.0000 0.09607  0.29499  0.85323  Biso   1.000  C
  C288     1.0000 0.05437  0.27178  0.86245  Biso   1.000  C
  C289     1.0000 0.03855  0.24676  0.93058  Biso   1.000  C
  H183     1.0000 0.05467  0.24493  0.97203  Biso   1.000  H
  C290     1.0000 0.99915  0.22441  0.93812  Biso   1.000  C
  H184     1.0000 0.98837  0.20733  0.98473  Biso   1.000  H
  C291     1.0000 0.97556  0.22708  0.87752  Biso   1.000  C
  C292     1.0000 0.99138  0.25210  0.80938  Biso   1.000  C
  H185     1.0000 0.97527  0.25393  0.76793  Biso   1.000  H
  C293     1.0000 0.03078  0.27445  0.80185  Biso   1.000  C
  H186     1.0000 0.04157  0.29153  0.75533  Biso   1.000  H
  C294     1.0000 0.93470  0.20341  0.88385  Biso   1.000  C
  C295     1.0000 0.91534  0.20009  0.95931  Biso   1.000  C
  H187     1.0000 0.92907  0.21313  0.00883  Biso   1.000  H
  N53      1.0000 0.87582  0.17760  0.96226  Biso   1.000  N
  C296     1.0000 0.85566  0.15842  0.88975  Biso   1.000  C
  H188     1.0000 0.82867  0.14303  0.89173  Biso   1.000  H
  N54      1.0000 0.87503  0.16174  0.81429  Biso   1.000  N
  C297     1.0000 0.91454  0.18423  0.81133  Biso   1.000  C
  H189     1.0000 0.92777  0.18653  0.75973  Biso   1.000  H
  O55      1.0000 0.17008  0.36894  0.95687  Biso   1.000  O
  O56      1.0000 0.16354  0.38570  0.82029  Biso   1.000  O
  C298     1.0000 0.16525  0.38958  0.90293  Biso   1.000  C
  C299     1.0000 0.16051  0.42146  0.93992  Biso   1.000  C
  C300     1.0000 0.16331  0.42938  0.02657  Biso   1.000  C
  H190     1.0000 0.17097  0.41623  0.06463  Biso   1.000  H
  C301     1.0000 0.15487  0.45650  0.05747  Biso   1.000  C
  H191     1.0000 0.15677  0.46193  0.11673  Biso   1.000  H
  C302     1.0000 0.14363  0.47572  0.00172  Biso   1.000  C
  C303     1.0000 0.14083  0.46780  0.91507  Biso   1.000  C
  H192     1.0000 0.13317  0.48093  0.87693  Biso   1.000  H
  C304     1.0000 0.14927  0.44068  0.88417  Biso   1.000  C
  H193     1.0000 0.14737  0.43533  0.82493  Biso   1.000  H
  C305     1.0000 0.13078  0.50183  0.03613  Biso   1.000  C
  C306     1.0000 0.15184  0.53067  0.09442  Biso   1.000  C
  H194     1.0000 0.17487  0.53343  0.11713  Biso   1.000  H
  N55      1.0000 0.13923  0.55546  0.11942  Biso   1.000  N
  C307     1.0000 0.10558  0.55142  0.08613  Biso   1.000  C
  H195     1.0000 0.09697  0.56833  0.10323  Biso   1.000  H
  N56      1.0000 0.08452  0.52257  0.02784  Biso   1.000  N
  C308     1.0000 0.09712  0.49778  0.00284  Biso   1.000  C
  H196     1.0000 0.08277  0.47813  0.96303  Biso   1.000  H
  Cu29     1.0000 0.83750  0.65683  0.24612  Biso   1.000  Cu
  Cu30     1.0000 0.70164  0.84797  0.30919  Biso   1.000  Cu
  I15      1.0000 0.65498  0.77674  0.27298  Biso   1.000  I
  O57      1.0000 0.78237  0.62874  0.25124  Biso   1.000  O
  O58      1.0000 0.77542  0.64586  0.11463  Biso   1.000  O
  C309     1.0000 0.76273  0.62833  0.18657  Biso   1.000  C
  C310     1.0000 0.72103  0.60512  0.19579  Biso   1.000  C
  C311     1.0000 0.70521  0.58010  0.26392  Biso   1.000  C
  H197     1.0000 0.72133  0.57827  0.30537  Biso   1.000  H
  C312     1.0000 0.66581  0.55775  0.27146  Biso   1.000  C
  H198     1.0000 0.65503  0.54067  0.31807  Biso   1.000  H
  C313     1.0000 0.64222  0.56042  0.21086  Biso   1.000  C
  C314     1.0000 0.65804  0.58544  0.14272  Biso   1.000  C
  H199     1.0000 0.64193  0.58727  0.10127  Biso   1.000  H
  C315     1.0000 0.69744  0.60779  0.13519  Biso   1.000  C
  H200     1.0000 0.70823  0.62487  0.08867  Biso   1.000  H
  C316     1.0000 0.60136  0.53675  0.21719  Biso   1.000  C
  C317     1.0000 0.58200  0.53343  0.29265  Biso   1.000  C
  H201     1.0000 0.59573  0.54647  0.34217  Biso   1.000  H
  N57      1.0000 0.54248  0.51094  0.29560  Biso   1.000  N
  C318     1.0000 0.52232  0.49176  0.22309  Biso   1.000  C
  H202     1.0000 0.49533  0.47637  0.22507  Biso   1.000  H
  N58      1.0000 0.54169  0.49508  0.14763  Biso   1.000  N
  C319     1.0000 0.58120  0.51757  0.14467  Biso   1.000  C
  H203     1.0000 0.59443  0.51987  0.09307  Biso   1.000  H
  O59      1.0000 0.83674  0.70228  0.29021  Biso   1.000  O
  O60      1.0000 0.83020  0.71904  0.15363  Biso   1.000  O
  C320     1.0000 0.83191  0.72292  0.23627  Biso   1.000  C
  C321     1.0000 0.82717  0.75480  0.27326  Biso   1.000  C
  C322     1.0000 0.82997  0.76272  0.35991  Biso   1.000  C
  H204     1.0000 0.83763  0.74957  0.39797  Biso   1.000  H
  C323     1.0000 0.82153  0.78984  0.39081  Biso   1.000  C
  H205     1.0000 0.82343  0.79527  0.45007  Biso   1.000  H
  C324     1.0000 0.81029  0.80906  0.33506  Biso   1.000  C
  C325     1.0000 0.80749  0.80114  0.24841  Biso   1.000  C
  H206     1.0000 0.79983  0.81427  0.21027  Biso   1.000  H
  C326     1.0000 0.81593  0.77402  0.21751  Biso   1.000  C
  H207     1.0000 0.81403  0.76867  0.15827  Biso   1.000  H
  C327     1.0000 0.79744  0.83517  0.36947  Biso   1.000  C
  C328     1.0000 0.81850  0.86401  0.42776  Biso   1.000  C
  H208     1.0000 0.84153  0.86677  0.45047  Biso   1.000  H
  N59      1.0000 0.80589  0.88880  0.45276  Biso   1.000  N
  C329     1.0000 0.77224  0.88476  0.41947  Biso   1.000  C
  H209     1.0000 0.76363  0.90167  0.43657  Biso   1.000  H
  N60      1.0000 0.75118  0.85591  0.36118  Biso   1.000  N
  C330     1.0000 0.76378  0.83112  0.33618  Biso   1.000  C
  H210     1.0000 0.74943  0.81147  0.29637  Biso   1.000  H
  Cu31     1.0000 0.00984  0.51401  0.57945  Biso   1.000  Cu
  Cu32     1.0000 0.81870  0.18701  0.64252  Biso   1.000  Cu
  I16      1.0000 0.88993  0.21158  0.60631  Biso   1.000  I
  O61      1.0000 0.03793  0.48697  0.58457  Biso   1.000  O
  O62      1.0000 0.02081  0.46290  0.44796  Biso   1.000  O
  C331     1.0000 0.03834  0.46774  0.51990  Biso   1.000  C
  C332     1.0000 0.06155  0.44925  0.52912  Biso   1.000  C
  C333     1.0000 0.08657  0.45845  0.59725  Biso   1.000  C
  H211     1.0000 0.08840  0.47640  0.63870  Biso   1.000  H
  C334     1.0000 0.10892  0.44140  0.60479  Biso   1.000  C
  H212     1.0000 0.12600  0.44770  0.65140  Biso   1.000  H
  C335     1.0000 0.10625  0.41514  0.54419  Biso   1.000  C
  C336     1.0000 0.08123  0.40594  0.47605  Biso   1.000  C
  H213     1.0000 0.07940  0.38800  0.43460  Biso   1.000  H
  C337     1.0000 0.05888  0.42299  0.46852  Biso   1.000  C
  H214     1.0000 0.04180  0.41670  0.42200  Biso   1.000  H
  C338     1.0000 0.12992  0.39795  0.55052  Biso   1.000  C
  C339     1.0000 0.13324  0.38191  0.62598  Biso   1.000  C
  H215     1.0000 0.12020  0.38260  0.67550  Biso   1.000  H
  N61      1.0000 0.15573  0.36488  0.62893  Biso   1.000  N
  C340     1.0000 0.17491  0.36390  0.55642  Biso   1.000  C
  H216     1.0000 0.19030  0.35230  0.55840  Biso   1.000  H
  N62      1.0000 0.17159  0.37995  0.48096  Biso   1.000  N
  C341     1.0000 0.14910  0.39697  0.47800  Biso   1.000  C
  H217     1.0000 0.14680  0.40790  0.42640  Biso   1.000  H
  O63      1.0000 0.96439  0.46780  0.62354  Biso   1.000  O
  O64      1.0000 0.94763  0.44450  0.48696  Biso   1.000  O
  C342     1.0000 0.94375  0.44233  0.56960  Biso   1.000  C
  C343     1.0000 0.91187  0.40571  0.60659  Biso   1.000  C
  C344     1.0000 0.90395  0.40059  0.69324  Biso   1.000  C
  H218     1.0000 0.91710  0.42140  0.73130  Biso   1.000  H
  C345     1.0000 0.87683  0.36503  0.72414  Biso   1.000  C
  H219     1.0000 0.87140  0.36150  0.78340  Biso   1.000  H
  C346     1.0000 0.85761  0.33457  0.66839  Biso   1.000  C
  C347     1.0000 0.86553  0.33969  0.58174  Biso   1.000  C
  H220     1.0000 0.85240  0.31890  0.54360  Biso   1.000  H
  C348     1.0000 0.89265  0.37525  0.55084  Biso   1.000  C
  H221     1.0000 0.89800  0.37870  0.49160  Biso   1.000  H
  C349     1.0000 0.83150  0.29561  0.70280  Biso   1.000  C
  C350     1.0000 0.80266  0.28783  0.76109  Biso   1.000  C
  H222     1.0000 0.79990  0.30810  0.78380  Biso   1.000  H
  N63      1.0000 0.77787  0.25043  0.78609  Biso   1.000  N
  C351     1.0000 0.78191  0.22082  0.75280  Biso   1.000  C
  H223     1.0000 0.76500  0.19530  0.76990  Biso   1.000  H
  N64      1.0000 0.81076  0.22861  0.69451  Biso   1.000  N
  C352     1.0000 0.83555  0.26600  0.66951  Biso   1.000  C
  H224     1.0000 0.85520  0.27130  0.62970  Biso   1.000  H
  Cu33     1.0000 0.67651  0.84734  0.91278  Biso   1.000  Cu
  Cu34     1.0000 0.48537  0.52034  0.97585  Biso   1.000  Cu
  I17      1.0000 0.55660  0.54491  0.93964  Biso   1.000  I
  O65      1.0000 0.70460  0.82030  0.91790  Biso   1.000  O
  O66      1.0000 0.68748  0.79623  0.78129  Biso   1.000  O
  C353     1.0000 0.70501  0.80107  0.85323  Biso   1.000  C
  C354     1.0000 0.72822  0.78258  0.86245  Biso   1.000  C
  C355     1.0000 0.75324  0.79178  0.93058  Biso   1.000  C
  H225     1.0000 0.75507  0.80973  0.97203  Biso   1.000  H
  C356     1.0000 0.77559  0.77473  0.93812  Biso   1.000  C
  H226     1.0000 0.79267  0.78103  0.98473  Biso   1.000  H
  C357     1.0000 0.77292  0.74847  0.87752  Biso   1.000  C
  C358     1.0000 0.74790  0.73927  0.80938  Biso   1.000  C
  H227     1.0000 0.74607  0.72133  0.76793  Biso   1.000  H
  C359     1.0000 0.72555  0.75632  0.80185  Biso   1.000  C
  H228     1.0000 0.70847  0.75003  0.75533  Biso   1.000  H
  C360     1.0000 0.79659  0.73128  0.88385  Biso   1.000  C
  C361     1.0000 0.79991  0.71524  0.95931  Biso   1.000  C
  H229     1.0000 0.78687  0.71593  0.00883  Biso   1.000  H
  N65      1.0000 0.82240  0.69821  0.96226  Biso   1.000  N
  C362     1.0000 0.84158  0.69723  0.88975  Biso   1.000  C
  H230     1.0000 0.85697  0.68563  0.89173  Biso   1.000  H
  N66      1.0000 0.83826  0.71328  0.81429  Biso   1.000  N
  C363     1.0000 0.81577  0.73030  0.81133  Biso   1.000  C
  H231     1.0000 0.81347  0.74123  0.75973  Biso   1.000  H
  O67      1.0000 0.63106  0.80113  0.95687  Biso   1.000  O
  O68      1.0000 0.61430  0.77783  0.82029  Biso   1.000  O
  C364     1.0000 0.61042  0.77566  0.90293  Biso   1.000  C
  C365     1.0000 0.57854  0.73904  0.93992  Biso   1.000  C
  C366     1.0000 0.57062  0.73392  0.02657  Biso   1.000  C
  H232     1.0000 0.58377  0.75473  0.06463  Biso   1.000  H
  C367     1.0000 0.54350  0.69836  0.05747  Biso   1.000  C
  H233     1.0000 0.53807  0.69483  0.11673  Biso   1.000  H
  C368     1.0000 0.52428  0.66790  0.00172  Biso   1.000  C
  C369     1.0000 0.53220  0.67302  0.91507  Biso   1.000  C
  H234     1.0000 0.51907  0.65223  0.87693  Biso   1.000  H
  C370     1.0000 0.55932  0.70858  0.88417  Biso   1.000  C
  H235     1.0000 0.56467  0.71203  0.82493  Biso   1.000  H
  C371     1.0000 0.49817  0.62894  0.03613  Biso   1.000  C
  C372     1.0000 0.46933  0.62116  0.09442  Biso   1.000  C
  H236     1.0000 0.46657  0.64143  0.11713  Biso   1.000  H
  N67      1.0000 0.44454  0.58376  0.11942  Biso   1.000  N
  C373     1.0000 0.44858  0.55415  0.08613  Biso   1.000  C
  H237     1.0000 0.43167  0.52863  0.10323  Biso   1.000  H
  N68      1.0000 0.47743  0.56194  0.02784  Biso   1.000  N
  C374     1.0000 0.50222  0.59933  0.00284  Biso   1.000  C
  H238     1.0000 0.52187  0.60463  0.96303  Biso   1.000  H
  Cu35     1.0000 0.34317  0.18068  0.24612  Biso   1.000  Cu
  Cu36     1.0000 0.15203  0.85368  0.30919  Biso   1.000  Cu
  I18      1.0000 0.22326  0.87825  0.27298  Biso   1.000  I
  O69      1.0000 0.37126  0.15364  0.25124  Biso   1.000  O
  O70      1.0000 0.35414  0.12957  0.11463  Biso   1.000  O
  C375     1.0000 0.37167  0.13441  0.18657  Biso   1.000  C
  C376     1.0000 0.39488  0.11592  0.19579  Biso   1.000  C
  C377     1.0000 0.41990  0.12512  0.26392  Biso   1.000  C
  H239     1.0000 0.42173  0.14307  0.30537  Biso   1.000  H
  C378     1.0000 0.44225  0.10807  0.27146  Biso   1.000  C
  H240     1.0000 0.45933  0.11437  0.31807  Biso   1.000  H
  C379     1.0000 0.43958  0.08181  0.21086  Biso   1.000  C
  C380     1.0000 0.41456  0.07261  0.14272  Biso   1.000  C
  H241     1.0000 0.41273  0.05467  0.10127  Biso   1.000  H
  C381     1.0000 0.39221  0.08966  0.13519  Biso   1.000  C
  H242     1.0000 0.37513  0.08337  0.08867  Biso   1.000  H
  C382     1.0000 0.46325  0.06462  0.21719  Biso   1.000  C
  C383     1.0000 0.46657  0.04858  0.29265  Biso   1.000  C
  H243     1.0000 0.45353  0.04927  0.34217  Biso   1.000  H
  N69      1.0000 0.48906  0.03155  0.29560  Biso   1.000  N
  C384     1.0000 0.50824  0.03057  0.22309  Biso   1.000  C
  H244     1.0000 0.52363  0.01897  0.22507  Biso   1.000  H
  N70      1.0000 0.50492  0.04662  0.14763  Biso   1.000  N
  C385     1.0000 0.48243  0.06364  0.14467  Biso   1.000  C
  H245     1.0000 0.48013  0.07457  0.09307  Biso   1.000  H
  O71      1.0000 0.29772  0.13447  0.29021  Biso   1.000  O
  O72      1.0000 0.28096  0.11117  0.15363  Biso   1.000  O
  C386     1.0000 0.27708  0.10900  0.23627  Biso   1.000  C
  C387     1.0000 0.24520  0.07238  0.27326  Biso   1.000  C
  C388     1.0000 0.23728  0.06726  0.35991  Biso   1.000  C
  H246     1.0000 0.25043  0.08807  0.39797  Biso   1.000  H
  C389     1.0000 0.21016  0.03170  0.39081  Biso   1.000  C
  H247     1.0000 0.20473  0.02817  0.45007  Biso   1.000  H
  C390     1.0000 0.19094  0.00124  0.33506  Biso   1.000  C
  C391     1.0000 0.19886  0.00636  0.24841  Biso   1.000  C
  H248     1.0000 0.18573  0.98557  0.21027  Biso   1.000  H
  C392     1.0000 0.22598  0.04192  0.21751  Biso   1.000  C
  H249     1.0000 0.23133  0.04537  0.15827  Biso   1.000  H
  C393     1.0000 0.16483  0.96228  0.36947  Biso   1.000  C
  C394     1.0000 0.13599  0.95450  0.42776  Biso   1.000  C
  H250     1.0000 0.13323  0.97477  0.45047  Biso   1.000  H
  N71      1.0000 0.11120  0.91710  0.45276  Biso   1.000  N
  C395     1.0000 0.11524  0.88749  0.41947  Biso   1.000  C
  H251     1.0000 0.09833  0.86197  0.43657  Biso   1.000  H
  N72      1.0000 0.14409  0.89528  0.36118  Biso   1.000  N
  C396     1.0000 0.16888  0.93267  0.33618  Biso   1.000  C
  H252     1.0000 0.18853  0.93797  0.29637  Biso   1.000  H
