data_image0
_cell_length_a       32.614
_cell_length_b       18.976
_cell_length_c       17.57
_cell_angle_alpha    90
_cell_angle_beta     103.206
_cell_angle_gamma    90

_symmetry_space_group_name_H-M    "P 1"
_symmetry_int_tables_number       1

loop_
  _symmetry_equiv_pos_as_xyz
  'x, y, z'

loop_
  _atom_site_label
  _atom_site_occupancy
  _atom_site_fract_x
  _atom_site_fract_y
  _atom_site_fract_z
  _atom_site_thermal_displace_type
  _atom_site_B_iso_or_equiv
  _atom_site_type_symbol
  Co1      1.0000 0.90100  0.35351  0.95937  Biso   1.000  Co
  O1       1.0000 0.93209  0.41033  0.06067  Biso   1.000  O
  O2       1.0000 0.94863  0.29915  0.05032  Biso   1.000  O
  O3       1.0000 0.85624  0.31929  0.01908  Biso   1.000  O
  O4       1.0000 0.81899  0.40483  0.05890  Biso   1.000  O
  N1       1.0000 0.86058  0.43039  0.89754  Biso   1.000  N
  N2       1.0000 0.82208  0.52525  0.86495  Biso   1.000  N
  N3       1.0000 0.84992  0.16669  0.84810  Biso   1.000  N
  N4       1.0000 0.88097  0.26878  0.88180  Biso   1.000  N
  N5       1.0000 0.51179  0.89904  0.87649  Biso   1.000  N
  N6       1.0000 0.44878  0.88412  0.90088  Biso   1.000  N
  C1       1.0000 0.95101  0.35538  0.08910  Biso   1.000  C
  C2       1.0000 0.97641  0.35695  0.17210  Biso   1.000  C
  C3       1.0000 0.95553  0.35821  0.23340  Biso   1.000  C
  C4       1.0000 0.91051  0.36066  0.21940  Biso   1.000  C
  H1       1.0000 0.89410  0.36190  0.16730  Biso   1.000  H
  C5       1.0000 0.89124  0.36130  0.28020  Biso   1.000  C
  H2       1.0000 0.86140  0.36220  0.27020  Biso   1.000  H
  C6       1.0000 0.91503  0.36060  0.35830  Biso   1.000  C
  H3       1.0000 0.90100  0.36110  0.40010  Biso   1.000  H
  C7       1.0000 0.04235  0.35910  0.12590  Biso   1.000  C
  H4       1.0000 0.02680  0.35920  0.07310  Biso   1.000  H
  C8       1.0000 0.02053  0.35741  0.18760  Biso   1.000  C
  C9       1.0000 0.82310  0.34531  0.03328  Biso   1.000  C
  C10      1.0000 0.78511  0.29613  0.01647  Biso   1.000  C
  C11      1.0000 0.75689  0.29829  0.94370  Biso   1.000  C
  C12      1.0000 0.76296  0.34486  0.88320  Biso   1.000  C
  H5       1.0000 0.78640  0.37590  0.89330  Biso   1.000  H
  C13      1.0000 0.73626  0.34580  0.81240  Biso   1.000  C
  H6       1.0000 0.74140  0.37660  0.77300  Biso   1.000  H
  C14      1.0000 0.70044  0.30080  0.79610  Biso   1.000  C
  H7       1.0000 0.68170  0.30190  0.74600  Biso   1.000  H
  C15      1.0000 0.80705  0.24340  0.14850  Biso   1.000  C
  H8       1.0000 0.83150  0.27210  0.15970  Biso   1.000  H
  C16      1.0000 0.77889  0.24788  0.07310  Biso   1.000  C
  C17      1.0000 0.84434  0.43013  0.81810  Biso   1.000  C
  H9       1.0000 0.84910  0.39440  0.78310  Biso   1.000  H
  C18      1.0000 0.82068  0.48817  0.79730  Biso   1.000  C
  H10      1.0000 0.80600  0.50090  0.74600  Biso   1.000  H
  C19      1.0000 0.84666  0.48842  0.92368  Biso   1.000  C
  H11      1.0000 0.85310  0.50260  0.97700  Biso   1.000  H
  C20      1.0000 0.80275  0.59226  0.86980  Biso   1.000  C
  C21      1.0000 0.76665  0.61034  0.81370  Biso   1.000  C
  H12      1.0000 0.75430  0.57790  0.77390  Biso   1.000  H
  C22      1.0000 0.74925  0.67631  0.81710  Biso   1.000  C
  H13      1.0000 0.72480  0.68910  0.77870  Biso   1.000  H
  C23      1.0000 0.76644  0.72418  0.87490  Biso   1.000  C
  C24      1.0000 0.80239  0.70497  0.93067  Biso   1.000  C
  H14      1.0000 0.81460  0.73710  0.97090  Biso   1.000  H
  C25      1.0000 0.82037  0.63925  0.92767  Biso   1.000  C
  H15      1.0000 0.84500  0.62660  0.96570  Biso   1.000  H
  C26      1.0000 0.74733  0.79486  0.87760  Biso   1.000  C
  C27      1.0000 0.70432  0.80153  0.87264  Biso   1.000  C
  H16      1.0000 0.68710  0.76060  0.86620  Biso   1.000  H
  C28      1.0000 0.68621  0.86750  0.87694  Biso   1.000  C
  C29      1.0000 0.71191  0.92673  0.88271  Biso   1.000  C
  H17      1.0000 0.70010  0.97190  0.88670  Biso   1.000  H
  C30      1.0000 0.75463  0.92158  0.88285  Biso   1.000  C
  C31      1.0000 0.77224  0.85462  0.88370  Biso   1.000  C
  H18      1.0000 0.80170  0.84990  0.88850  Biso   1.000  H
  C32      1.0000 0.77979  0.98527  0.87561  Biso   1.000  C
  C33      1.0000 0.81448  0.98133  0.84120  Biso   1.000  C
  H19      1.0000 0.82230  0.93680  0.82430  Biso   1.000  H
  C34      1.0000 0.83774  0.04055  0.83100  Biso   1.000  C
  H20      1.0000 0.86130  0.03660  0.80800  Biso   1.000  H
  C35      1.0000 0.82597  0.10529  0.85500  Biso   1.000  C
  C36      1.0000 0.79136  0.11104  0.88800  Biso   1.000  C
  H21      1.0000 0.78320  0.15590  0.90330  Biso   1.000  H
  C37      1.0000 0.76867  0.05166  0.89860  Biso   1.000  C
  H22      1.0000 0.74520  0.05610  0.92200  Biso   1.000  H
  C38      1.0000 0.87354  0.18165  0.79380  Biso   1.000  C
  H23      1.0000 0.87620  0.15350  0.75040  Biso   1.000  H
  C39      1.0000 0.89203  0.24429  0.81520  Biso   1.000  C
  H24      1.0000 0.91010  0.26820  0.78830  Biso   1.000  H
  C40      1.0000 0.85567  0.22081  0.89910  Biso   1.000  C
  H25      1.0000 0.84290  0.22380  0.94250  Biso   1.000  H
  C41      1.0000 0.64051  0.87463  0.87468  Biso   1.000  C
  C42      1.0000 0.62034  0.93933  0.86220  Biso   1.000  C
  H26      1.0000 0.63600  0.97950  0.85320  Biso   1.000  H
  C43      1.0000 0.57842  0.94719  0.86230  Biso   1.000  C
  H27      1.0000 0.56560  0.99230  0.85360  Biso   1.000  H
  C44      1.0000 0.55502  0.88938  0.87510  Biso   1.000  C
  C45      1.0000 0.57401  0.82395  0.88730  Biso   1.000  C
  H28      1.0000 0.55810  0.78390  0.89570  Biso   1.000  H
  C46      1.0000 0.61604  0.81680  0.88730  Biso   1.000  C
  H29      1.0000 0.62880  0.77160  0.89600  Biso   1.000  H
  C47      1.0000 0.48853  0.95840  0.85110  Biso   1.000  C
  H30      1.0000 0.49760  0.99880  0.82750  Biso   1.000  H
  C48      1.0000 0.45041  0.94810  0.86600  Biso   1.000  C
  H31      1.0000 0.42770  0.98070  0.85410  Biso   1.000  H
  C49      1.0000 0.48629  0.85586  0.90510  Biso   1.000  C
  H32      1.0000 0.49430  0.81040  0.92590  Biso   1.000  H
  Co2      1.0000 0.40100  0.85351  0.95937  Biso   1.000  Co
  O5       1.0000 0.43209  0.91033  0.06067  Biso   1.000  O
  O6       1.0000 0.44863  0.79915  0.05032  Biso   1.000  O
  O7       1.0000 0.35624  0.81929  0.01908  Biso   1.000  O
  O8       1.0000 0.31899  0.90483  0.05890  Biso   1.000  O
  N7       1.0000 0.36058  0.93039  0.89754  Biso   1.000  N
  N8       1.0000 0.32208  0.02525  0.86495  Biso   1.000  N
  N9       1.0000 0.34992  0.66669  0.84810  Biso   1.000  N
  N10      1.0000 0.38097  0.76878  0.88180  Biso   1.000  N
  N11      1.0000 0.01179  0.39904  0.87649  Biso   1.000  N
  N12      1.0000 0.94878  0.38412  0.90088  Biso   1.000  N
  C50      1.0000 0.45101  0.85538  0.08910  Biso   1.000  C
  C51      1.0000 0.47641  0.85695  0.17210  Biso   1.000  C
  C52      1.0000 0.45553  0.85821  0.23340  Biso   1.000  C
  C53      1.0000 0.41051  0.86066  0.21940  Biso   1.000  C
  H33      1.0000 0.39410  0.86190  0.16730  Biso   1.000  H
  C54      1.0000 0.39124  0.86130  0.28020  Biso   1.000  C
  H34      1.0000 0.36140  0.86220  0.27020  Biso   1.000  H
  C55      1.0000 0.41503  0.86060  0.35830  Biso   1.000  C
  H35      1.0000 0.40100  0.86110  0.40010  Biso   1.000  H
  C56      1.0000 0.54235  0.85910  0.12590  Biso   1.000  C
  H36      1.0000 0.52680  0.85920  0.07310  Biso   1.000  H
  C57      1.0000 0.52053  0.85741  0.18760  Biso   1.000  C
  C58      1.0000 0.32310  0.84531  0.03328  Biso   1.000  C
  C59      1.0000 0.28511  0.79613  0.01647  Biso   1.000  C
  C60      1.0000 0.25689  0.79829  0.94370  Biso   1.000  C
  C61      1.0000 0.26296  0.84486  0.88320  Biso   1.000  C
  H37      1.0000 0.28640  0.87590  0.89330  Biso   1.000  H
  C62      1.0000 0.23626  0.84580  0.81240  Biso   1.000  C
  H38      1.0000 0.24140  0.87660  0.77300  Biso   1.000  H
  C63      1.0000 0.20044  0.80080  0.79610  Biso   1.000  C
  H39      1.0000 0.18170  0.80190  0.74600  Biso   1.000  H
  C64      1.0000 0.30705  0.74340  0.14850  Biso   1.000  C
  H40      1.0000 0.33150  0.77210  0.15970  Biso   1.000  H
  C65      1.0000 0.27889  0.74788  0.07310  Biso   1.000  C
  C66      1.0000 0.34434  0.93013  0.81810  Biso   1.000  C
  H41      1.0000 0.34910  0.89440  0.78310  Biso   1.000  H
  C67      1.0000 0.32068  0.98817  0.79730  Biso   1.000  C
  H42      1.0000 0.30600  0.00090  0.74600  Biso   1.000  H
  C68      1.0000 0.34666  0.98842  0.92368  Biso   1.000  C
  H43      1.0000 0.35310  0.00260  0.97700  Biso   1.000  H
  C69      1.0000 0.30275  0.09226  0.86980  Biso   1.000  C
  C70      1.0000 0.26665  0.11034  0.81370  Biso   1.000  C
  H44      1.0000 0.25430  0.07790  0.77390  Biso   1.000  H
  C71      1.0000 0.24925  0.17631  0.81710  Biso   1.000  C
  H45      1.0000 0.22480  0.18910  0.77870  Biso   1.000  H
  C72      1.0000 0.26644  0.22418  0.87490  Biso   1.000  C
  C73      1.0000 0.30239  0.20497  0.93067  Biso   1.000  C
  H46      1.0000 0.31460  0.23710  0.97090  Biso   1.000  H
  C74      1.0000 0.32037  0.13925  0.92767  Biso   1.000  C
  H47      1.0000 0.34500  0.12660  0.96570  Biso   1.000  H
  C75      1.0000 0.24733  0.29486  0.87760  Biso   1.000  C
  C76      1.0000 0.20432  0.30153  0.87264  Biso   1.000  C
  H48      1.0000 0.18710  0.26060  0.86620  Biso   1.000  H
  C77      1.0000 0.18621  0.36750  0.87694  Biso   1.000  C
  C78      1.0000 0.21191  0.42673  0.88271  Biso   1.000  C
  H49      1.0000 0.20010  0.47190  0.88670  Biso   1.000  H
  C79      1.0000 0.25463  0.42158  0.88285  Biso   1.000  C
  C80      1.0000 0.27224  0.35462  0.88370  Biso   1.000  C
  H50      1.0000 0.30170  0.34990  0.88850  Biso   1.000  H
  C81      1.0000 0.27979  0.48527  0.87561  Biso   1.000  C
  C82      1.0000 0.31448  0.48133  0.84120  Biso   1.000  C
  H51      1.0000 0.32230  0.43680  0.82430  Biso   1.000  H
  C83      1.0000 0.33774  0.54055  0.83100  Biso   1.000  C
  H52      1.0000 0.36130  0.53660  0.80800  Biso   1.000  H
  C84      1.0000 0.32597  0.60529  0.85500  Biso   1.000  C
  C85      1.0000 0.29136  0.61104  0.88800  Biso   1.000  C
  H53      1.0000 0.28320  0.65590  0.90330  Biso   1.000  H
  C86      1.0000 0.26867  0.55166  0.89860  Biso   1.000  C
  H54      1.0000 0.24520  0.55610  0.92200  Biso   1.000  H
  C87      1.0000 0.37354  0.68165  0.79380  Biso   1.000  C
  H55      1.0000 0.37620  0.65350  0.75040  Biso   1.000  H
  C88      1.0000 0.39203  0.74429  0.81520  Biso   1.000  C
  H56      1.0000 0.41010  0.76820  0.78830  Biso   1.000  H
  C89      1.0000 0.35567  0.72081  0.89910  Biso   1.000  C
  H57      1.0000 0.34290  0.72380  0.94250  Biso   1.000  H
  C90      1.0000 0.14051  0.37463  0.87468  Biso   1.000  C
  C91      1.0000 0.12034  0.43933  0.86220  Biso   1.000  C
  H58      1.0000 0.13600  0.47950  0.85320  Biso   1.000  H
  C92      1.0000 0.07842  0.44719  0.86230  Biso   1.000  C
  H59      1.0000 0.06560  0.49230  0.85360  Biso   1.000  H
  C93      1.0000 0.05502  0.38938  0.87510  Biso   1.000  C
  C94      1.0000 0.07401  0.32395  0.88730  Biso   1.000  C
  H60      1.0000 0.05810  0.28390  0.89570  Biso   1.000  H
  C95      1.0000 0.11604  0.31680  0.88730  Biso   1.000  C
  H61      1.0000 0.12880  0.27160  0.89600  Biso   1.000  H
  C96      1.0000 0.98853  0.45840  0.85110  Biso   1.000  C
  H62      1.0000 0.99760  0.49880  0.82750  Biso   1.000  H
  C97      1.0000 0.95041  0.44810  0.86600  Biso   1.000  C
  H63      1.0000 0.92770  0.48070  0.85410  Biso   1.000  H
  C98      1.0000 0.98629  0.35586  0.90510  Biso   1.000  C
  H64      1.0000 0.99430  0.31040  0.92590  Biso   1.000  H
  Co3      1.0000 0.09900  0.35351  0.54063  Biso   1.000  Co
  O9       1.0000 0.06791  0.41033  0.43933  Biso   1.000  O
  O10      1.0000 0.05137  0.29915  0.44968  Biso   1.000  O
  O11      1.0000 0.14376  0.31929  0.48092  Biso   1.000  O
  O12      1.0000 0.18101  0.40483  0.44110  Biso   1.000  O
  N13      1.0000 0.13942  0.43039  0.60246  Biso   1.000  N
  N14      1.0000 0.17792  0.52525  0.63505  Biso   1.000  N
  N15      1.0000 0.15008  0.16669  0.65190  Biso   1.000  N
  N16      1.0000 0.11903  0.26878  0.61820  Biso   1.000  N
  N17      1.0000 0.48821  0.89904  0.62351  Biso   1.000  N
  N18      1.0000 0.55122  0.88412  0.59912  Biso   1.000  N
  C99      1.0000 0.04899  0.35538  0.41090  Biso   1.000  C
  C100     1.0000 0.02359  0.35695  0.32790  Biso   1.000  C
  C101     1.0000 0.04447  0.35821  0.26660  Biso   1.000  C
  C102     1.0000 0.08949  0.36066  0.28060  Biso   1.000  C
  H65      1.0000 0.10590  0.36190  0.33270  Biso   1.000  H
  C103     1.0000 0.10876  0.36130  0.21980  Biso   1.000  C
  H66      1.0000 0.13860  0.36220  0.22980  Biso   1.000  H
  C104     1.0000 0.08497  0.36060  0.14170  Biso   1.000  C
  H67      1.0000 0.09900  0.36110  0.09990  Biso   1.000  H
  C105     1.0000 0.95765  0.35910  0.37410  Biso   1.000  C
  H68      1.0000 0.97320  0.35920  0.42690  Biso   1.000  H
  C106     1.0000 0.97947  0.35741  0.31240  Biso   1.000  C
  C107     1.0000 0.17690  0.34531  0.46672  Biso   1.000  C
  C108     1.0000 0.21489  0.29613  0.48353  Biso   1.000  C
  C109     1.0000 0.24311  0.29829  0.55630  Biso   1.000  C
  C110     1.0000 0.23704  0.34486  0.61680  Biso   1.000  C
  H69      1.0000 0.21360  0.37590  0.60670  Biso   1.000  H
  C111     1.0000 0.26374  0.34580  0.68760  Biso   1.000  C
  H70      1.0000 0.25860  0.37660  0.72700  Biso   1.000  H
  C112     1.0000 0.29956  0.30080  0.70390  Biso   1.000  C
  H71      1.0000 0.31830  0.30190  0.75400  Biso   1.000  H
  C113     1.0000 0.19295  0.24340  0.35150  Biso   1.000  C
  H72      1.0000 0.16850  0.27210  0.34030  Biso   1.000  H
  C114     1.0000 0.22111  0.24788  0.42690  Biso   1.000  C
  C115     1.0000 0.15566  0.43013  0.68190  Biso   1.000  C
  H73      1.0000 0.15090  0.39440  0.71690  Biso   1.000  H
  C116     1.0000 0.17932  0.48817  0.70270  Biso   1.000  C
  H74      1.0000 0.19400  0.50090  0.75400  Biso   1.000  H
  C117     1.0000 0.15334  0.48842  0.57632  Biso   1.000  C
  H75      1.0000 0.14690  0.50260  0.52300  Biso   1.000  H
  C118     1.0000 0.19725  0.59226  0.63020  Biso   1.000  C
  C119     1.0000 0.23335  0.61034  0.68630  Biso   1.000  C
  H76      1.0000 0.24570  0.57790  0.72610  Biso   1.000  H
  C120     1.0000 0.25075  0.67631  0.68290  Biso   1.000  C
  H77      1.0000 0.27520  0.68910  0.72130  Biso   1.000  H
  C121     1.0000 0.23356  0.72418  0.62510  Biso   1.000  C
  C122     1.0000 0.19761  0.70497  0.56933  Biso   1.000  C
  H78      1.0000 0.18540  0.73710  0.52910  Biso   1.000  H
  C123     1.0000 0.17963  0.63925  0.57233  Biso   1.000  C
  H79      1.0000 0.15500  0.62660  0.53430  Biso   1.000  H
  C124     1.0000 0.25267  0.79486  0.62240  Biso   1.000  C
  C125     1.0000 0.29568  0.80153  0.62736  Biso   1.000  C
  H80      1.0000 0.31290  0.76060  0.63380  Biso   1.000  H
  C126     1.0000 0.31379  0.86750  0.62306  Biso   1.000  C
  C127     1.0000 0.28809  0.92673  0.61729  Biso   1.000  C
  H81      1.0000 0.29990  0.97190  0.61330  Biso   1.000  H
  C128     1.0000 0.24537  0.92158  0.61715  Biso   1.000  C
  C129     1.0000 0.22776  0.85462  0.61630  Biso   1.000  C
  H82      1.0000 0.19830  0.84990  0.61150  Biso   1.000  H
  C130     1.0000 0.22021  0.98527  0.62439  Biso   1.000  C
  C131     1.0000 0.18552  0.98133  0.65880  Biso   1.000  C
  H83      1.0000 0.17770  0.93680  0.67570  Biso   1.000  H
  C132     1.0000 0.16226  0.04055  0.66900  Biso   1.000  C
  H84      1.0000 0.13870  0.03660  0.69200  Biso   1.000  H
  C133     1.0000 0.17403  0.10529  0.64500  Biso   1.000  C
  C134     1.0000 0.20864  0.11104  0.61200  Biso   1.000  C
  H85      1.0000 0.21680  0.15590  0.59670  Biso   1.000  H
  C135     1.0000 0.23133  0.05166  0.60140  Biso   1.000  C
  H86      1.0000 0.25480  0.05610  0.57800  Biso   1.000  H
  C136     1.0000 0.12646  0.18165  0.70620  Biso   1.000  C
  H87      1.0000 0.12380  0.15350  0.74960  Biso   1.000  H
  C137     1.0000 0.10797  0.24429  0.68480  Biso   1.000  C
  H88      1.0000 0.08990  0.26820  0.71170  Biso   1.000  H
  C138     1.0000 0.14433  0.22081  0.60090  Biso   1.000  C
  H89      1.0000 0.15710  0.22380  0.55750  Biso   1.000  H
  C139     1.0000 0.35949  0.87463  0.62532  Biso   1.000  C
  C140     1.0000 0.37966  0.93933  0.63780  Biso   1.000  C
  H90      1.0000 0.36400  0.97950  0.64680  Biso   1.000  H
  C141     1.0000 0.42158  0.94719  0.63770  Biso   1.000  C
  H91      1.0000 0.43440  0.99230  0.64640  Biso   1.000  H
  C142     1.0000 0.44498  0.88938  0.62490  Biso   1.000  C
  C143     1.0000 0.42599  0.82395  0.61270  Biso   1.000  C
  H92      1.0000 0.44190  0.78390  0.60430  Biso   1.000  H
  C144     1.0000 0.38396  0.81680  0.61270  Biso   1.000  C
  H93      1.0000 0.37120  0.77160  0.60400  Biso   1.000  H
  C145     1.0000 0.51147  0.95840  0.64890  Biso   1.000  C
  H94      1.0000 0.50240  0.99880  0.67250  Biso   1.000  H
  C146     1.0000 0.54959  0.94810  0.63400  Biso   1.000  C
  H95      1.0000 0.57230  0.98070  0.64590  Biso   1.000  H
  C147     1.0000 0.51371  0.85586  0.59490  Biso   1.000  C
  H96      1.0000 0.50570  0.81040  0.57410  Biso   1.000  H
  Co4      1.0000 0.59900  0.85351  0.54063  Biso   1.000  Co
  O13      1.0000 0.56791  0.91033  0.43933  Biso   1.000  O
  O14      1.0000 0.55137  0.79915  0.44968  Biso   1.000  O
  O15      1.0000 0.64376  0.81929  0.48092  Biso   1.000  O
  O16      1.0000 0.68101  0.90483  0.44110  Biso   1.000  O
  N19      1.0000 0.63942  0.93039  0.60246  Biso   1.000  N
  N20      1.0000 0.67792  0.02525  0.63505  Biso   1.000  N
  N21      1.0000 0.65008  0.66669  0.65190  Biso   1.000  N
  N22      1.0000 0.61903  0.76878  0.61820  Biso   1.000  N
  N23      1.0000 0.98821  0.39904  0.62351  Biso   1.000  N
  N24      1.0000 0.05122  0.38412  0.59912  Biso   1.000  N
  C148     1.0000 0.54899  0.85538  0.41090  Biso   1.000  C
  C149     1.0000 0.52359  0.85695  0.32790  Biso   1.000  C
  C150     1.0000 0.54447  0.85821  0.26660  Biso   1.000  C
  C151     1.0000 0.58949  0.86066  0.28060  Biso   1.000  C
  H97      1.0000 0.60590  0.86190  0.33270  Biso   1.000  H
  C152     1.0000 0.60876  0.86130  0.21980  Biso   1.000  C
  H98      1.0000 0.63860  0.86220  0.22980  Biso   1.000  H
  C153     1.0000 0.58497  0.86060  0.14170  Biso   1.000  C
  H99      1.0000 0.59900  0.86110  0.09990  Biso   1.000  H
  C154     1.0000 0.45765  0.85910  0.37410  Biso   1.000  C
  H100     1.0000 0.47320  0.85920  0.42690  Biso   1.000  H
  C155     1.0000 0.47947  0.85741  0.31240  Biso   1.000  C
  C156     1.0000 0.67690  0.84531  0.46672  Biso   1.000  C
  C157     1.0000 0.71489  0.79613  0.48353  Biso   1.000  C
  C158     1.0000 0.74311  0.79829  0.55630  Biso   1.000  C
  C159     1.0000 0.73704  0.84486  0.61680  Biso   1.000  C
  H101     1.0000 0.71360  0.87590  0.60670  Biso   1.000  H
  C160     1.0000 0.76374  0.84580  0.68760  Biso   1.000  C
  H102     1.0000 0.75860  0.87660  0.72700  Biso   1.000  H
  C161     1.0000 0.79956  0.80080  0.70390  Biso   1.000  C
  H103     1.0000 0.81830  0.80190  0.75400  Biso   1.000  H
  C162     1.0000 0.69295  0.74340  0.35150  Biso   1.000  C
  H104     1.0000 0.66850  0.77210  0.34030  Biso   1.000  H
  C163     1.0000 0.72111  0.74788  0.42690  Biso   1.000  C
  C164     1.0000 0.65566  0.93013  0.68190  Biso   1.000  C
  H105     1.0000 0.65090  0.89440  0.71690  Biso   1.000  H
  C165     1.0000 0.67932  0.98817  0.70270  Biso   1.000  C
  H106     1.0000 0.69400  0.00090  0.75400  Biso   1.000  H
  C166     1.0000 0.65334  0.98842  0.57632  Biso   1.000  C
  H107     1.0000 0.64690  0.00260  0.52300  Biso   1.000  H
  C167     1.0000 0.69725  0.09226  0.63020  Biso   1.000  C
  C168     1.0000 0.73335  0.11034  0.68630  Biso   1.000  C
  H108     1.0000 0.74570  0.07790  0.72610  Biso   1.000  H
  C169     1.0000 0.75075  0.17631  0.68290  Biso   1.000  C
  H109     1.0000 0.77520  0.18910  0.72130  Biso   1.000  H
  C170     1.0000 0.73356  0.22418  0.62510  Biso   1.000  C
  C171     1.0000 0.69761  0.20497  0.56933  Biso   1.000  C
  H110     1.0000 0.68540  0.23710  0.52910  Biso   1.000  H
  C172     1.0000 0.67963  0.13925  0.57233  Biso   1.000  C
  H111     1.0000 0.65500  0.12660  0.53430  Biso   1.000  H
  C173     1.0000 0.75267  0.29486  0.62240  Biso   1.000  C
  C174     1.0000 0.79568  0.30153  0.62736  Biso   1.000  C
  H112     1.0000 0.81290  0.26060  0.63380  Biso   1.000  H
  C175     1.0000 0.81379  0.36750  0.62306  Biso   1.000  C
  C176     1.0000 0.78809  0.42673  0.61729  Biso   1.000  C
  H113     1.0000 0.79990  0.47190  0.61330  Biso   1.000  H
  C177     1.0000 0.74537  0.42158  0.61715  Biso   1.000  C
  C178     1.0000 0.72776  0.35462  0.61630  Biso   1.000  C
  H114     1.0000 0.69830  0.34990  0.61150  Biso   1.000  H
  C179     1.0000 0.72021  0.48527  0.62439  Biso   1.000  C
  C180     1.0000 0.68552  0.48133  0.65880  Biso   1.000  C
  H115     1.0000 0.67770  0.43680  0.67570  Biso   1.000  H
  C181     1.0000 0.66226  0.54055  0.66900  Biso   1.000  C
  H116     1.0000 0.63870  0.53660  0.69200  Biso   1.000  H
  C182     1.0000 0.67403  0.60529  0.64500  Biso   1.000  C
  C183     1.0000 0.70864  0.61104  0.61200  Biso   1.000  C
  H117     1.0000 0.71680  0.65590  0.59670  Biso   1.000  H
  C184     1.0000 0.73133  0.55166  0.60140  Biso   1.000  C
  H118     1.0000 0.75480  0.55610  0.57800  Biso   1.000  H
  C185     1.0000 0.62646  0.68165  0.70620  Biso   1.000  C
  H119     1.0000 0.62380  0.65350  0.74960  Biso   1.000  H
  C186     1.0000 0.60797  0.74429  0.68480  Biso   1.000  C
  H120     1.0000 0.58990  0.76820  0.71170  Biso   1.000  H
  C187     1.0000 0.64433  0.72081  0.60090  Biso   1.000  C
  H121     1.0000 0.65710  0.72380  0.55750  Biso   1.000  H
  C188     1.0000 0.85949  0.37463  0.62532  Biso   1.000  C
  C189     1.0000 0.87966  0.43933  0.63780  Biso   1.000  C
  H122     1.0000 0.86400  0.47950  0.64680  Biso   1.000  H
  C190     1.0000 0.92158  0.44719  0.63770  Biso   1.000  C
  H123     1.0000 0.93440  0.49230  0.64640  Biso   1.000  H
  C191     1.0000 0.94498  0.38938  0.62490  Biso   1.000  C
  C192     1.0000 0.92599  0.32395  0.61270  Biso   1.000  C
  H124     1.0000 0.94190  0.28390  0.60430  Biso   1.000  H
  C193     1.0000 0.88396  0.31680  0.61270  Biso   1.000  C
  H125     1.0000 0.87120  0.27160  0.60400  Biso   1.000  H
  C194     1.0000 0.01147  0.45840  0.64890  Biso   1.000  C
  H126     1.0000 0.00240  0.49880  0.67250  Biso   1.000  H
  C195     1.0000 0.04959  0.44810  0.63400  Biso   1.000  C
  H127     1.0000 0.07230  0.48070  0.64590  Biso   1.000  H
  C196     1.0000 0.01371  0.35586  0.59490  Biso   1.000  C
  H128     1.0000 0.00570  0.31040  0.57410  Biso   1.000  H
  Co5      1.0000 0.09900  0.64649  0.04063  Biso   1.000  Co
  O17      1.0000 0.06791  0.58967  0.93933  Biso   1.000  O
  O18      1.0000 0.05137  0.70085  0.94968  Biso   1.000  O
  O19      1.0000 0.14376  0.68071  0.98092  Biso   1.000  O
  O20      1.0000 0.18101  0.59517  0.94110  Biso   1.000  O
  N25      1.0000 0.13942  0.56961  0.10246  Biso   1.000  N
  N26      1.0000 0.17792  0.47475  0.13505  Biso   1.000  N
  N27      1.0000 0.15008  0.83331  0.15190  Biso   1.000  N
  N28      1.0000 0.11903  0.73122  0.11820  Biso   1.000  N
  N29      1.0000 0.48821  0.10096  0.12351  Biso   1.000  N
  N30      1.0000 0.55122  0.11588  0.09912  Biso   1.000  N
  C197     1.0000 0.04899  0.64462  0.91090  Biso   1.000  C
  C198     1.0000 0.02359  0.64305  0.82790  Biso   1.000  C
  C199     1.0000 0.04447  0.64179  0.76660  Biso   1.000  C
  C200     1.0000 0.08949  0.63934  0.78060  Biso   1.000  C
  H129     1.0000 0.10590  0.63810  0.83270  Biso   1.000  H
  C201     1.0000 0.10876  0.63870  0.71980  Biso   1.000  C
  H130     1.0000 0.13860  0.63780  0.72980  Biso   1.000  H
  C202     1.0000 0.08497  0.63940  0.64170  Biso   1.000  C
  H131     1.0000 0.09900  0.63890  0.59990  Biso   1.000  H
  C203     1.0000 0.95765  0.64090  0.87410  Biso   1.000  C
  H132     1.0000 0.97320  0.64080  0.92690  Biso   1.000  H
  C204     1.0000 0.97947  0.64259  0.81240  Biso   1.000  C
  C205     1.0000 0.17690  0.65469  0.96672  Biso   1.000  C
  C206     1.0000 0.21489  0.70387  0.98353  Biso   1.000  C
  C207     1.0000 0.24311  0.70171  0.05630  Biso   1.000  C
  C208     1.0000 0.23704  0.65514  0.11680  Biso   1.000  C
  H133     1.0000 0.21360  0.62410  0.10670  Biso   1.000  H
  C209     1.0000 0.26374  0.65420  0.18760  Biso   1.000  C
  H134     1.0000 0.25860  0.62340  0.22700  Biso   1.000  H
  C210     1.0000 0.29956  0.69920  0.20390  Biso   1.000  C
  H135     1.0000 0.31830  0.69810  0.25400  Biso   1.000  H
  C211     1.0000 0.19295  0.75660  0.85150  Biso   1.000  C
  H136     1.0000 0.16850  0.72790  0.84030  Biso   1.000  H
  C212     1.0000 0.22111  0.75212  0.92690  Biso   1.000  C
  C213     1.0000 0.15566  0.56987  0.18190  Biso   1.000  C
  H137     1.0000 0.15090  0.60560  0.21690  Biso   1.000  H
  C214     1.0000 0.17932  0.51183  0.20270  Biso   1.000  C
  H138     1.0000 0.19400  0.49910  0.25400  Biso   1.000  H
  C215     1.0000 0.15334  0.51158  0.07632  Biso   1.000  C
  H139     1.0000 0.14690  0.49740  0.02300  Biso   1.000  H
  C216     1.0000 0.19725  0.40774  0.13020  Biso   1.000  C
  C217     1.0000 0.23335  0.38966  0.18630  Biso   1.000  C
  H140     1.0000 0.24570  0.42210  0.22610  Biso   1.000  H
  C218     1.0000 0.25075  0.32369  0.18290  Biso   1.000  C
  H141     1.0000 0.27520  0.31090  0.22130  Biso   1.000  H
  C219     1.0000 0.23356  0.27582  0.12510  Biso   1.000  C
  C220     1.0000 0.19761  0.29503  0.06933  Biso   1.000  C
  H142     1.0000 0.18540  0.26290  0.02910  Biso   1.000  H
  C221     1.0000 0.17963  0.36075  0.07233  Biso   1.000  C
  H143     1.0000 0.15500  0.37340  0.03430  Biso   1.000  H
  C222     1.0000 0.25267  0.20514  0.12240  Biso   1.000  C
  C223     1.0000 0.29568  0.19847  0.12736  Biso   1.000  C
  H144     1.0000 0.31290  0.23940  0.13380  Biso   1.000  H
  C224     1.0000 0.31379  0.13250  0.12306  Biso   1.000  C
  C225     1.0000 0.28809  0.07327  0.11729  Biso   1.000  C
  H145     1.0000 0.29990  0.02810  0.11330  Biso   1.000  H
  C226     1.0000 0.24537  0.07842  0.11715  Biso   1.000  C
  C227     1.0000 0.22776  0.14538  0.11630  Biso   1.000  C
  H146     1.0000 0.19830  0.15010  0.11150  Biso   1.000  H
  C228     1.0000 0.22021  0.01473  0.12439  Biso   1.000  C
  C229     1.0000 0.18552  0.01867  0.15880  Biso   1.000  C
  H147     1.0000 0.17770  0.06320  0.17570  Biso   1.000  H
  C230     1.0000 0.16226  0.95945  0.16900  Biso   1.000  C
  H148     1.0000 0.13870  0.96340  0.19200  Biso   1.000  H
  C231     1.0000 0.17403  0.89471  0.14500  Biso   1.000  C
  C232     1.0000 0.20864  0.88896  0.11200  Biso   1.000  C
  H149     1.0000 0.21680  0.84410  0.09670  Biso   1.000  H
  C233     1.0000 0.23133  0.94834  0.10140  Biso   1.000  C
  H150     1.0000 0.25480  0.94390  0.07800  Biso   1.000  H
  C234     1.0000 0.12646  0.81835  0.20620  Biso   1.000  C
  H151     1.0000 0.12380  0.84650  0.24960  Biso   1.000  H
  C235     1.0000 0.10797  0.75571  0.18480  Biso   1.000  C
  H152     1.0000 0.08990  0.73180  0.21170  Biso   1.000  H
  C236     1.0000 0.14433  0.77919  0.10090  Biso   1.000  C
  H153     1.0000 0.15710  0.77620  0.05750  Biso   1.000  H
  C237     1.0000 0.35949  0.12537  0.12532  Biso   1.000  C
  C238     1.0000 0.37966  0.06067  0.13780  Biso   1.000  C
  H154     1.0000 0.36400  0.02050  0.14680  Biso   1.000  H
  C239     1.0000 0.42158  0.05281  0.13770  Biso   1.000  C
  H155     1.0000 0.43440  0.00770  0.14640  Biso   1.000  H
  C240     1.0000 0.44498  0.11062  0.12490  Biso   1.000  C
  C241     1.0000 0.42599  0.17605  0.11270  Biso   1.000  C
  H156     1.0000 0.44190  0.21610  0.10430  Biso   1.000  H
  C242     1.0000 0.38396  0.18320  0.11270  Biso   1.000  C
  H157     1.0000 0.37120  0.22840  0.10400  Biso   1.000  H
  C243     1.0000 0.51147  0.04160  0.14890  Biso   1.000  C
  H158     1.0000 0.50240  0.00120  0.17250  Biso   1.000  H
  C244     1.0000 0.54959  0.05190  0.13400  Biso   1.000  C
  H159     1.0000 0.57230  0.01930  0.14590  Biso   1.000  H
  C245     1.0000 0.51371  0.14414  0.09490  Biso   1.000  C
  H160     1.0000 0.50570  0.18960  0.07410  Biso   1.000  H
  Co6      1.0000 0.59900  0.14649  0.04063  Biso   1.000  Co
  O21      1.0000 0.56791  0.08967  0.93933  Biso   1.000  O
  O22      1.0000 0.55137  0.20085  0.94968  Biso   1.000  O
  O23      1.0000 0.64376  0.18071  0.98092  Biso   1.000  O
  O24      1.0000 0.68101  0.09517  0.94110  Biso   1.000  O
  N31      1.0000 0.63942  0.06961  0.10246  Biso   1.000  N
  N32      1.0000 0.67792  0.97475  0.13505  Biso   1.000  N
  N33      1.0000 0.65008  0.33331  0.15190  Biso   1.000  N
  N34      1.0000 0.61903  0.23122  0.11820  Biso   1.000  N
  N35      1.0000 0.98821  0.60096  0.12351  Biso   1.000  N
  N36      1.0000 0.05122  0.61588  0.09912  Biso   1.000  N
  C246     1.0000 0.54899  0.14462  0.91090  Biso   1.000  C
  C247     1.0000 0.52359  0.14305  0.82790  Biso   1.000  C
  C248     1.0000 0.54447  0.14179  0.76660  Biso   1.000  C
  C249     1.0000 0.58949  0.13934  0.78060  Biso   1.000  C
  H161     1.0000 0.60590  0.13810  0.83270  Biso   1.000  H
  C250     1.0000 0.60876  0.13870  0.71980  Biso   1.000  C
  H162     1.0000 0.63860  0.13780  0.72980  Biso   1.000  H
  C251     1.0000 0.58497  0.13940  0.64170  Biso   1.000  C
  H163     1.0000 0.59900  0.13890  0.59990  Biso   1.000  H
  C252     1.0000 0.45765  0.14090  0.87410  Biso   1.000  C
  H164     1.0000 0.47320  0.14080  0.92690  Biso   1.000  H
  C253     1.0000 0.47947  0.14259  0.81240  Biso   1.000  C
  C254     1.0000 0.67690  0.15469  0.96672  Biso   1.000  C
  C255     1.0000 0.71489  0.20387  0.98353  Biso   1.000  C
  C256     1.0000 0.74311  0.20171  0.05630  Biso   1.000  C
  C257     1.0000 0.73704  0.15514  0.11680  Biso   1.000  C
  H165     1.0000 0.71360  0.12410  0.10670  Biso   1.000  H
  C258     1.0000 0.76374  0.15420  0.18760  Biso   1.000  C
  H166     1.0000 0.75860  0.12340  0.22700  Biso   1.000  H
  C259     1.0000 0.79956  0.19920  0.20390  Biso   1.000  C
  H167     1.0000 0.81830  0.19810  0.25400  Biso   1.000  H
  C260     1.0000 0.69295  0.25660  0.85150  Biso   1.000  C
  H168     1.0000 0.66850  0.22790  0.84030  Biso   1.000  H
  C261     1.0000 0.72111  0.25212  0.92690  Biso   1.000  C
  C262     1.0000 0.65566  0.06987  0.18190  Biso   1.000  C
  H169     1.0000 0.65090  0.10560  0.21690  Biso   1.000  H
  C263     1.0000 0.67932  0.01183  0.20270  Biso   1.000  C
  H170     1.0000 0.69400  0.99910  0.25400  Biso   1.000  H
  C264     1.0000 0.65334  0.01158  0.07632  Biso   1.000  C
  H171     1.0000 0.64690  0.99740  0.02300  Biso   1.000  H
  C265     1.0000 0.69725  0.90774  0.13020  Biso   1.000  C
  C266     1.0000 0.73335  0.88966  0.18630  Biso   1.000  C
  H172     1.0000 0.74570  0.92210  0.22610  Biso   1.000  H
  C267     1.0000 0.75075  0.82369  0.18290  Biso   1.000  C
  H173     1.0000 0.77520  0.81090  0.22130  Biso   1.000  H
  C268     1.0000 0.73356  0.77582  0.12510  Biso   1.000  C
  C269     1.0000 0.69761  0.79503  0.06933  Biso   1.000  C
  H174     1.0000 0.68540  0.76290  0.02910  Biso   1.000  H
  C270     1.0000 0.67963  0.86075  0.07233  Biso   1.000  C
  H175     1.0000 0.65500  0.87340  0.03430  Biso   1.000  H
  C271     1.0000 0.75267  0.70514  0.12240  Biso   1.000  C
  C272     1.0000 0.79568  0.69847  0.12736  Biso   1.000  C
  H176     1.0000 0.81290  0.73940  0.13380  Biso   1.000  H
  C273     1.0000 0.81379  0.63250  0.12306  Biso   1.000  C
  C274     1.0000 0.78809  0.57327  0.11729  Biso   1.000  C
  H177     1.0000 0.79990  0.52810  0.11330  Biso   1.000  H
  C275     1.0000 0.74537  0.57842  0.11715  Biso   1.000  C
  C276     1.0000 0.72776  0.64538  0.11630  Biso   1.000  C
  H178     1.0000 0.69830  0.65010  0.11150  Biso   1.000  H
  C277     1.0000 0.72021  0.51473  0.12439  Biso   1.000  C
  C278     1.0000 0.68552  0.51867  0.15880  Biso   1.000  C
  H179     1.0000 0.67770  0.56320  0.17570  Biso   1.000  H
  C279     1.0000 0.66226  0.45945  0.16900  Biso   1.000  C
  H180     1.0000 0.63870  0.46340  0.19200  Biso   1.000  H
  C280     1.0000 0.67403  0.39471  0.14500  Biso   1.000  C
  C281     1.0000 0.70864  0.38896  0.11200  Biso   1.000  C
  H181     1.0000 0.71680  0.34410  0.09670  Biso   1.000  H
  C282     1.0000 0.73133  0.44834  0.10140  Biso   1.000  C
  H182     1.0000 0.75480  0.44390  0.07800  Biso   1.000  H
  C283     1.0000 0.62646  0.31835  0.20620  Biso   1.000  C
  H183     1.0000 0.62380  0.34650  0.24960  Biso   1.000  H
  C284     1.0000 0.60797  0.25571  0.18480  Biso   1.000  C
  H184     1.0000 0.58990  0.23180  0.21170  Biso   1.000  H
  C285     1.0000 0.64433  0.27919  0.10090  Biso   1.000  C
  H185     1.0000 0.65710  0.27620  0.05750  Biso   1.000  H
  C286     1.0000 0.85949  0.62537  0.12532  Biso   1.000  C
  C287     1.0000 0.87966  0.56067  0.13780  Biso   1.000  C
  H186     1.0000 0.86400  0.52050  0.14680  Biso   1.000  H
  C288     1.0000 0.92158  0.55281  0.13770  Biso   1.000  C
  H187     1.0000 0.93440  0.50770  0.14640  Biso   1.000  H
  C289     1.0000 0.94498  0.61062  0.12490  Biso   1.000  C
  C290     1.0000 0.92599  0.67605  0.11270  Biso   1.000  C
  H188     1.0000 0.94190  0.71610  0.10430  Biso   1.000  H
  C291     1.0000 0.88396  0.68320  0.11270  Biso   1.000  C
  H189     1.0000 0.87120  0.72840  0.10400  Biso   1.000  H
  C292     1.0000 0.01147  0.54160  0.14890  Biso   1.000  C
  H190     1.0000 0.00240  0.50120  0.17250  Biso   1.000  H
  C293     1.0000 0.04959  0.55190  0.13400  Biso   1.000  C
  H191     1.0000 0.07230  0.51930  0.14590  Biso   1.000  H
  C294     1.0000 0.01371  0.64414  0.09490  Biso   1.000  C
  H192     1.0000 0.00570  0.68960  0.07410  Biso   1.000  H
  Co7      1.0000 0.90100  0.64649  0.45937  Biso   1.000  Co
  O25      1.0000 0.93209  0.58967  0.56067  Biso   1.000  O
  O26      1.0000 0.94863  0.70085  0.55032  Biso   1.000  O
  O27      1.0000 0.85624  0.68071  0.51908  Biso   1.000  O
  O28      1.0000 0.81899  0.59517  0.55890  Biso   1.000  O
  N37      1.0000 0.86058  0.56961  0.39754  Biso   1.000  N
  N38      1.0000 0.82208  0.47475  0.36495  Biso   1.000  N
  N39      1.0000 0.84992  0.83331  0.34810  Biso   1.000  N
  N40      1.0000 0.88097  0.73122  0.38180  Biso   1.000  N
  N41      1.0000 0.51179  0.10096  0.37649  Biso   1.000  N
  N42      1.0000 0.44878  0.11588  0.40088  Biso   1.000  N
  C295     1.0000 0.95101  0.64462  0.58910  Biso   1.000  C
  C296     1.0000 0.97641  0.64305  0.67210  Biso   1.000  C
  C297     1.0000 0.95553  0.64179  0.73340  Biso   1.000  C
  C298     1.0000 0.91051  0.63934  0.71940  Biso   1.000  C
  H193     1.0000 0.89410  0.63810  0.66730  Biso   1.000  H
  C299     1.0000 0.89124  0.63870  0.78020  Biso   1.000  C
  H194     1.0000 0.86140  0.63780  0.77020  Biso   1.000  H
  C300     1.0000 0.91503  0.63940  0.85830  Biso   1.000  C
  H195     1.0000 0.90100  0.63890  0.90010  Biso   1.000  H
  C301     1.0000 0.04235  0.64090  0.62590  Biso   1.000  C
  H196     1.0000 0.02680  0.64080  0.57310  Biso   1.000  H
  C302     1.0000 0.02053  0.64259  0.68760  Biso   1.000  C
  C303     1.0000 0.82310  0.65469  0.53328  Biso   1.000  C
  C304     1.0000 0.78511  0.70387  0.51647  Biso   1.000  C
  C305     1.0000 0.75689  0.70171  0.44370  Biso   1.000  C
  C306     1.0000 0.76296  0.65514  0.38320  Biso   1.000  C
  H197     1.0000 0.78640  0.62410  0.39330  Biso   1.000  H
  C307     1.0000 0.73626  0.65420  0.31240  Biso   1.000  C
  H198     1.0000 0.74140  0.62340  0.27300  Biso   1.000  H
  C308     1.0000 0.70044  0.69920  0.29610  Biso   1.000  C
  H199     1.0000 0.68170  0.69810  0.24600  Biso   1.000  H
  C309     1.0000 0.80705  0.75660  0.64850  Biso   1.000  C
  H200     1.0000 0.83150  0.72790  0.65970  Biso   1.000  H
  C310     1.0000 0.77889  0.75212  0.57310  Biso   1.000  C
  C311     1.0000 0.84434  0.56987  0.31810  Biso   1.000  C
  H201     1.0000 0.84910  0.60560  0.28310  Biso   1.000  H
  C312     1.0000 0.82068  0.51183  0.29730  Biso   1.000  C
  H202     1.0000 0.80600  0.49910  0.24600  Biso   1.000  H
  C313     1.0000 0.84666  0.51158  0.42368  Biso   1.000  C
  H203     1.0000 0.85310  0.49740  0.47700  Biso   1.000  H
  C314     1.0000 0.80275  0.40774  0.36980  Biso   1.000  C
  C315     1.0000 0.76665  0.38966  0.31370  Biso   1.000  C
  H204     1.0000 0.75430  0.42210  0.27390  Biso   1.000  H
  C316     1.0000 0.74925  0.32369  0.31710  Biso   1.000  C
  H205     1.0000 0.72480  0.31090  0.27870  Biso   1.000  H
  C317     1.0000 0.76644  0.27582  0.37490  Biso   1.000  C
  C318     1.0000 0.80239  0.29503  0.43067  Biso   1.000  C
  H206     1.0000 0.81460  0.26290  0.47090  Biso   1.000  H
  C319     1.0000 0.82037  0.36075  0.42767  Biso   1.000  C
  H207     1.0000 0.84500  0.37340  0.46570  Biso   1.000  H
  C320     1.0000 0.74733  0.20514  0.37760  Biso   1.000  C
  C321     1.0000 0.70432  0.19847  0.37264  Biso   1.000  C
  H208     1.0000 0.68710  0.23940  0.36620  Biso   1.000  H
  C322     1.0000 0.68621  0.13250  0.37694  Biso   1.000  C
  C323     1.0000 0.71191  0.07327  0.38271  Biso   1.000  C
  H209     1.0000 0.70010  0.02810  0.38670  Biso   1.000  H
  C324     1.0000 0.75463  0.07842  0.38285  Biso   1.000  C
  C325     1.0000 0.77224  0.14538  0.38370  Biso   1.000  C
  H210     1.0000 0.80170  0.15010  0.38850  Biso   1.000  H
  C326     1.0000 0.77979  0.01473  0.37561  Biso   1.000  C
  C327     1.0000 0.81448  0.01867  0.34120  Biso   1.000  C
  H211     1.0000 0.82230  0.06320  0.32430  Biso   1.000  H
  C328     1.0000 0.83774  0.95945  0.33100  Biso   1.000  C
  H212     1.0000 0.86130  0.96340  0.30800  Biso   1.000  H
  C329     1.0000 0.82597  0.89471  0.35500  Biso   1.000  C
  C330     1.0000 0.79136  0.88896  0.38800  Biso   1.000  C
  H213     1.0000 0.78320  0.84410  0.40330  Biso   1.000  H
  C331     1.0000 0.76867  0.94834  0.39860  Biso   1.000  C
  H214     1.0000 0.74520  0.94390  0.42200  Biso   1.000  H
  C332     1.0000 0.87354  0.81835  0.29380  Biso   1.000  C
  H215     1.0000 0.87620  0.84650  0.25040  Biso   1.000  H
  C333     1.0000 0.89203  0.75571  0.31520  Biso   1.000  C
  H216     1.0000 0.91010  0.73180  0.28830  Biso   1.000  H
  C334     1.0000 0.85567  0.77919  0.39910  Biso   1.000  C
  H217     1.0000 0.84290  0.77620  0.44250  Biso   1.000  H
  C335     1.0000 0.64051  0.12537  0.37468  Biso   1.000  C
  C336     1.0000 0.62034  0.06067  0.36220  Biso   1.000  C
  H218     1.0000 0.63600  0.02050  0.35320  Biso   1.000  H
  C337     1.0000 0.57842  0.05281  0.36230  Biso   1.000  C
  H219     1.0000 0.56560  0.00770  0.35360  Biso   1.000  H
  C338     1.0000 0.55502  0.11062  0.37510  Biso   1.000  C
  C339     1.0000 0.57401  0.17605  0.38730  Biso   1.000  C
  H220     1.0000 0.55810  0.21610  0.39570  Biso   1.000  H
  C340     1.0000 0.61604  0.18320  0.38730  Biso   1.000  C
  H221     1.0000 0.62880  0.22840  0.39600  Biso   1.000  H
  C341     1.0000 0.48853  0.04160  0.35110  Biso   1.000  C
  H222     1.0000 0.49760  0.00120  0.32750  Biso   1.000  H
  C342     1.0000 0.45041  0.05190  0.36600  Biso   1.000  C
  H223     1.0000 0.42770  0.01930  0.35410  Biso   1.000  H
  C343     1.0000 0.48629  0.14414  0.40510  Biso   1.000  C
  H224     1.0000 0.49430  0.18960  0.42590  Biso   1.000  H
  Co8      1.0000 0.40100  0.14649  0.45937  Biso   1.000  Co
  O29      1.0000 0.43209  0.08967  0.56067  Biso   1.000  O
  O30      1.0000 0.44863  0.20085  0.55032  Biso   1.000  O
  O31      1.0000 0.35624  0.18071  0.51908  Biso   1.000  O
  O32      1.0000 0.31899  0.09517  0.55890  Biso   1.000  O
  N43      1.0000 0.36058  0.06961  0.39754  Biso   1.000  N
  N44      1.0000 0.32208  0.97475  0.36495  Biso   1.000  N
  N45      1.0000 0.34992  0.33331  0.34810  Biso   1.000  N
  N46      1.0000 0.38097  0.23122  0.38180  Biso   1.000  N
  N47      1.0000 0.01179  0.60096  0.37649  Biso   1.000  N
  N48      1.0000 0.94878  0.61588  0.40088  Biso   1.000  N
  C344     1.0000 0.45101  0.14462  0.58910  Biso   1.000  C
  C345     1.0000 0.47641  0.14305  0.67210  Biso   1.000  C
  C346     1.0000 0.45553  0.14179  0.73340  Biso   1.000  C
  C347     1.0000 0.41051  0.13934  0.71940  Biso   1.000  C
  H225     1.0000 0.39410  0.13810  0.66730  Biso   1.000  H
  C348     1.0000 0.39124  0.13870  0.78020  Biso   1.000  C
  H226     1.0000 0.36140  0.13780  0.77020  Biso   1.000  H
  C349     1.0000 0.41503  0.13940  0.85830  Biso   1.000  C
  H227     1.0000 0.40100  0.13890  0.90010  Biso   1.000  H
  C350     1.0000 0.54235  0.14090  0.62590  Biso   1.000  C
  H228     1.0000 0.52680  0.14080  0.57310  Biso   1.000  H
  C351     1.0000 0.52053  0.14259  0.68760  Biso   1.000  C
  C352     1.0000 0.32310  0.15469  0.53328  Biso   1.000  C
  C353     1.0000 0.28511  0.20387  0.51647  Biso   1.000  C
  C354     1.0000 0.25689  0.20171  0.44370  Biso   1.000  C
  C355     1.0000 0.26296  0.15514  0.38320  Biso   1.000  C
  H229     1.0000 0.28640  0.12410  0.39330  Biso   1.000  H
  C356     1.0000 0.23626  0.15420  0.31240  Biso   1.000  C
  H230     1.0000 0.24140  0.12340  0.27300  Biso   1.000  H
  C357     1.0000 0.20044  0.19920  0.29610  Biso   1.000  C
  H231     1.0000 0.18170  0.19810  0.24600  Biso   1.000  H
  C358     1.0000 0.30705  0.25660  0.64850  Biso   1.000  C
  H232     1.0000 0.33150  0.22790  0.65970  Biso   1.000  H
  C359     1.0000 0.27889  0.25212  0.57310  Biso   1.000  C
  C360     1.0000 0.34434  0.06987  0.31810  Biso   1.000  C
  H233     1.0000 0.34910  0.10560  0.28310  Biso   1.000  H
  C361     1.0000 0.32068  0.01183  0.29730  Biso   1.000  C
  H234     1.0000 0.30600  0.99910  0.24600  Biso   1.000  H
  C362     1.0000 0.34666  0.01158  0.42368  Biso   1.000  C
  H235     1.0000 0.35310  0.99740  0.47700  Biso   1.000  H
  C363     1.0000 0.30275  0.90774  0.36980  Biso   1.000  C
  C364     1.0000 0.26665  0.88966  0.31370  Biso   1.000  C
  H236     1.0000 0.25430  0.92210  0.27390  Biso   1.000  H
  C365     1.0000 0.24925  0.82369  0.31710  Biso   1.000  C
  H237     1.0000 0.22480  0.81090  0.27870  Biso   1.000  H
  C366     1.0000 0.26644  0.77582  0.37490  Biso   1.000  C
  C367     1.0000 0.30239  0.79503  0.43067  Biso   1.000  C
  H238     1.0000 0.31460  0.76290  0.47090  Biso   1.000  H
  C368     1.0000 0.32037  0.86075  0.42767  Biso   1.000  C
  H239     1.0000 0.34500  0.87340  0.46570  Biso   1.000  H
  C369     1.0000 0.24733  0.70514  0.37760  Biso   1.000  C
  C370     1.0000 0.20432  0.69847  0.37264  Biso   1.000  C
  H240     1.0000 0.18710  0.73940  0.36620  Biso   1.000  H
  C371     1.0000 0.18621  0.63250  0.37694  Biso   1.000  C
  C372     1.0000 0.21191  0.57327  0.38271  Biso   1.000  C
  H241     1.0000 0.20010  0.52810  0.38670  Biso   1.000  H
  C373     1.0000 0.25463  0.57842  0.38285  Biso   1.000  C
  C374     1.0000 0.27224  0.64538  0.38370  Biso   1.000  C
  H242     1.0000 0.30170  0.65010  0.38850  Biso   1.000  H
  C375     1.0000 0.27979  0.51473  0.37561  Biso   1.000  C
  C376     1.0000 0.31448  0.51867  0.34120  Biso   1.000  C
  H243     1.0000 0.32230  0.56320  0.32430  Biso   1.000  H
  C377     1.0000 0.33774  0.45945  0.33100  Biso   1.000  C
  H244     1.0000 0.36130  0.46340  0.30800  Biso   1.000  H
  C378     1.0000 0.32597  0.39471  0.35500  Biso   1.000  C
  C379     1.0000 0.29136  0.38896  0.38800  Biso   1.000  C
  H245     1.0000 0.28320  0.34410  0.40330  Biso   1.000  H
  C380     1.0000 0.26867  0.44834  0.39860  Biso   1.000  C
  H246     1.0000 0.24520  0.44390  0.42200  Biso   1.000  H
  C381     1.0000 0.37354  0.31835  0.29380  Biso   1.000  C
  H247     1.0000 0.37620  0.34650  0.25040  Biso   1.000  H
  C382     1.0000 0.39203  0.25571  0.31520  Biso   1.000  C
  H248     1.0000 0.41010  0.23180  0.28830  Biso   1.000  H
  C383     1.0000 0.35567  0.27919  0.39910  Biso   1.000  C
  H249     1.0000 0.34290  0.27620  0.44250  Biso   1.000  H
  C384     1.0000 0.14051  0.62537  0.37468  Biso   1.000  C
  C385     1.0000 0.12034  0.56067  0.36220  Biso   1.000  C
  H250     1.0000 0.13600  0.52050  0.35320  Biso   1.000  H
  C386     1.0000 0.07842  0.55281  0.36230  Biso   1.000  C
  H251     1.0000 0.06560  0.50770  0.35360  Biso   1.000  H
  C387     1.0000 0.05502  0.61062  0.37510  Biso   1.000  C
  C388     1.0000 0.07401  0.67605  0.38730  Biso   1.000  C
  H252     1.0000 0.05810  0.71610  0.39570  Biso   1.000  H
  C389     1.0000 0.11604  0.68320  0.38730  Biso   1.000  C
  H253     1.0000 0.12880  0.72840  0.39600  Biso   1.000  H
  C390     1.0000 0.98853  0.54160  0.35110  Biso   1.000  C
  H254     1.0000 0.99760  0.50120  0.32750  Biso   1.000  H
  C391     1.0000 0.95041  0.55190  0.36600  Biso   1.000  C
  H255     1.0000 0.92770  0.51930  0.35410  Biso   1.000  H
  C392     1.0000 0.98629  0.64414  0.40510  Biso   1.000  C
  H256     1.0000 0.99430  0.68960  0.42590  Biso   1.000  H
