data_image0
_cell_length_a       26.813
_cell_length_b       12.6035
_cell_length_c       33.472
_cell_angle_alpha    90
_cell_angle_beta     90
_cell_angle_gamma    90

_symmetry_space_group_name_H-M    "P 1"
_symmetry_int_tables_number       1

loop_
  _symmetry_equiv_pos_as_xyz
  'x, y, z'

loop_
  _atom_site_label
  _atom_site_occupancy
  _atom_site_fract_x
  _atom_site_fract_y
  _atom_site_fract_z
  _atom_site_thermal_displace_type
  _atom_site_B_iso_or_equiv
  _atom_site_type_symbol
  Ag1      1.0000 0.27999  0.75796  0.63755  Biso   1.000  Ag
  Fe1      1.0000 0.43192  0.51444  0.38527  Biso   1.000  Fe
  C1       1.0000 0.34450  0.64870  0.37275  Biso   1.000  C
  H1       1.0000 0.34880  0.64720  0.34460  Biso   1.000  H
  C2       1.0000 0.30690  0.70800  0.39299  Biso   1.000  C
  H2       1.0000 0.28130  0.74960  0.38110  Biso   1.000  H
  C3       1.0000 0.31470  0.69340  0.43241  Biso   1.000  C
  H3       1.0000 0.29650  0.72530  0.45360  Biso   1.000  H
  C4       1.0000 0.35539  0.62120  0.43654  Biso   1.000  C
  C5       1.0000 0.37612  0.58050  0.47181  Biso   1.000  C
  C6       1.0000 0.41516  0.50780  0.47369  Biso   1.000  C
  C7       1.0000 0.43260  0.45350  0.50809  Biso   1.000  C
  H4       1.0000 0.42140  0.46380  0.53470  Biso   1.000  H
  C8       1.0000 0.46810  0.38400  0.49592  Biso   1.000  C
  H5       1.0000 0.48610  0.33540  0.51210  Biso   1.000  H
  C9       1.0000 0.47285  0.39840  0.45429  Biso   1.000  C
  H6       1.0000 0.49600  0.36110  0.43800  Biso   1.000  H
  C10      1.0000 0.35377  0.61890  0.50963  Biso   1.000  C
  C11      1.0000 0.38113  0.68290  0.53525  Biso   1.000  C
  H7       1.0000 0.41480  0.69970  0.52920  Biso   1.000  H
  C12      1.0000 0.35927  0.72240  0.56974  Biso   1.000  C
  H8       1.0000 0.37830  0.76710  0.58670  Biso   1.000  H
  C13      1.0000 0.28630  0.63710  0.55534  Biso   1.000  C
  H9       1.0000 0.25310  0.61940  0.56280  Biso   1.000  H
  C14      1.0000 0.30430  0.59780  0.52062  Biso   1.000  C
  H10      1.0000 0.28360  0.55610  0.50380  Biso   1.000  H
  C15      1.0000 0.44977  0.35540  0.81348  Biso   1.000  C
  H11      1.0000 0.47030  0.30730  0.82780  Biso   1.000  H
  C16      1.0000 0.43920  0.34770  0.77232  Biso   1.000  C
  H12      1.0000 0.45060  0.29450  0.75440  Biso   1.000  H
  C17      1.0000 0.40950  0.43140  0.76336  Biso   1.000  C
  H13      1.0000 0.39670  0.44800  0.73760  Biso   1.000  H
  C18      1.0000 0.40070  0.49020  0.79892  Biso   1.000  C
  C19      1.0000 0.37193  0.58000  0.80436  Biso   1.000  C
  C20      1.0000 0.36488  0.63410  0.84001  Biso   1.000  C
  C21      1.0000 0.33414  0.72340  0.84736  Biso   1.000  C
  H14      1.0000 0.31400  0.75910  0.82830  Biso   1.000  H
  C22      1.0000 0.33870  0.74900  0.88682  Biso   1.000  C
  H15      1.0000 0.32290  0.80590  0.90050  Biso   1.000  H
  C23      1.0000 0.37159  0.67340  0.90299  Biso   1.000  C
  H16      1.0000 0.38130  0.67160  0.93030  Biso   1.000  H
  C24      1.0000 0.34631  0.62130  0.76775  Biso   1.000  C
  C25      1.0000 0.31233  0.56330  0.74679  Biso   1.000  C
  H17      1.0000 0.30280  0.49500  0.75610  Biso   1.000  H
  C26      1.0000 0.29154  0.60290  0.71204  Biso   1.000  C
  H18      1.0000 0.26800  0.56090  0.69790  Biso   1.000  H
  C27      1.0000 0.33570  0.75470  0.71872  Biso   1.000  C
  H19      1.0000 0.34390  0.82320  0.70890  Biso   1.000  H
  C28      1.0000 0.35800  0.72230  0.75338  Biso   1.000  C
  H20      1.0000 0.38070  0.76700  0.76720  Biso   1.000  H
  C29      1.0000 0.98910  0.17250  0.64313  Biso   1.000  C
  H21      1.0000 0.96020  0.21610  0.64390  Biso   1.000  H
  C30      1.0000 0.03683  0.20620  0.65436  Biso   1.000  C
  H22      1.0000 0.04590  0.27500  0.66350  Biso   1.000  H
  C31      1.0000 0.06763  0.12210  0.64972  Biso   1.000  C
  H23      1.0000 0.10240  0.12080  0.65520  Biso   1.000  H
  C32      1.0000 0.03874  0.03640  0.63530  Biso   1.000  C
  C33      1.0000 0.05492  0.93490  0.62534  Biso   1.000  C
  C34      1.0000 0.02492  0.85600  0.60942  Biso   1.000  C
  C35      1.0000 0.04100  0.75310  0.59773  Biso   1.000  C
  H24      1.0000 0.07410  0.72630  0.59910  Biso   1.000  H
  C36      1.0000 0.99970  0.69970  0.58406  Biso   1.000  C
  H25      1.0000 0.99840  0.62910  0.57420  Biso   1.000  H
  C37      1.0000 0.95950  0.77190  0.58778  Biso   1.000  C
  H26      1.0000 0.92620  0.75600  0.58030  Biso   1.000  H
  C38      1.0000 0.10826  0.90890  0.63229  Biso   1.000  C
  C39      1.0000 0.12199  0.83950  0.66214  Biso   1.000  C
  H27      1.0000 0.09770  0.81210  0.68000  Biso   1.000  H
  C40      1.0000 0.17155  0.81000  0.66589  Biso   1.000  C
  H28      1.0000 0.18020  0.76150  0.68650  Biso   1.000  H
  C41      1.0000 0.19440  0.91700  0.61517  Biso   1.000  C
  H29      1.0000 0.21980  0.94600  0.59870  Biso   1.000  H
  C42      1.0000 0.14590  0.95180  0.60941  Biso   1.000  C
  H30      1.0000 0.13870  0.00450  0.59000  Biso   1.000  H
  N1       1.0000 0.37260  0.59580  0.39854  Biso   1.000  N
  N2       1.0000 0.44088  0.47100  0.44059  Biso   1.000  N
  N3       1.0000 0.31271  0.69980  0.57980  Biso   1.000  N
  N4       1.0000 0.42683  0.44020  0.82972  Biso   1.000  N
  N5       1.0000 0.38737  0.60590  0.87602  Biso   1.000  N
  N6       1.0000 0.30343  0.69730  0.69792  Biso   1.000  N
  N7       1.0000 0.98913  0.07120  0.63123  Biso   1.000  N
  N8       1.0000 0.97365  0.86360  0.60283  Biso   1.000  N
  N9       1.0000 0.20741  0.84560  0.64243  Biso   1.000  N
  Co1      1.0000 0.43192  0.48556  0.88527  Biso   1.000  Co
  Ag2      1.0000 0.77999  0.74204  0.36245  Biso   1.000  Ag
  Fe2      1.0000 0.93192  0.98556  0.61473  Biso   1.000  Fe
  C43      1.0000 0.84450  0.85130  0.62725  Biso   1.000  C
  H31      1.0000 0.84880  0.85280  0.65540  Biso   1.000  H
  C44      1.0000 0.80690  0.79200  0.60701  Biso   1.000  C
  H32      1.0000 0.78130  0.75040  0.61890  Biso   1.000  H
  C45      1.0000 0.81470  0.80660  0.56759  Biso   1.000  C
  H33      1.0000 0.79650  0.77470  0.54640  Biso   1.000  H
  C46      1.0000 0.85539  0.87880  0.56346  Biso   1.000  C
  C47      1.0000 0.87612  0.91950  0.52819  Biso   1.000  C
  C48      1.0000 0.91516  0.99220  0.52631  Biso   1.000  C
  C49      1.0000 0.93260  0.04650  0.49191  Biso   1.000  C
  H34      1.0000 0.92140  0.03620  0.46530  Biso   1.000  H
  C50      1.0000 0.96810  0.11600  0.50408  Biso   1.000  C
  H35      1.0000 0.98610  0.16460  0.48790  Biso   1.000  H
  C51      1.0000 0.97285  0.10160  0.54571  Biso   1.000  C
  H36      1.0000 0.99600  0.13890  0.56200  Biso   1.000  H
  C52      1.0000 0.85377  0.88110  0.49037  Biso   1.000  C
  C53      1.0000 0.88113  0.81710  0.46475  Biso   1.000  C
  H37      1.0000 0.91480  0.80030  0.47080  Biso   1.000  H
  C54      1.0000 0.85927  0.77760  0.43026  Biso   1.000  C
  H38      1.0000 0.87830  0.73290  0.41330  Biso   1.000  H
  C55      1.0000 0.78630  0.86290  0.44466  Biso   1.000  C
  H39      1.0000 0.75310  0.88060  0.43720  Biso   1.000  H
  C56      1.0000 0.80430  0.90220  0.47938  Biso   1.000  C
  H40      1.0000 0.78360  0.94390  0.49620  Biso   1.000  H
  C57      1.0000 0.94977  0.14460  0.18652  Biso   1.000  C
  H41      1.0000 0.97030  0.19270  0.17220  Biso   1.000  H
  C58      1.0000 0.93920  0.15230  0.22768  Biso   1.000  C
  H42      1.0000 0.95060  0.20550  0.24560  Biso   1.000  H
  C59      1.0000 0.90950  0.06860  0.23664  Biso   1.000  C
  H43      1.0000 0.89670  0.05200  0.26240  Biso   1.000  H
  C60      1.0000 0.90070  0.00980  0.20108  Biso   1.000  C
  C61      1.0000 0.87193  0.92000  0.19564  Biso   1.000  C
  C62      1.0000 0.86488  0.86590  0.15999  Biso   1.000  C
  C63      1.0000 0.83414  0.77660  0.15264  Biso   1.000  C
  H44      1.0000 0.81400  0.74090  0.17170  Biso   1.000  H
  C64      1.0000 0.83870  0.75100  0.11318  Biso   1.000  C
  H45      1.0000 0.82290  0.69410  0.09950  Biso   1.000  H
  C65      1.0000 0.87159  0.82660  0.09701  Biso   1.000  C
  H46      1.0000 0.88130  0.82840  0.06970  Biso   1.000  H
  C66      1.0000 0.84631  0.87870  0.23225  Biso   1.000  C
  C67      1.0000 0.81233  0.93670  0.25321  Biso   1.000  C
  H47      1.0000 0.80280  0.00500  0.24390  Biso   1.000  H
  C68      1.0000 0.79154  0.89710  0.28796  Biso   1.000  C
  H48      1.0000 0.76800  0.93910  0.30210  Biso   1.000  H
  C69      1.0000 0.83570  0.74530  0.28128  Biso   1.000  C
  H49      1.0000 0.84390  0.67680  0.29110  Biso   1.000  H
  C70      1.0000 0.85800  0.77770  0.24662  Biso   1.000  C
  H50      1.0000 0.88070  0.73300  0.23280  Biso   1.000  H
  C71      1.0000 0.48910  0.32750  0.35687  Biso   1.000  C
  H51      1.0000 0.46020  0.28390  0.35610  Biso   1.000  H
  C72      1.0000 0.53683  0.29380  0.34564  Biso   1.000  C
  H52      1.0000 0.54590  0.22500  0.33650  Biso   1.000  H
  C73      1.0000 0.56763  0.37790  0.35028  Biso   1.000  C
  H53      1.0000 0.60240  0.37920  0.34480  Biso   1.000  H
  C74      1.0000 0.53874  0.46360  0.36470  Biso   1.000  C
  C75      1.0000 0.55492  0.56510  0.37466  Biso   1.000  C
  C76      1.0000 0.52492  0.64400  0.39058  Biso   1.000  C
  C77      1.0000 0.54100  0.74690  0.40227  Biso   1.000  C
  H54      1.0000 0.57410  0.77370  0.40090  Biso   1.000  H
  C78      1.0000 0.49970  0.80030  0.41594  Biso   1.000  C
  H55      1.0000 0.49840  0.87090  0.42580  Biso   1.000  H
  C79      1.0000 0.45950  0.72810  0.41222  Biso   1.000  C
  H56      1.0000 0.42620  0.74400  0.41970  Biso   1.000  H
  C80      1.0000 0.60826  0.59110  0.36771  Biso   1.000  C
  C81      1.0000 0.62199  0.66050  0.33786  Biso   1.000  C
  H57      1.0000 0.59770  0.68790  0.32000  Biso   1.000  H
  C82      1.0000 0.67155  0.69000  0.33411  Biso   1.000  C
  H58      1.0000 0.68020  0.73850  0.31350  Biso   1.000  H
  C83      1.0000 0.69440  0.58300  0.38483  Biso   1.000  C
  H59      1.0000 0.71980  0.55400  0.40130  Biso   1.000  H
  C84      1.0000 0.64590  0.54820  0.39059  Biso   1.000  C
  H60      1.0000 0.63870  0.49550  0.41000  Biso   1.000  H
  N10      1.0000 0.87260  0.90420  0.60146  Biso   1.000  N
  N11      1.0000 0.94088  0.02900  0.55941  Biso   1.000  N
  N12      1.0000 0.81271  0.80020  0.42020  Biso   1.000  N
  N13      1.0000 0.92683  0.05980  0.17028  Biso   1.000  N
  N14      1.0000 0.88737  0.89410  0.12398  Biso   1.000  N
  N15      1.0000 0.80343  0.80270  0.30208  Biso   1.000  N
  N16      1.0000 0.48913  0.42880  0.36877  Biso   1.000  N
  N17      1.0000 0.47365  0.63640  0.39717  Biso   1.000  N
  N18      1.0000 0.70741  0.65440  0.35757  Biso   1.000  N
  Co2      1.0000 0.93192  0.01444  0.11473  Biso   1.000  Co
  Ag3      1.0000 0.77999  0.25796  0.86245  Biso   1.000  Ag
  C85      1.0000 0.84450  0.14870  0.12725  Biso   1.000  C
  H61      1.0000 0.84880  0.14720  0.15540  Biso   1.000  H
  C86      1.0000 0.80690  0.20800  0.10701  Biso   1.000  C
  H62      1.0000 0.78130  0.24960  0.11890  Biso   1.000  H
  C87      1.0000 0.81470  0.19340  0.06759  Biso   1.000  C
  H63      1.0000 0.79650  0.22530  0.04640  Biso   1.000  H
  C88      1.0000 0.85539  0.12120  0.06346  Biso   1.000  C
  C89      1.0000 0.87612  0.08050  0.02819  Biso   1.000  C
  C90      1.0000 0.91516  0.00780  0.02631  Biso   1.000  C
  C91      1.0000 0.93260  0.95350  0.99191  Biso   1.000  C
  H64      1.0000 0.92140  0.96380  0.96530  Biso   1.000  H
  C92      1.0000 0.96810  0.88400  0.00408  Biso   1.000  C
  H65      1.0000 0.98610  0.83540  0.98790  Biso   1.000  H
  C93      1.0000 0.97285  0.89840  0.04571  Biso   1.000  C
  H66      1.0000 0.99600  0.86110  0.06200  Biso   1.000  H
  C94      1.0000 0.85377  0.11890  0.99037  Biso   1.000  C
  C95      1.0000 0.88113  0.18290  0.96475  Biso   1.000  C
  H67      1.0000 0.91480  0.19970  0.97080  Biso   1.000  H
  C96      1.0000 0.85927  0.22240  0.93026  Biso   1.000  C
  H68      1.0000 0.87830  0.26710  0.91330  Biso   1.000  H
  C97      1.0000 0.78630  0.13710  0.94466  Biso   1.000  C
  H69      1.0000 0.75310  0.11940  0.93720  Biso   1.000  H
  C98      1.0000 0.80430  0.09780  0.97938  Biso   1.000  C
  H70      1.0000 0.78360  0.05610  0.99620  Biso   1.000  H
  C99      1.0000 0.94977  0.85540  0.68652  Biso   1.000  C
  H71      1.0000 0.97030  0.80730  0.67220  Biso   1.000  H
  C100     1.0000 0.93920  0.84770  0.72768  Biso   1.000  C
  H72      1.0000 0.95060  0.79450  0.74560  Biso   1.000  H
  C101     1.0000 0.90950  0.93140  0.73664  Biso   1.000  C
  H73      1.0000 0.89670  0.94800  0.76240  Biso   1.000  H
  C102     1.0000 0.90070  0.99020  0.70108  Biso   1.000  C
  C103     1.0000 0.87193  0.08000  0.69564  Biso   1.000  C
  C104     1.0000 0.86488  0.13410  0.65999  Biso   1.000  C
  C105     1.0000 0.83414  0.22340  0.65264  Biso   1.000  C
  H74      1.0000 0.81400  0.25910  0.67170  Biso   1.000  H
  C106     1.0000 0.83870  0.24900  0.61318  Biso   1.000  C
  H75      1.0000 0.82290  0.30590  0.59950  Biso   1.000  H
  C107     1.0000 0.87159  0.17340  0.59701  Biso   1.000  C
  H76      1.0000 0.88130  0.17160  0.56970  Biso   1.000  H
  C108     1.0000 0.84631  0.12130  0.73225  Biso   1.000  C
  C109     1.0000 0.81233  0.06330  0.75321  Biso   1.000  C
  H77      1.0000 0.80280  0.99500  0.74390  Biso   1.000  H
  C110     1.0000 0.79154  0.10290  0.78796  Biso   1.000  C
  H78      1.0000 0.76800  0.06090  0.80210  Biso   1.000  H
  C111     1.0000 0.83570  0.25470  0.78128  Biso   1.000  C
  H79      1.0000 0.84390  0.32320  0.79110  Biso   1.000  H
  C112     1.0000 0.85800  0.22230  0.74662  Biso   1.000  C
  H80      1.0000 0.88070  0.26700  0.73280  Biso   1.000  H
  C113     1.0000 0.48910  0.67250  0.85687  Biso   1.000  C
  H81      1.0000 0.46020  0.71610  0.85610  Biso   1.000  H
  C114     1.0000 0.53683  0.70620  0.84564  Biso   1.000  C
  H82      1.0000 0.54590  0.77500  0.83650  Biso   1.000  H
  C115     1.0000 0.56763  0.62210  0.85028  Biso   1.000  C
  H83      1.0000 0.60240  0.62080  0.84480  Biso   1.000  H
  C116     1.0000 0.53874  0.53640  0.86470  Biso   1.000  C
  C117     1.0000 0.55492  0.43490  0.87466  Biso   1.000  C
  C118     1.0000 0.52492  0.35600  0.89058  Biso   1.000  C
  C119     1.0000 0.54100  0.25310  0.90227  Biso   1.000  C
  H84      1.0000 0.57410  0.22630  0.90090  Biso   1.000  H
  C120     1.0000 0.49970  0.19970  0.91594  Biso   1.000  C
  H85      1.0000 0.49840  0.12910  0.92580  Biso   1.000  H
  C121     1.0000 0.45950  0.27190  0.91222  Biso   1.000  C
  H86      1.0000 0.42620  0.25600  0.91970  Biso   1.000  H
  C122     1.0000 0.60826  0.40890  0.86771  Biso   1.000  C
  C123     1.0000 0.62199  0.33950  0.83786  Biso   1.000  C
  H87      1.0000 0.59770  0.31210  0.82000  Biso   1.000  H
  C124     1.0000 0.67155  0.31000  0.83411  Biso   1.000  C
  H88      1.0000 0.68020  0.26150  0.81350  Biso   1.000  H
  C125     1.0000 0.69440  0.41700  0.88483  Biso   1.000  C
  H89      1.0000 0.71980  0.44600  0.90130  Biso   1.000  H
  C126     1.0000 0.64590  0.45180  0.89059  Biso   1.000  C
  H90      1.0000 0.63870  0.50450  0.91000  Biso   1.000  H
  N19      1.0000 0.87260  0.09580  0.10146  Biso   1.000  N
  N20      1.0000 0.94088  0.97100  0.05941  Biso   1.000  N
  N21      1.0000 0.81271  0.19980  0.92020  Biso   1.000  N
  N22      1.0000 0.92683  0.94020  0.67028  Biso   1.000  N
  N23      1.0000 0.88737  0.10590  0.62398  Biso   1.000  N
  N24      1.0000 0.80343  0.19730  0.80208  Biso   1.000  N
  N25      1.0000 0.48913  0.57120  0.86877  Biso   1.000  N
  N26      1.0000 0.47365  0.36360  0.89717  Biso   1.000  N
  N27      1.0000 0.70741  0.34560  0.85757  Biso   1.000  N
  Ag4      1.0000 0.27999  0.24204  0.13755  Biso   1.000  Ag
  C127     1.0000 0.34450  0.35130  0.87275  Biso   1.000  C
  H91      1.0000 0.34880  0.35280  0.84460  Biso   1.000  H
  C128     1.0000 0.30690  0.29200  0.89299  Biso   1.000  C
  H92      1.0000 0.28130  0.25040  0.88110  Biso   1.000  H
  C129     1.0000 0.31470  0.30660  0.93241  Biso   1.000  C
  H93      1.0000 0.29650  0.27470  0.95360  Biso   1.000  H
  C130     1.0000 0.35539  0.37880  0.93654  Biso   1.000  C
  C131     1.0000 0.37612  0.41950  0.97181  Biso   1.000  C
  C132     1.0000 0.41516  0.49220  0.97369  Biso   1.000  C
  C133     1.0000 0.43260  0.54650  0.00809  Biso   1.000  C
  H94      1.0000 0.42140  0.53620  0.03470  Biso   1.000  H
  C134     1.0000 0.46810  0.61600  0.99592  Biso   1.000  C
  H95      1.0000 0.48610  0.66460  0.01210  Biso   1.000  H
  C135     1.0000 0.47285  0.60160  0.95429  Biso   1.000  C
  H96      1.0000 0.49600  0.63890  0.93800  Biso   1.000  H
  C136     1.0000 0.35377  0.38110  0.00963  Biso   1.000  C
  C137     1.0000 0.38113  0.31710  0.03525  Biso   1.000  C
  H97      1.0000 0.41480  0.30030  0.02920  Biso   1.000  H
  C138     1.0000 0.35927  0.27760  0.06974  Biso   1.000  C
  H98      1.0000 0.37830  0.23290  0.08670  Biso   1.000  H
  C139     1.0000 0.28630  0.36290  0.05534  Biso   1.000  C
  H99      1.0000 0.25310  0.38060  0.06280  Biso   1.000  H
  C140     1.0000 0.30430  0.40220  0.02062  Biso   1.000  C
  H100     1.0000 0.28360  0.44390  0.00380  Biso   1.000  H
  C141     1.0000 0.44977  0.64460  0.31348  Biso   1.000  C
  H101     1.0000 0.47030  0.69270  0.32780  Biso   1.000  H
  C142     1.0000 0.43920  0.65230  0.27232  Biso   1.000  C
  H102     1.0000 0.45060  0.70550  0.25440  Biso   1.000  H
  C143     1.0000 0.40950  0.56860  0.26336  Biso   1.000  C
  H103     1.0000 0.39670  0.55200  0.23760  Biso   1.000  H
  C144     1.0000 0.40070  0.50980  0.29892  Biso   1.000  C
  C145     1.0000 0.37193  0.42000  0.30436  Biso   1.000  C
  C146     1.0000 0.36488  0.36590  0.34001  Biso   1.000  C
  C147     1.0000 0.33414  0.27660  0.34736  Biso   1.000  C
  H104     1.0000 0.31400  0.24090  0.32830  Biso   1.000  H
  C148     1.0000 0.33870  0.25100  0.38682  Biso   1.000  C
  H105     1.0000 0.32290  0.19410  0.40050  Biso   1.000  H
  C149     1.0000 0.37159  0.32660  0.40299  Biso   1.000  C
  H106     1.0000 0.38130  0.32840  0.43030  Biso   1.000  H
  C150     1.0000 0.34631  0.37870  0.26775  Biso   1.000  C
  C151     1.0000 0.31233  0.43670  0.24679  Biso   1.000  C
  H107     1.0000 0.30280  0.50500  0.25610  Biso   1.000  H
  C152     1.0000 0.29154  0.39710  0.21204  Biso   1.000  C
  H108     1.0000 0.26800  0.43910  0.19790  Biso   1.000  H
  C153     1.0000 0.33570  0.24530  0.21872  Biso   1.000  C
  H109     1.0000 0.34390  0.17680  0.20890  Biso   1.000  H
  C154     1.0000 0.35800  0.27770  0.25338  Biso   1.000  C
  H110     1.0000 0.38070  0.23300  0.26720  Biso   1.000  H
  C155     1.0000 0.98910  0.82750  0.14313  Biso   1.000  C
  H111     1.0000 0.96020  0.78390  0.14390  Biso   1.000  H
  C156     1.0000 0.03683  0.79380  0.15436  Biso   1.000  C
  H112     1.0000 0.04590  0.72500  0.16350  Biso   1.000  H
  C157     1.0000 0.06763  0.87790  0.14972  Biso   1.000  C
  H113     1.0000 0.10240  0.87920  0.15520  Biso   1.000  H
  C158     1.0000 0.03874  0.96360  0.13530  Biso   1.000  C
  C159     1.0000 0.05492  0.06510  0.12534  Biso   1.000  C
  C160     1.0000 0.02492  0.14400  0.10942  Biso   1.000  C
  C161     1.0000 0.04100  0.24690  0.09773  Biso   1.000  C
  H114     1.0000 0.07410  0.27370  0.09910  Biso   1.000  H
  C162     1.0000 0.99970  0.30030  0.08406  Biso   1.000  C
  H115     1.0000 0.99840  0.37090  0.07420  Biso   1.000  H
  C163     1.0000 0.95950  0.22810  0.08778  Biso   1.000  C
  H116     1.0000 0.92620  0.24400  0.08030  Biso   1.000  H
  C164     1.0000 0.10826  0.09110  0.13229  Biso   1.000  C
  C165     1.0000 0.12199  0.16050  0.16214  Biso   1.000  C
  H117     1.0000 0.09770  0.18790  0.18000  Biso   1.000  H
  C166     1.0000 0.17155  0.19000  0.16589  Biso   1.000  C
  H118     1.0000 0.18020  0.23850  0.18650  Biso   1.000  H
  C167     1.0000 0.19440  0.08300  0.11517  Biso   1.000  C
  H119     1.0000 0.21980  0.05400  0.09870  Biso   1.000  H
  C168     1.0000 0.14590  0.04820  0.10941  Biso   1.000  C
  H120     1.0000 0.13870  0.99550  0.09000  Biso   1.000  H
  N28      1.0000 0.37260  0.40420  0.89854  Biso   1.000  N
  N29      1.0000 0.44088  0.52900  0.94059  Biso   1.000  N
  N30      1.0000 0.31271  0.30020  0.07980  Biso   1.000  N
  N31      1.0000 0.42683  0.55980  0.32972  Biso   1.000  N
  N32      1.0000 0.38737  0.39410  0.37602  Biso   1.000  N
  N33      1.0000 0.30343  0.30270  0.19792  Biso   1.000  N
  N34      1.0000 0.98913  0.92880  0.13123  Biso   1.000  N
  N35      1.0000 0.97365  0.13640  0.10283  Biso   1.000  N
  N36      1.0000 0.20741  0.15440  0.14243  Biso   1.000  N
  Ag5      1.0000 0.22001  0.74204  0.13755  Biso   1.000  Ag
  Fe3      1.0000 0.06808  0.98556  0.88527  Biso   1.000  Fe
  C169     1.0000 0.15550  0.85130  0.87275  Biso   1.000  C
  H121     1.0000 0.15120  0.85280  0.84460  Biso   1.000  H
  C170     1.0000 0.19310  0.79200  0.89299  Biso   1.000  C
  H122     1.0000 0.21870  0.75040  0.88110  Biso   1.000  H
  C171     1.0000 0.18530  0.80660  0.93241  Biso   1.000  C
  H123     1.0000 0.20350  0.77470  0.95360  Biso   1.000  H
  C172     1.0000 0.14461  0.87880  0.93654  Biso   1.000  C
  C173     1.0000 0.12388  0.91950  0.97181  Biso   1.000  C
  C174     1.0000 0.08484  0.99220  0.97369  Biso   1.000  C
  C175     1.0000 0.06740  0.04650  0.00809  Biso   1.000  C
  H124     1.0000 0.07860  0.03620  0.03470  Biso   1.000  H
  C176     1.0000 0.03190  0.11600  0.99592  Biso   1.000  C
  H125     1.0000 0.01390  0.16460  0.01210  Biso   1.000  H
  C177     1.0000 0.02715  0.10160  0.95429  Biso   1.000  C
  H126     1.0000 0.00400  0.13890  0.93800  Biso   1.000  H
  C178     1.0000 0.14623  0.88110  0.00963  Biso   1.000  C
  C179     1.0000 0.11887  0.81710  0.03525  Biso   1.000  C
  H127     1.0000 0.08520  0.80030  0.02920  Biso   1.000  H
  C180     1.0000 0.14073  0.77760  0.06974  Biso   1.000  C
  H128     1.0000 0.12170  0.73290  0.08670  Biso   1.000  H
  C181     1.0000 0.21370  0.86290  0.05534  Biso   1.000  C
  H129     1.0000 0.24690  0.88060  0.06280  Biso   1.000  H
  C182     1.0000 0.19570  0.90220  0.02062  Biso   1.000  C
  H130     1.0000 0.21640  0.94390  0.00380  Biso   1.000  H
  C183     1.0000 0.05023  0.14460  0.31348  Biso   1.000  C
  H131     1.0000 0.02970  0.19270  0.32780  Biso   1.000  H
  C184     1.0000 0.06080  0.15230  0.27232  Biso   1.000  C
  H132     1.0000 0.04940  0.20550  0.25440  Biso   1.000  H
  C185     1.0000 0.09050  0.06860  0.26336  Biso   1.000  C
  H133     1.0000 0.10330  0.05200  0.23760  Biso   1.000  H
  C186     1.0000 0.09930  0.00980  0.29892  Biso   1.000  C
  C187     1.0000 0.12807  0.92000  0.30436  Biso   1.000  C
  C188     1.0000 0.13512  0.86590  0.34001  Biso   1.000  C
  C189     1.0000 0.16586  0.77660  0.34736  Biso   1.000  C
  H134     1.0000 0.18600  0.74090  0.32830  Biso   1.000  H
  C190     1.0000 0.16130  0.75100  0.38682  Biso   1.000  C
  H135     1.0000 0.17710  0.69410  0.40050  Biso   1.000  H
  C191     1.0000 0.12841  0.82660  0.40299  Biso   1.000  C
  H136     1.0000 0.11870  0.82840  0.43030  Biso   1.000  H
  C192     1.0000 0.15369  0.87870  0.26775  Biso   1.000  C
  C193     1.0000 0.18767  0.93670  0.24679  Biso   1.000  C
  H137     1.0000 0.19720  0.00500  0.25610  Biso   1.000  H
  C194     1.0000 0.20846  0.89710  0.21204  Biso   1.000  C
  H138     1.0000 0.23200  0.93910  0.19790  Biso   1.000  H
  C195     1.0000 0.16430  0.74530  0.21872  Biso   1.000  C
  H139     1.0000 0.15610  0.67680  0.20890  Biso   1.000  H
  C196     1.0000 0.14200  0.77770  0.25338  Biso   1.000  C
  H140     1.0000 0.11930  0.73300  0.26720  Biso   1.000  H
  C197     1.0000 0.51090  0.32750  0.14313  Biso   1.000  C
  H141     1.0000 0.53980  0.28390  0.14390  Biso   1.000  H
  C198     1.0000 0.46317  0.29380  0.15436  Biso   1.000  C
  H142     1.0000 0.45410  0.22500  0.16350  Biso   1.000  H
  C199     1.0000 0.43237  0.37790  0.14972  Biso   1.000  C
  H143     1.0000 0.39760  0.37920  0.15520  Biso   1.000  H
  C200     1.0000 0.46126  0.46360  0.13530  Biso   1.000  C
  C201     1.0000 0.44508  0.56510  0.12534  Biso   1.000  C
  C202     1.0000 0.47508  0.64400  0.10942  Biso   1.000  C
  C203     1.0000 0.45900  0.74690  0.09773  Biso   1.000  C
  H144     1.0000 0.42590  0.77370  0.09910  Biso   1.000  H
  C204     1.0000 0.50030  0.80030  0.08406  Biso   1.000  C
  H145     1.0000 0.50160  0.87090  0.07420  Biso   1.000  H
  C205     1.0000 0.54050  0.72810  0.08778  Biso   1.000  C
  H146     1.0000 0.57380  0.74400  0.08030  Biso   1.000  H
  C206     1.0000 0.39174  0.59110  0.13229  Biso   1.000  C
  C207     1.0000 0.37801  0.66050  0.16214  Biso   1.000  C
  H147     1.0000 0.40230  0.68790  0.18000  Biso   1.000  H
  C208     1.0000 0.32845  0.69000  0.16589  Biso   1.000  C
  H148     1.0000 0.31980  0.73850  0.18650  Biso   1.000  H
  C209     1.0000 0.30560  0.58300  0.11517  Biso   1.000  C
  H149     1.0000 0.28020  0.55400  0.09870  Biso   1.000  H
  C210     1.0000 0.35410  0.54820  0.10941  Biso   1.000  C
  H150     1.0000 0.36130  0.49550  0.09000  Biso   1.000  H
  N37      1.0000 0.12740  0.90420  0.89854  Biso   1.000  N
  N38      1.0000 0.05912  0.02900  0.94059  Biso   1.000  N
  N39      1.0000 0.18729  0.80020  0.07980  Biso   1.000  N
  N40      1.0000 0.07317  0.05980  0.32972  Biso   1.000  N
  N41      1.0000 0.11263  0.89410  0.37602  Biso   1.000  N
  N42      1.0000 0.19657  0.80270  0.19792  Biso   1.000  N
  N43      1.0000 0.51087  0.42880  0.13123  Biso   1.000  N
  N44      1.0000 0.52635  0.63640  0.10283  Biso   1.000  N
  N45      1.0000 0.29259  0.65440  0.14243  Biso   1.000  N
  Co3      1.0000 0.06808  0.01444  0.38527  Biso   1.000  Co
  Ag6      1.0000 0.72001  0.75796  0.86245  Biso   1.000  Ag
  Fe4      1.0000 0.56808  0.51444  0.11473  Biso   1.000  Fe
  C211     1.0000 0.65550  0.64870  0.12725  Biso   1.000  C
  H151     1.0000 0.65120  0.64720  0.15540  Biso   1.000  H
  C212     1.0000 0.69310  0.70800  0.10701  Biso   1.000  C
  H152     1.0000 0.71870  0.74960  0.11890  Biso   1.000  H
  C213     1.0000 0.68530  0.69340  0.06759  Biso   1.000  C
  H153     1.0000 0.70350  0.72530  0.04640  Biso   1.000  H
  C214     1.0000 0.64461  0.62120  0.06346  Biso   1.000  C
  C215     1.0000 0.62388  0.58050  0.02819  Biso   1.000  C
  C216     1.0000 0.58484  0.50780  0.02631  Biso   1.000  C
  C217     1.0000 0.56740  0.45350  0.99191  Biso   1.000  C
  H154     1.0000 0.57860  0.46380  0.96530  Biso   1.000  H
  C218     1.0000 0.53190  0.38400  0.00408  Biso   1.000  C
  H155     1.0000 0.51390  0.33540  0.98790  Biso   1.000  H
  C219     1.0000 0.52715  0.39840  0.04571  Biso   1.000  C
  H156     1.0000 0.50400  0.36110  0.06200  Biso   1.000  H
  C220     1.0000 0.64623  0.61890  0.99037  Biso   1.000  C
  C221     1.0000 0.61887  0.68290  0.96475  Biso   1.000  C
  H157     1.0000 0.58520  0.69970  0.97080  Biso   1.000  H
  C222     1.0000 0.64073  0.72240  0.93026  Biso   1.000  C
  H158     1.0000 0.62170  0.76710  0.91330  Biso   1.000  H
  C223     1.0000 0.71370  0.63710  0.94466  Biso   1.000  C
  H159     1.0000 0.74690  0.61940  0.93720  Biso   1.000  H
  C224     1.0000 0.69570  0.59780  0.97938  Biso   1.000  C
  H160     1.0000 0.71640  0.55610  0.99620  Biso   1.000  H
  C225     1.0000 0.55023  0.35540  0.68652  Biso   1.000  C
  H161     1.0000 0.52970  0.30730  0.67220  Biso   1.000  H
  C226     1.0000 0.56080  0.34770  0.72768  Biso   1.000  C
  H162     1.0000 0.54940  0.29450  0.74560  Biso   1.000  H
  C227     1.0000 0.59050  0.43140  0.73664  Biso   1.000  C
  H163     1.0000 0.60330  0.44800  0.76240  Biso   1.000  H
  C228     1.0000 0.59930  0.49020  0.70108  Biso   1.000  C
  C229     1.0000 0.62807  0.58000  0.69564  Biso   1.000  C
  C230     1.0000 0.63512  0.63410  0.65999  Biso   1.000  C
  C231     1.0000 0.66586  0.72340  0.65264  Biso   1.000  C
  H164     1.0000 0.68600  0.75910  0.67170  Biso   1.000  H
  C232     1.0000 0.66130  0.74900  0.61318  Biso   1.000  C
  H165     1.0000 0.67710  0.80590  0.59950  Biso   1.000  H
  C233     1.0000 0.62841  0.67340  0.59701  Biso   1.000  C
  H166     1.0000 0.61870  0.67160  0.56970  Biso   1.000  H
  C234     1.0000 0.65369  0.62130  0.73225  Biso   1.000  C
  C235     1.0000 0.68767  0.56330  0.75321  Biso   1.000  C
  H167     1.0000 0.69720  0.49500  0.74390  Biso   1.000  H
  C236     1.0000 0.70846  0.60290  0.78796  Biso   1.000  C
  H168     1.0000 0.73200  0.56090  0.80210  Biso   1.000  H
  C237     1.0000 0.66430  0.75470  0.78128  Biso   1.000  C
  H169     1.0000 0.65610  0.82320  0.79110  Biso   1.000  H
  C238     1.0000 0.64200  0.72230  0.74662  Biso   1.000  C
  H170     1.0000 0.61930  0.76700  0.73280  Biso   1.000  H
  C239     1.0000 0.01090  0.17250  0.85687  Biso   1.000  C
  H171     1.0000 0.03980  0.21610  0.85610  Biso   1.000  H
  C240     1.0000 0.96317  0.20620  0.84564  Biso   1.000  C
  H172     1.0000 0.95410  0.27500  0.83650  Biso   1.000  H
  C241     1.0000 0.93237  0.12210  0.85028  Biso   1.000  C
  H173     1.0000 0.89760  0.12080  0.84480  Biso   1.000  H
  C242     1.0000 0.96126  0.03640  0.86470  Biso   1.000  C
  C243     1.0000 0.94508  0.93490  0.87466  Biso   1.000  C
  C244     1.0000 0.97508  0.85600  0.89058  Biso   1.000  C
  C245     1.0000 0.95900  0.75310  0.90227  Biso   1.000  C
  H174     1.0000 0.92590  0.72630  0.90090  Biso   1.000  H
  C246     1.0000 0.00030  0.69970  0.91594  Biso   1.000  C
  H175     1.0000 0.00160  0.62910  0.92580  Biso   1.000  H
  C247     1.0000 0.04050  0.77190  0.91222  Biso   1.000  C
  H176     1.0000 0.07380  0.75600  0.91970  Biso   1.000  H
  C248     1.0000 0.89174  0.90890  0.86771  Biso   1.000  C
  C249     1.0000 0.87801  0.83950  0.83786  Biso   1.000  C
  H177     1.0000 0.90230  0.81210  0.82000  Biso   1.000  H
  C250     1.0000 0.82845  0.81000  0.83411  Biso   1.000  C
  H178     1.0000 0.81980  0.76150  0.81350  Biso   1.000  H
  C251     1.0000 0.80560  0.91700  0.88483  Biso   1.000  C
  H179     1.0000 0.78020  0.94600  0.90130  Biso   1.000  H
  C252     1.0000 0.85410  0.95180  0.89059  Biso   1.000  C
  H180     1.0000 0.86130  0.00450  0.91000  Biso   1.000  H
  N46      1.0000 0.62740  0.59580  0.10146  Biso   1.000  N
  N47      1.0000 0.55912  0.47100  0.05941  Biso   1.000  N
  N48      1.0000 0.68729  0.69980  0.92020  Biso   1.000  N
  N49      1.0000 0.57317  0.44020  0.67028  Biso   1.000  N
  N50      1.0000 0.61263  0.60590  0.62398  Biso   1.000  N
  N51      1.0000 0.69657  0.69730  0.80208  Biso   1.000  N
  N52      1.0000 0.01087  0.07120  0.86877  Biso   1.000  N
  N53      1.0000 0.02635  0.86360  0.89717  Biso   1.000  N
  N54      1.0000 0.79259  0.84560  0.85757  Biso   1.000  N
  Co4      1.0000 0.56808  0.48556  0.61473  Biso   1.000  Co
  Ag7      1.0000 0.72001  0.24204  0.36245  Biso   1.000  Ag
  C253     1.0000 0.65550  0.35130  0.62725  Biso   1.000  C
  H181     1.0000 0.65120  0.35280  0.65540  Biso   1.000  H
  C254     1.0000 0.69310  0.29200  0.60701  Biso   1.000  C
  H182     1.0000 0.71870  0.25040  0.61890  Biso   1.000  H
  C255     1.0000 0.68530  0.30660  0.56759  Biso   1.000  C
  H183     1.0000 0.70350  0.27470  0.54640  Biso   1.000  H
  C256     1.0000 0.64461  0.37880  0.56346  Biso   1.000  C
  C257     1.0000 0.62388  0.41950  0.52819  Biso   1.000  C
  C258     1.0000 0.58484  0.49220  0.52631  Biso   1.000  C
  C259     1.0000 0.56740  0.54650  0.49191  Biso   1.000  C
  H184     1.0000 0.57860  0.53620  0.46530  Biso   1.000  H
  C260     1.0000 0.53190  0.61600  0.50408  Biso   1.000  C
  H185     1.0000 0.51390  0.66460  0.48790  Biso   1.000  H
  C261     1.0000 0.52715  0.60160  0.54571  Biso   1.000  C
  H186     1.0000 0.50400  0.63890  0.56200  Biso   1.000  H
  C262     1.0000 0.64623  0.38110  0.49037  Biso   1.000  C
  C263     1.0000 0.61887  0.31710  0.46475  Biso   1.000  C
  H187     1.0000 0.58520  0.30030  0.47080  Biso   1.000  H
  C264     1.0000 0.64073  0.27760  0.43026  Biso   1.000  C
  H188     1.0000 0.62170  0.23290  0.41330  Biso   1.000  H
  C265     1.0000 0.71370  0.36290  0.44466  Biso   1.000  C
  H189     1.0000 0.74690  0.38060  0.43720  Biso   1.000  H
  C266     1.0000 0.69570  0.40220  0.47938  Biso   1.000  C
  H190     1.0000 0.71640  0.44390  0.49620  Biso   1.000  H
  C267     1.0000 0.55023  0.64460  0.18652  Biso   1.000  C
  H191     1.0000 0.52970  0.69270  0.17220  Biso   1.000  H
  C268     1.0000 0.56080  0.65230  0.22768  Biso   1.000  C
  H192     1.0000 0.54940  0.70550  0.24560  Biso   1.000  H
  C269     1.0000 0.59050  0.56860  0.23664  Biso   1.000  C
  H193     1.0000 0.60330  0.55200  0.26240  Biso   1.000  H
  C270     1.0000 0.59930  0.50980  0.20108  Biso   1.000  C
  C271     1.0000 0.62807  0.42000  0.19564  Biso   1.000  C
  C272     1.0000 0.63512  0.36590  0.15999  Biso   1.000  C
  C273     1.0000 0.66586  0.27660  0.15264  Biso   1.000  C
  H194     1.0000 0.68600  0.24090  0.17170  Biso   1.000  H
  C274     1.0000 0.66130  0.25100  0.11318  Biso   1.000  C
  H195     1.0000 0.67710  0.19410  0.09950  Biso   1.000  H
  C275     1.0000 0.62841  0.32660  0.09701  Biso   1.000  C
  H196     1.0000 0.61870  0.32840  0.06970  Biso   1.000  H
  C276     1.0000 0.65369  0.37870  0.23225  Biso   1.000  C
  C277     1.0000 0.68767  0.43670  0.25321  Biso   1.000  C
  H197     1.0000 0.69720  0.50500  0.24390  Biso   1.000  H
  C278     1.0000 0.70846  0.39710  0.28796  Biso   1.000  C
  H198     1.0000 0.73200  0.43910  0.30210  Biso   1.000  H
  C279     1.0000 0.66430  0.24530  0.28128  Biso   1.000  C
  H199     1.0000 0.65610  0.17680  0.29110  Biso   1.000  H
  C280     1.0000 0.64200  0.27770  0.24662  Biso   1.000  C
  H200     1.0000 0.61930  0.23300  0.23280  Biso   1.000  H
  C281     1.0000 0.01090  0.82750  0.35687  Biso   1.000  C
  H201     1.0000 0.03980  0.78390  0.35610  Biso   1.000  H
  C282     1.0000 0.96317  0.79380  0.34564  Biso   1.000  C
  H202     1.0000 0.95410  0.72500  0.33650  Biso   1.000  H
  C283     1.0000 0.93237  0.87790  0.35028  Biso   1.000  C
  H203     1.0000 0.89760  0.87920  0.34480  Biso   1.000  H
  C284     1.0000 0.96126  0.96360  0.36470  Biso   1.000  C
  C285     1.0000 0.94508  0.06510  0.37466  Biso   1.000  C
  C286     1.0000 0.97508  0.14400  0.39058  Biso   1.000  C
  C287     1.0000 0.95900  0.24690  0.40227  Biso   1.000  C
  H204     1.0000 0.92590  0.27370  0.40090  Biso   1.000  H
  C288     1.0000 0.00030  0.30030  0.41594  Biso   1.000  C
  H205     1.0000 0.00160  0.37090  0.42580  Biso   1.000  H
  C289     1.0000 0.04050  0.22810  0.41222  Biso   1.000  C
  H206     1.0000 0.07380  0.24400  0.41970  Biso   1.000  H
  C290     1.0000 0.89174  0.09110  0.36771  Biso   1.000  C
  C291     1.0000 0.87801  0.16050  0.33786  Biso   1.000  C
  H207     1.0000 0.90230  0.18790  0.32000  Biso   1.000  H
  C292     1.0000 0.82845  0.19000  0.33411  Biso   1.000  C
  H208     1.0000 0.81980  0.23850  0.31350  Biso   1.000  H
  C293     1.0000 0.80560  0.08300  0.38483  Biso   1.000  C
  H209     1.0000 0.78020  0.05400  0.40130  Biso   1.000  H
  C294     1.0000 0.85410  0.04820  0.39059  Biso   1.000  C
  H210     1.0000 0.86130  0.99550  0.41000  Biso   1.000  H
  N55      1.0000 0.62740  0.40420  0.60146  Biso   1.000  N
  N56      1.0000 0.55912  0.52900  0.55941  Biso   1.000  N
  N57      1.0000 0.68729  0.30020  0.42020  Biso   1.000  N
  N58      1.0000 0.57317  0.55980  0.17028  Biso   1.000  N
  N59      1.0000 0.61263  0.39410  0.12398  Biso   1.000  N
  N60      1.0000 0.69657  0.30270  0.30208  Biso   1.000  N
  N61      1.0000 0.01087  0.92880  0.36877  Biso   1.000  N
  N62      1.0000 0.02635  0.13640  0.39717  Biso   1.000  N
  N63      1.0000 0.79259  0.15440  0.35757  Biso   1.000  N
  Ag8      1.0000 0.22001  0.25796  0.63755  Biso   1.000  Ag
  C295     1.0000 0.15550  0.14870  0.37275  Biso   1.000  C
  H211     1.0000 0.15120  0.14720  0.34460  Biso   1.000  H
  C296     1.0000 0.19310  0.20800  0.39299  Biso   1.000  C
  H212     1.0000 0.21870  0.24960  0.38110  Biso   1.000  H
  C297     1.0000 0.18530  0.19340  0.43241  Biso   1.000  C
  H213     1.0000 0.20350  0.22530  0.45360  Biso   1.000  H
  C298     1.0000 0.14461  0.12120  0.43654  Biso   1.000  C
  C299     1.0000 0.12388  0.08050  0.47181  Biso   1.000  C
  C300     1.0000 0.08484  0.00780  0.47369  Biso   1.000  C
  C301     1.0000 0.06740  0.95350  0.50809  Biso   1.000  C
  H214     1.0000 0.07860  0.96380  0.53470  Biso   1.000  H
  C302     1.0000 0.03190  0.88400  0.49592  Biso   1.000  C
  H215     1.0000 0.01390  0.83540  0.51210  Biso   1.000  H
  C303     1.0000 0.02715  0.89840  0.45429  Biso   1.000  C
  H216     1.0000 0.00400  0.86110  0.43800  Biso   1.000  H
  C304     1.0000 0.14623  0.11890  0.50963  Biso   1.000  C
  C305     1.0000 0.11887  0.18290  0.53525  Biso   1.000  C
  H217     1.0000 0.08520  0.19970  0.52920  Biso   1.000  H
  C306     1.0000 0.14073  0.22240  0.56974  Biso   1.000  C
  H218     1.0000 0.12170  0.26710  0.58670  Biso   1.000  H
  C307     1.0000 0.21370  0.13710  0.55534  Biso   1.000  C
  H219     1.0000 0.24690  0.11940  0.56280  Biso   1.000  H
  C308     1.0000 0.19570  0.09780  0.52062  Biso   1.000  C
  H220     1.0000 0.21640  0.05610  0.50380  Biso   1.000  H
  C309     1.0000 0.05023  0.85540  0.81348  Biso   1.000  C
  H221     1.0000 0.02970  0.80730  0.82780  Biso   1.000  H
  C310     1.0000 0.06080  0.84770  0.77232  Biso   1.000  C
  H222     1.0000 0.04940  0.79450  0.75440  Biso   1.000  H
  C311     1.0000 0.09050  0.93140  0.76336  Biso   1.000  C
  H223     1.0000 0.10330  0.94800  0.73760  Biso   1.000  H
  C312     1.0000 0.09930  0.99020  0.79892  Biso   1.000  C
  C313     1.0000 0.12807  0.08000  0.80436  Biso   1.000  C
  C314     1.0000 0.13512  0.13410  0.84001  Biso   1.000  C
  C315     1.0000 0.16586  0.22340  0.84736  Biso   1.000  C
  H224     1.0000 0.18600  0.25910  0.82830  Biso   1.000  H
  C316     1.0000 0.16130  0.24900  0.88682  Biso   1.000  C
  H225     1.0000 0.17710  0.30590  0.90050  Biso   1.000  H
  C317     1.0000 0.12841  0.17340  0.90299  Biso   1.000  C
  H226     1.0000 0.11870  0.17160  0.93030  Biso   1.000  H
  C318     1.0000 0.15369  0.12130  0.76775  Biso   1.000  C
  C319     1.0000 0.18767  0.06330  0.74679  Biso   1.000  C
  H227     1.0000 0.19720  0.99500  0.75610  Biso   1.000  H
  C320     1.0000 0.20846  0.10290  0.71204  Biso   1.000  C
  H228     1.0000 0.23200  0.06090  0.69790  Biso   1.000  H
  C321     1.0000 0.16430  0.25470  0.71872  Biso   1.000  C
  H229     1.0000 0.15610  0.32320  0.70890  Biso   1.000  H
  C322     1.0000 0.14200  0.22230  0.75338  Biso   1.000  C
  H230     1.0000 0.11930  0.26700  0.76720  Biso   1.000  H
  C323     1.0000 0.51090  0.67250  0.64313  Biso   1.000  C
  H231     1.0000 0.53980  0.71610  0.64390  Biso   1.000  H
  C324     1.0000 0.46317  0.70620  0.65436  Biso   1.000  C
  H232     1.0000 0.45410  0.77500  0.66350  Biso   1.000  H
  C325     1.0000 0.43237  0.62210  0.64972  Biso   1.000  C
  H233     1.0000 0.39760  0.62080  0.65520  Biso   1.000  H
  C326     1.0000 0.46126  0.53640  0.63530  Biso   1.000  C
  C327     1.0000 0.44508  0.43490  0.62534  Biso   1.000  C
  C328     1.0000 0.47508  0.35600  0.60942  Biso   1.000  C
  C329     1.0000 0.45900  0.25310  0.59773  Biso   1.000  C
  H234     1.0000 0.42590  0.22630  0.59910  Biso   1.000  H
  C330     1.0000 0.50030  0.19970  0.58406  Biso   1.000  C
  H235     1.0000 0.50160  0.12910  0.57420  Biso   1.000  H
  C331     1.0000 0.54050  0.27190  0.58778  Biso   1.000  C
  H236     1.0000 0.57380  0.25600  0.58030  Biso   1.000  H
  C332     1.0000 0.39174  0.40890  0.63229  Biso   1.000  C
  C333     1.0000 0.37801  0.33950  0.66214  Biso   1.000  C
  H237     1.0000 0.40230  0.31210  0.68000  Biso   1.000  H
  C334     1.0000 0.32845  0.31000  0.66589  Biso   1.000  C
  H238     1.0000 0.31980  0.26150  0.68650  Biso   1.000  H
  C335     1.0000 0.30560  0.41700  0.61517  Biso   1.000  C
  H239     1.0000 0.28020  0.44600  0.59870  Biso   1.000  H
  C336     1.0000 0.35410  0.45180  0.60941  Biso   1.000  C
  H240     1.0000 0.36130  0.50450  0.59000  Biso   1.000  H
  N64      1.0000 0.12740  0.09580  0.39854  Biso   1.000  N
  N65      1.0000 0.05912  0.97100  0.44059  Biso   1.000  N
  N66      1.0000 0.18729  0.19980  0.57980  Biso   1.000  N
  N67      1.0000 0.07317  0.94020  0.82972  Biso   1.000  N
  N68      1.0000 0.11263  0.10590  0.87602  Biso   1.000  N
  N69      1.0000 0.19657  0.19730  0.69792  Biso   1.000  N
  N70      1.0000 0.51087  0.57120  0.63123  Biso   1.000  N
  N71      1.0000 0.52635  0.36360  0.60283  Biso   1.000  N
  N72      1.0000 0.29259  0.34560  0.64243  Biso   1.000  N
