data_image0
_cell_length_a       19.522
_cell_length_b       19.522
_cell_length_c       33.791
_cell_angle_alpha    90
_cell_angle_beta     90
_cell_angle_gamma    90

_symmetry_space_group_name_H-M    P 1
_symmetry_int_tables_number       1

loop_
  _symmetry_equiv_pos_as_xyz
  'x, y, z'

loop_
  _atom_site_label
  _atom_site_occupancy
  _atom_site_fract_x
  _atom_site_fract_y
  _atom_site_fract_z
  _atom_site_thermal_displace_type
  _atom_site_B_iso_or_equiv
  _atom_site_type_symbol
  Cd1      1.0000 0.64422  0.15790  0.74915  Biso   1.000  Cd
  Cd2      1.0000 0.35578  0.84210  0.74915  Biso   1.000  Cd
  Cd3      1.0000 0.84210  0.64422  0.24915  Biso   1.000  Cd
  Cd4      1.0000 0.15790  0.35578  0.24915  Biso   1.000  Cd
  Cd5      1.0000 0.35578  0.84210  0.25085  Biso   1.000  Cd
  Cd6      1.0000 0.64422  0.15790  0.25085  Biso   1.000  Cd
  Cd7      1.0000 0.15790  0.35578  0.75085  Biso   1.000  Cd
  Cd8      1.0000 0.84210  0.64422  0.75085  Biso   1.000  Cd
  Cd9      1.0000 0.67136  0.37773  0.00000  Biso   1.000  Cd
  Cd10     1.0000 0.32864  0.62227  0.00000  Biso   1.000  Cd
  Cd11     1.0000 0.62227  0.67136  0.50000  Biso   1.000  Cd
  Cd12     1.0000 0.37773  0.32864  0.50000  Biso   1.000  Cd
  Cd13     1.0000 0.89128  0.17985  0.50000  Biso   1.000  Cd
  Cd14     1.0000 0.10872  0.82015  0.50000  Biso   1.000  Cd
  Cd15     1.0000 0.82015  0.89128  0.00000  Biso   1.000  Cd
  Cd16     1.0000 0.17985  0.10872  0.00000  Biso   1.000  Cd
  H1       1.0000 0.50600  0.35540  0.96570  Biso   1.000  H
  H2       1.0000 0.54070  0.09220  0.81710  Biso   1.000  H
  H3       1.0000 0.59600  0.04790  0.68230  Biso   1.000  H
  H4       1.0000 0.86130  0.01860  0.53580  Biso   1.000  H
  H5       1.0000 0.47870  0.15240  0.72660  Biso   1.000  H
  H6       1.0000 0.47020  0.40130  0.56550  Biso   1.000  H
  H7       1.0000 0.64090  0.99320  0.77610  Biso   1.000  H
  H8       1.0000 0.89920  0.97670  0.93240  Biso   1.000  H
  H9       1.0000 0.71420  0.26650  0.93990  Biso   1.000  H
  H10      1.0000 0.69140  0.22130  0.90320  Biso   1.000  H
  H11      1.0000 0.70970  0.29960  0.89720  Biso   1.000  H
  H12      1.0000 0.40800  0.33340  0.92090  Biso   1.000  H
  H13      1.0000 0.42760  0.30390  0.87870  Biso   1.000  H
  H14      1.0000 0.41220  0.25320  0.91430  Biso   1.000  H
  H15      1.0000 0.60820  0.30380  0.78350  Biso   1.000  H
  H16      1.0000 0.56730  0.33990  0.81820  Biso   1.000  H
  H17      1.0000 0.64510  0.31920  0.82430  Biso   1.000  H
  H18      1.0000 0.54700  0.08040  0.90550  Biso   1.000  H
  H19      1.0000 0.48810  0.13400  0.91450  Biso   1.000  H
  H20      1.0000 0.47700  0.07690  0.88180  Biso   1.000  H
  H21      1.0000 0.80420  0.13230  0.71490  Biso   1.000  H
  H22      1.0000 0.83920  0.12090  0.67310  Biso   1.000  H
  H23      1.0000 0.79540  0.18770  0.68110  Biso   1.000  H
  H24      1.0000 0.56870  0.03430  0.60580  Biso   1.000  H
  H25      1.0000 0.63460  0.01920  0.57990  Biso   1.000  H
  H26      1.0000 0.60950  0.96500  0.61160  Biso   1.000  H
  H27      1.0000 0.80590  0.22570  0.60340  Biso   1.000  H
  H28      1.0000 0.78060  0.23110  0.55900  Biso   1.000  H
  H29      1.0000 0.72820  0.21140  0.59290  Biso   1.000  H
  H30      1.0000 0.75760  0.92400  0.58310  Biso   1.000  H
  H31      1.0000 0.83870  0.92320  0.58050  Biso   1.000  H
  H32      1.0000 0.80220  0.94000  0.62120  Biso   1.000  H
  H33      1.0000 0.66590  0.25010  0.67390  Biso   1.000  H
  H34      1.0000 0.63770  0.24990  0.62990  Biso   1.000  H
  H35      1.0000 0.62540  0.31440  0.65740  Biso   1.000  H
  H36      1.0000 0.35550  0.21770  0.68910  Biso   1.000  H
  H37      1.0000 0.36670  0.18380  0.64700  Biso   1.000  H
  H38      1.0000 0.37280  0.13860  0.68580  Biso   1.000  H
  H39      1.0000 0.45170  0.17430  0.54020  Biso   1.000  H
  H40      1.0000 0.47760  0.14980  0.58230  Biso   1.000  H
  H41      1.0000 0.39900  0.16590  0.57550  Biso   1.000  H
  H42      1.0000 0.50630  0.44540  0.62830  Biso   1.000  H
  H43      1.0000 0.47830  0.40050  0.66380  Biso   1.000  H
  H44      1.0000 0.55540  0.39290  0.65000  Biso   1.000  H
  H45      1.0000 0.73170  0.17900  0.84300  Biso   1.000  H
  H46      1.0000 0.79530  0.13820  0.86000  Biso   1.000  H
  H47      1.0000 0.79430  0.16110  0.81510  Biso   1.000  H
  H48      1.0000 0.69590  0.87120  0.80890  Biso   1.000  H
  H49      1.0000 0.69270  0.88390  0.85520  Biso   1.000  H
  H50      1.0000 0.62610  0.89330  0.82900  Biso   1.000  H
  H51      1.0000 0.65850  0.00970  0.94290  Biso   1.000  H
  H52      1.0000 0.64770  0.95300  0.90990  Biso   1.000  H
  H53      1.0000 0.67380  0.93180  0.95260  Biso   1.000  H
  H54      1.0000 0.93690  0.98330  0.86060  Biso   1.000  H
  H55      1.0000 0.88150  0.01160  0.83050  Biso   1.000  H
  H56      1.0000 0.91600  0.06170  0.86150  Biso   1.000  H
  H57      1.0000 0.49400  0.64460  0.96570  Biso   1.000  H
  H58      1.0000 0.45930  0.90780  0.81710  Biso   1.000  H
  H59      1.0000 0.40400  0.95210  0.68230  Biso   1.000  H
  H60      1.0000 0.13870  0.98140  0.53580  Biso   1.000  H
  H61      1.0000 0.52130  0.84760  0.72660  Biso   1.000  H
  H62      1.0000 0.52980  0.59870  0.56550  Biso   1.000  H
  H63      1.0000 0.35910  0.00680  0.77610  Biso   1.000  H
  H64      1.0000 0.10080  0.02330  0.93240  Biso   1.000  H
  H65      1.0000 0.28580  0.73350  0.93990  Biso   1.000  H
  H66      1.0000 0.30860  0.77870  0.90320  Biso   1.000  H
  H67      1.0000 0.29030  0.70040  0.89720  Biso   1.000  H
  H68      1.0000 0.59200  0.66660  0.92090  Biso   1.000  H
  H69      1.0000 0.57240  0.69610  0.87870  Biso   1.000  H
  H70      1.0000 0.58780  0.74680  0.91430  Biso   1.000  H
  H71      1.0000 0.39180  0.69620  0.78350  Biso   1.000  H
  H72      1.0000 0.43270  0.66010  0.81820  Biso   1.000  H
  H73      1.0000 0.35490  0.68080  0.82430  Biso   1.000  H
  H74      1.0000 0.45300  0.91960  0.90550  Biso   1.000  H
  H75      1.0000 0.51190  0.86600  0.91450  Biso   1.000  H
  H76      1.0000 0.52300  0.92310  0.88180  Biso   1.000  H
  H77      1.0000 0.19580  0.86770  0.71490  Biso   1.000  H
  H78      1.0000 0.16080  0.87910  0.67310  Biso   1.000  H
  H79      1.0000 0.20460  0.81230  0.68110  Biso   1.000  H
  H80      1.0000 0.43130  0.96570  0.60580  Biso   1.000  H
  H81      1.0000 0.36540  0.98080  0.57990  Biso   1.000  H
  H82      1.0000 0.39050  0.03500  0.61160  Biso   1.000  H
  H83      1.0000 0.19410  0.77430  0.60340  Biso   1.000  H
  H84      1.0000 0.21940  0.76890  0.55900  Biso   1.000  H
  H85      1.0000 0.27180  0.78860  0.59290  Biso   1.000  H
  H86      1.0000 0.24240  0.07600  0.58310  Biso   1.000  H
  H87      1.0000 0.16130  0.07680  0.58050  Biso   1.000  H
  H88      1.0000 0.19780  0.06000  0.62120  Biso   1.000  H
  H89      1.0000 0.33410  0.74990  0.67390  Biso   1.000  H
  H90      1.0000 0.36230  0.75010  0.62990  Biso   1.000  H
  H91      1.0000 0.37460  0.68560  0.65740  Biso   1.000  H
  H92      1.0000 0.64450  0.78230  0.68910  Biso   1.000  H
  H93      1.0000 0.63330  0.81620  0.64700  Biso   1.000  H
  H94      1.0000 0.62720  0.86140  0.68580  Biso   1.000  H
  H95      1.0000 0.54830  0.82570  0.54020  Biso   1.000  H
  H96      1.0000 0.52240  0.85020  0.58230  Biso   1.000  H
  H97      1.0000 0.60100  0.83410  0.57550  Biso   1.000  H
  H98      1.0000 0.49370  0.55460  0.62830  Biso   1.000  H
  H99      1.0000 0.52170  0.59950  0.66380  Biso   1.000  H
  H100     1.0000 0.44460  0.60710  0.65000  Biso   1.000  H
  H101     1.0000 0.26830  0.82100  0.84300  Biso   1.000  H
  H102     1.0000 0.20470  0.86180  0.86000  Biso   1.000  H
  H103     1.0000 0.20570  0.83890  0.81510  Biso   1.000  H
  H104     1.0000 0.30410  0.12880  0.80890  Biso   1.000  H
  H105     1.0000 0.30730  0.11610  0.85520  Biso   1.000  H
  H106     1.0000 0.37390  0.10670  0.82900  Biso   1.000  H
  H107     1.0000 0.34150  0.99030  0.94290  Biso   1.000  H
  H108     1.0000 0.35230  0.04700  0.90990  Biso   1.000  H
  H109     1.0000 0.32620  0.06820  0.95260  Biso   1.000  H
  H110     1.0000 0.06310  0.01670  0.86060  Biso   1.000  H
  H111     1.0000 0.11850  0.98840  0.83050  Biso   1.000  H
  H112     1.0000 0.08400  0.93830  0.86150  Biso   1.000  H
  H113     1.0000 0.64460  0.50600  0.46570  Biso   1.000  H
  H114     1.0000 0.90780  0.54070  0.31710  Biso   1.000  H
  H115     1.0000 0.95210  0.59600  0.18230  Biso   1.000  H
  H116     1.0000 0.98140  0.86130  0.03580  Biso   1.000  H
  H117     1.0000 0.84760  0.47870  0.22660  Biso   1.000  H
  H118     1.0000 0.59870  0.47020  0.06550  Biso   1.000  H
  H119     1.0000 0.00680  0.64090  0.27610  Biso   1.000  H
  H120     1.0000 0.02330  0.89920  0.43240  Biso   1.000  H
  H121     1.0000 0.73350  0.71420  0.43990  Biso   1.000  H
  H122     1.0000 0.77870  0.69140  0.40320  Biso   1.000  H
  H123     1.0000 0.70040  0.70970  0.39720  Biso   1.000  H
  H124     1.0000 0.66660  0.40800  0.42090  Biso   1.000  H
  H125     1.0000 0.69610  0.42760  0.37870  Biso   1.000  H
  H126     1.0000 0.74680  0.41220  0.41430  Biso   1.000  H
  H127     1.0000 0.69620  0.60820  0.28350  Biso   1.000  H
  H128     1.0000 0.66010  0.56730  0.31820  Biso   1.000  H
  H129     1.0000 0.68080  0.64510  0.32430  Biso   1.000  H
  H130     1.0000 0.91960  0.54700  0.40550  Biso   1.000  H
  H131     1.0000 0.86600  0.48810  0.41450  Biso   1.000  H
  H132     1.0000 0.92310  0.47700  0.38180  Biso   1.000  H
  H133     1.0000 0.86770  0.80420  0.21490  Biso   1.000  H
  H134     1.0000 0.87910  0.83920  0.17310  Biso   1.000  H
  H135     1.0000 0.81230  0.79540  0.18110  Biso   1.000  H
  H136     1.0000 0.96570  0.56870  0.10580  Biso   1.000  H
  H137     1.0000 0.98080  0.63460  0.07990  Biso   1.000  H
  H138     1.0000 0.03500  0.60950  0.11160  Biso   1.000  H
  H139     1.0000 0.77430  0.80590  0.10340  Biso   1.000  H
  H140     1.0000 0.76890  0.78060  0.05900  Biso   1.000  H
  H141     1.0000 0.78860  0.72820  0.09290  Biso   1.000  H
  H142     1.0000 0.07600  0.75760  0.08310  Biso   1.000  H
  H143     1.0000 0.07680  0.83870  0.08050  Biso   1.000  H
  H144     1.0000 0.06000  0.80220  0.12120  Biso   1.000  H
  H145     1.0000 0.74990  0.66590  0.17390  Biso   1.000  H
  H146     1.0000 0.75010  0.63770  0.12990  Biso   1.000  H
  H147     1.0000 0.68560  0.62540  0.15740  Biso   1.000  H
  H148     1.0000 0.78230  0.35550  0.18910  Biso   1.000  H
  H149     1.0000 0.81620  0.36670  0.14700  Biso   1.000  H
  H150     1.0000 0.86140  0.37280  0.18580  Biso   1.000  H
  H151     1.0000 0.82570  0.45170  0.04020  Biso   1.000  H
  H152     1.0000 0.85020  0.47760  0.08230  Biso   1.000  H
  H153     1.0000 0.83410  0.39900  0.07550  Biso   1.000  H
  H154     1.0000 0.55460  0.50630  0.12830  Biso   1.000  H
  H155     1.0000 0.59950  0.47830  0.16380  Biso   1.000  H
  H156     1.0000 0.60710  0.55540  0.15000  Biso   1.000  H
  H157     1.0000 0.82100  0.73170  0.34300  Biso   1.000  H
  H158     1.0000 0.86180  0.79530  0.36000  Biso   1.000  H
  H159     1.0000 0.83890  0.79430  0.31510  Biso   1.000  H
  H160     1.0000 0.12880  0.69590  0.30890  Biso   1.000  H
  H161     1.0000 0.11610  0.69270  0.35520  Biso   1.000  H
  H162     1.0000 0.10670  0.62610  0.32900  Biso   1.000  H
  H163     1.0000 0.99030  0.65850  0.44290  Biso   1.000  H
  H164     1.0000 0.04700  0.64770  0.40990  Biso   1.000  H
  H165     1.0000 0.06820  0.67380  0.45260  Biso   1.000  H
  H166     1.0000 0.01670  0.93690  0.36060  Biso   1.000  H
  H167     1.0000 0.98840  0.88150  0.33050  Biso   1.000  H
  H168     1.0000 0.93830  0.91600  0.36150  Biso   1.000  H
  H169     1.0000 0.35540  0.49400  0.46570  Biso   1.000  H
  H170     1.0000 0.09220  0.45930  0.31710  Biso   1.000  H
  H171     1.0000 0.04790  0.40400  0.18230  Biso   1.000  H
  H172     1.0000 0.01860  0.13870  0.03580  Biso   1.000  H
  H173     1.0000 0.15240  0.52130  0.22660  Biso   1.000  H
  H174     1.0000 0.40130  0.52980  0.06550  Biso   1.000  H
  H175     1.0000 0.99320  0.35910  0.27610  Biso   1.000  H
  H176     1.0000 0.97670  0.10080  0.43240  Biso   1.000  H
  H177     1.0000 0.26650  0.28580  0.43990  Biso   1.000  H
  H178     1.0000 0.22130  0.30860  0.40320  Biso   1.000  H
  H179     1.0000 0.29960  0.29030  0.39720  Biso   1.000  H
  H180     1.0000 0.33340  0.59200  0.42090  Biso   1.000  H
  H181     1.0000 0.30390  0.57240  0.37870  Biso   1.000  H
  H182     1.0000 0.25320  0.58780  0.41430  Biso   1.000  H
  H183     1.0000 0.30380  0.39180  0.28350  Biso   1.000  H
  H184     1.0000 0.33990  0.43270  0.31820  Biso   1.000  H
  H185     1.0000 0.31920  0.35490  0.32430  Biso   1.000  H
  H186     1.0000 0.08040  0.45300  0.40550  Biso   1.000  H
  H187     1.0000 0.13400  0.51190  0.41450  Biso   1.000  H
  H188     1.0000 0.07690  0.52300  0.38180  Biso   1.000  H
  H189     1.0000 0.13230  0.19580  0.21490  Biso   1.000  H
  H190     1.0000 0.12090  0.16080  0.17310  Biso   1.000  H
  H191     1.0000 0.18770  0.20460  0.18110  Biso   1.000  H
  H192     1.0000 0.03430  0.43130  0.10580  Biso   1.000  H
  H193     1.0000 0.01920  0.36540  0.07990  Biso   1.000  H
  H194     1.0000 0.96500  0.39050  0.11160  Biso   1.000  H
  H195     1.0000 0.22570  0.19410  0.10340  Biso   1.000  H
  H196     1.0000 0.23110  0.21940  0.05900  Biso   1.000  H
  H197     1.0000 0.21140  0.27180  0.09290  Biso   1.000  H
  H198     1.0000 0.92400  0.24240  0.08310  Biso   1.000  H
  H199     1.0000 0.92320  0.16130  0.08050  Biso   1.000  H
  H200     1.0000 0.94000  0.19780  0.12120  Biso   1.000  H
  H201     1.0000 0.25010  0.33410  0.17390  Biso   1.000  H
  H202     1.0000 0.24990  0.36230  0.12990  Biso   1.000  H
  H203     1.0000 0.31440  0.37460  0.15740  Biso   1.000  H
  H204     1.0000 0.21770  0.64450  0.18910  Biso   1.000  H
  H205     1.0000 0.18380  0.63330  0.14700  Biso   1.000  H
  H206     1.0000 0.13860  0.62720  0.18580  Biso   1.000  H
  H207     1.0000 0.17430  0.54830  0.04020  Biso   1.000  H
  H208     1.0000 0.14980  0.52240  0.08230  Biso   1.000  H
  H209     1.0000 0.16590  0.60100  0.07550  Biso   1.000  H
  H210     1.0000 0.44540  0.49370  0.12830  Biso   1.000  H
  H211     1.0000 0.40050  0.52170  0.16380  Biso   1.000  H
  H212     1.0000 0.39290  0.44460  0.15000  Biso   1.000  H
  H213     1.0000 0.17900  0.26830  0.34300  Biso   1.000  H
  H214     1.0000 0.13820  0.20470  0.36000  Biso   1.000  H
  H215     1.0000 0.16110  0.20570  0.31510  Biso   1.000  H
  H216     1.0000 0.87120  0.30410  0.30890  Biso   1.000  H
  H217     1.0000 0.88390  0.30730  0.35520  Biso   1.000  H
  H218     1.0000 0.89330  0.37390  0.32900  Biso   1.000  H
  H219     1.0000 0.00970  0.34150  0.44290  Biso   1.000  H
  H220     1.0000 0.95300  0.35230  0.40990  Biso   1.000  H
  H221     1.0000 0.93180  0.32620  0.45260  Biso   1.000  H
  H222     1.0000 0.98330  0.06310  0.36060  Biso   1.000  H
  H223     1.0000 0.01160  0.11850  0.33050  Biso   1.000  H
  H224     1.0000 0.06170  0.08400  0.36150  Biso   1.000  H
  H225     1.0000 0.49400  0.64460  0.03430  Biso   1.000  H
  H226     1.0000 0.45930  0.90780  0.18290  Biso   1.000  H
  H227     1.0000 0.40400  0.95210  0.31770  Biso   1.000  H
  H228     1.0000 0.13870  0.98140  0.46420  Biso   1.000  H
  H229     1.0000 0.52130  0.84760  0.27340  Biso   1.000  H
  H230     1.0000 0.52980  0.59870  0.43450  Biso   1.000  H
  H231     1.0000 0.35910  0.00680  0.22390  Biso   1.000  H
  H232     1.0000 0.10080  0.02330  0.06760  Biso   1.000  H
  H233     1.0000 0.28580  0.73350  0.06010  Biso   1.000  H
  H234     1.0000 0.30860  0.77870  0.09680  Biso   1.000  H
  H235     1.0000 0.29030  0.70040  0.10280  Biso   1.000  H
  H236     1.0000 0.59200  0.66660  0.07910  Biso   1.000  H
  H237     1.0000 0.57240  0.69610  0.12130  Biso   1.000  H
  H238     1.0000 0.58780  0.74680  0.08570  Biso   1.000  H
  H239     1.0000 0.39180  0.69620  0.21650  Biso   1.000  H
  H240     1.0000 0.43270  0.66010  0.18180  Biso   1.000  H
  H241     1.0000 0.35490  0.68080  0.17570  Biso   1.000  H
  H242     1.0000 0.45300  0.91960  0.09450  Biso   1.000  H
  H243     1.0000 0.51190  0.86600  0.08550  Biso   1.000  H
  H244     1.0000 0.52300  0.92310  0.11820  Biso   1.000  H
  H245     1.0000 0.19580  0.86770  0.28510  Biso   1.000  H
  H246     1.0000 0.16080  0.87910  0.32690  Biso   1.000  H
  H247     1.0000 0.20460  0.81230  0.31890  Biso   1.000  H
  H248     1.0000 0.43130  0.96570  0.39420  Biso   1.000  H
  H249     1.0000 0.36540  0.98080  0.42010  Biso   1.000  H
  H250     1.0000 0.39050  0.03500  0.38840  Biso   1.000  H
  H251     1.0000 0.19410  0.77430  0.39660  Biso   1.000  H
  H252     1.0000 0.21940  0.76890  0.44100  Biso   1.000  H
  H253     1.0000 0.27180  0.78860  0.40710  Biso   1.000  H
  H254     1.0000 0.24240  0.07600  0.41690  Biso   1.000  H
  H255     1.0000 0.16130  0.07680  0.41950  Biso   1.000  H
  H256     1.0000 0.19780  0.06000  0.37880  Biso   1.000  H
  H257     1.0000 0.33410  0.74990  0.32610  Biso   1.000  H
  H258     1.0000 0.36230  0.75010  0.37010  Biso   1.000  H
  H259     1.0000 0.37460  0.68560  0.34260  Biso   1.000  H
  H260     1.0000 0.64450  0.78230  0.31090  Biso   1.000  H
  H261     1.0000 0.63330  0.81620  0.35300  Biso   1.000  H
  H262     1.0000 0.62720  0.86140  0.31420  Biso   1.000  H
  H263     1.0000 0.54830  0.82570  0.45980  Biso   1.000  H
  H264     1.0000 0.52240  0.85020  0.41770  Biso   1.000  H
  H265     1.0000 0.60100  0.83410  0.42450  Biso   1.000  H
  H266     1.0000 0.49370  0.55460  0.37170  Biso   1.000  H
  H267     1.0000 0.52170  0.59950  0.33620  Biso   1.000  H
  H268     1.0000 0.44460  0.60710  0.35000  Biso   1.000  H
  H269     1.0000 0.26830  0.82100  0.15700  Biso   1.000  H
  H270     1.0000 0.20470  0.86180  0.14000  Biso   1.000  H
  H271     1.0000 0.20570  0.83890  0.18490  Biso   1.000  H
  H272     1.0000 0.30410  0.12880  0.19110  Biso   1.000  H
  H273     1.0000 0.30730  0.11610  0.14480  Biso   1.000  H
  H274     1.0000 0.37390  0.10670  0.17100  Biso   1.000  H
  H275     1.0000 0.34150  0.99030  0.05710  Biso   1.000  H
  H276     1.0000 0.35230  0.04700  0.09010  Biso   1.000  H
  H277     1.0000 0.32620  0.06820  0.04740  Biso   1.000  H
  H278     1.0000 0.06310  0.01670  0.13940  Biso   1.000  H
  H279     1.0000 0.11850  0.98840  0.16950  Biso   1.000  H
  H280     1.0000 0.08400  0.93830  0.13850  Biso   1.000  H
  H281     1.0000 0.50600  0.35540  0.03430  Biso   1.000  H
  H282     1.0000 0.54070  0.09220  0.18290  Biso   1.000  H
  H283     1.0000 0.59600  0.04790  0.31770  Biso   1.000  H
  H284     1.0000 0.86130  0.01860  0.46420  Biso   1.000  H
  H285     1.0000 0.47870  0.15240  0.27340  Biso   1.000  H
  H286     1.0000 0.47020  0.40130  0.43450  Biso   1.000  H
  H287     1.0000 0.64090  0.99320  0.22390  Biso   1.000  H
  H288     1.0000 0.89920  0.97670  0.06760  Biso   1.000  H
  H289     1.0000 0.71420  0.26650  0.06010  Biso   1.000  H
  H290     1.0000 0.69140  0.22130  0.09680  Biso   1.000  H
  H291     1.0000 0.70970  0.29960  0.10280  Biso   1.000  H
  H292     1.0000 0.40800  0.33340  0.07910  Biso   1.000  H
  H293     1.0000 0.42760  0.30390  0.12130  Biso   1.000  H
  H294     1.0000 0.41220  0.25320  0.08570  Biso   1.000  H
  H295     1.0000 0.60820  0.30380  0.21650  Biso   1.000  H
  H296     1.0000 0.56730  0.33990  0.18180  Biso   1.000  H
  H297     1.0000 0.64510  0.31920  0.17570  Biso   1.000  H
  H298     1.0000 0.54700  0.08040  0.09450  Biso   1.000  H
  H299     1.0000 0.48810  0.13400  0.08550  Biso   1.000  H
  H300     1.0000 0.47700  0.07690  0.11820  Biso   1.000  H
  H301     1.0000 0.80420  0.13230  0.28510  Biso   1.000  H
  H302     1.0000 0.83920  0.12090  0.32690  Biso   1.000  H
  H303     1.0000 0.79540  0.18770  0.31890  Biso   1.000  H
  H304     1.0000 0.56870  0.03430  0.39420  Biso   1.000  H
  H305     1.0000 0.63460  0.01920  0.42010  Biso   1.000  H
  H306     1.0000 0.60950  0.96500  0.38840  Biso   1.000  H
  H307     1.0000 0.80590  0.22570  0.39660  Biso   1.000  H
  H308     1.0000 0.78060  0.23110  0.44100  Biso   1.000  H
  H309     1.0000 0.72820  0.21140  0.40710  Biso   1.000  H
  H310     1.0000 0.75760  0.92400  0.41690  Biso   1.000  H
  H311     1.0000 0.83870  0.92320  0.41950  Biso   1.000  H
  H312     1.0000 0.80220  0.94000  0.37880  Biso   1.000  H
  H313     1.0000 0.66590  0.25010  0.32610  Biso   1.000  H
  H314     1.0000 0.63770  0.24990  0.37010  Biso   1.000  H
  H315     1.0000 0.62540  0.31440  0.34260  Biso   1.000  H
  H316     1.0000 0.35550  0.21770  0.31090  Biso   1.000  H
  H317     1.0000 0.36670  0.18380  0.35300  Biso   1.000  H
  H318     1.0000 0.37280  0.13860  0.31420  Biso   1.000  H
  H319     1.0000 0.45170  0.17430  0.45980  Biso   1.000  H
  H320     1.0000 0.47760  0.14980  0.41770  Biso   1.000  H
  H321     1.0000 0.39900  0.16590  0.42450  Biso   1.000  H
  H322     1.0000 0.50630  0.44540  0.37170  Biso   1.000  H
  H323     1.0000 0.47830  0.40050  0.33620  Biso   1.000  H
  H324     1.0000 0.55540  0.39290  0.35000  Biso   1.000  H
  H325     1.0000 0.73170  0.17900  0.15700  Biso   1.000  H
  H326     1.0000 0.79530  0.13820  0.14000  Biso   1.000  H
  H327     1.0000 0.79430  0.16110  0.18490  Biso   1.000  H
  H328     1.0000 0.69590  0.87120  0.19110  Biso   1.000  H
  H329     1.0000 0.69270  0.88390  0.14480  Biso   1.000  H
  H330     1.0000 0.62610  0.89330  0.17100  Biso   1.000  H
  H331     1.0000 0.65850  0.00970  0.05710  Biso   1.000  H
  H332     1.0000 0.64770  0.95300  0.09010  Biso   1.000  H
  H333     1.0000 0.67380  0.93180  0.04740  Biso   1.000  H
  H334     1.0000 0.93690  0.98330  0.13940  Biso   1.000  H
  H335     1.0000 0.88150  0.01160  0.16950  Biso   1.000  H
  H336     1.0000 0.91600  0.06170  0.13850  Biso   1.000  H
  H337     1.0000 0.35540  0.49400  0.53430  Biso   1.000  H
  H338     1.0000 0.09220  0.45930  0.68290  Biso   1.000  H
  H339     1.0000 0.04790  0.40400  0.81770  Biso   1.000  H
  H340     1.0000 0.01860  0.13870  0.96420  Biso   1.000  H
  H341     1.0000 0.15240  0.52130  0.77340  Biso   1.000  H
  H342     1.0000 0.40130  0.52980  0.93450  Biso   1.000  H
  H343     1.0000 0.99320  0.35910  0.72390  Biso   1.000  H
  H344     1.0000 0.97670  0.10080  0.56760  Biso   1.000  H
  H345     1.0000 0.26650  0.28580  0.56010  Biso   1.000  H
  H346     1.0000 0.22130  0.30860  0.59680  Biso   1.000  H
  H347     1.0000 0.29960  0.29030  0.60280  Biso   1.000  H
  H348     1.0000 0.33340  0.59200  0.57910  Biso   1.000  H
  H349     1.0000 0.30390  0.57240  0.62130  Biso   1.000  H
  H350     1.0000 0.25320  0.58780  0.58570  Biso   1.000  H
  H351     1.0000 0.30380  0.39180  0.71650  Biso   1.000  H
  H352     1.0000 0.33990  0.43270  0.68180  Biso   1.000  H
  H353     1.0000 0.31920  0.35490  0.67570  Biso   1.000  H
  H354     1.0000 0.08040  0.45300  0.59450  Biso   1.000  H
  H355     1.0000 0.13400  0.51190  0.58550  Biso   1.000  H
  H356     1.0000 0.07690  0.52300  0.61820  Biso   1.000  H
  H357     1.0000 0.13230  0.19580  0.78510  Biso   1.000  H
  H358     1.0000 0.12090  0.16080  0.82690  Biso   1.000  H
  H359     1.0000 0.18770  0.20460  0.81890  Biso   1.000  H
  H360     1.0000 0.03430  0.43130  0.89420  Biso   1.000  H
  H361     1.0000 0.01920  0.36540  0.92010  Biso   1.000  H
  H362     1.0000 0.96500  0.39050  0.88840  Biso   1.000  H
  H363     1.0000 0.22570  0.19410  0.89660  Biso   1.000  H
  H364     1.0000 0.23110  0.21940  0.94100  Biso   1.000  H
  H365     1.0000 0.21140  0.27180  0.90710  Biso   1.000  H
  H366     1.0000 0.92400  0.24240  0.91690  Biso   1.000  H
  H367     1.0000 0.92320  0.16130  0.91950  Biso   1.000  H
  H368     1.0000 0.94000  0.19780  0.87880  Biso   1.000  H
  H369     1.0000 0.25010  0.33410  0.82610  Biso   1.000  H
  H370     1.0000 0.24990  0.36230  0.87010  Biso   1.000  H
  H371     1.0000 0.31440  0.37460  0.84260  Biso   1.000  H
  H372     1.0000 0.21770  0.64450  0.81090  Biso   1.000  H
  H373     1.0000 0.18380  0.63330  0.85300  Biso   1.000  H
  H374     1.0000 0.13860  0.62720  0.81420  Biso   1.000  H
  H375     1.0000 0.17430  0.54830  0.95980  Biso   1.000  H
  H376     1.0000 0.14980  0.52240  0.91770  Biso   1.000  H
  H377     1.0000 0.16590  0.60100  0.92450  Biso   1.000  H
  H378     1.0000 0.44540  0.49370  0.87170  Biso   1.000  H
  H379     1.0000 0.40050  0.52170  0.83620  Biso   1.000  H
  H380     1.0000 0.39290  0.44460  0.85000  Biso   1.000  H
  H381     1.0000 0.17900  0.26830  0.65700  Biso   1.000  H
  H382     1.0000 0.13820  0.20470  0.64000  Biso   1.000  H
  H383     1.0000 0.16110  0.20570  0.68490  Biso   1.000  H
  H384     1.0000 0.87120  0.30410  0.69110  Biso   1.000  H
  H385     1.0000 0.88390  0.30730  0.64480  Biso   1.000  H
  H386     1.0000 0.89330  0.37390  0.67100  Biso   1.000  H
  H387     1.0000 0.00970  0.34150  0.55710  Biso   1.000  H
  H388     1.0000 0.95300  0.35230  0.59010  Biso   1.000  H
  H389     1.0000 0.93180  0.32620  0.54740  Biso   1.000  H
  H390     1.0000 0.98330  0.06310  0.63940  Biso   1.000  H
  H391     1.0000 0.01160  0.11850  0.66950  Biso   1.000  H
  H392     1.0000 0.06170  0.08400  0.63850  Biso   1.000  H
  H393     1.0000 0.64460  0.50600  0.53430  Biso   1.000  H
  H394     1.0000 0.90780  0.54070  0.68290  Biso   1.000  H
  H395     1.0000 0.95210  0.59600  0.81770  Biso   1.000  H
  H396     1.0000 0.98140  0.86130  0.96420  Biso   1.000  H
  H397     1.0000 0.84760  0.47870  0.77340  Biso   1.000  H
  H398     1.0000 0.59870  0.47020  0.93450  Biso   1.000  H
  H399     1.0000 0.00680  0.64090  0.72390  Biso   1.000  H
  H400     1.0000 0.02330  0.89920  0.56760  Biso   1.000  H
  H401     1.0000 0.73350  0.71420  0.56010  Biso   1.000  H
  H402     1.0000 0.77870  0.69140  0.59680  Biso   1.000  H
  H403     1.0000 0.70040  0.70970  0.60280  Biso   1.000  H
  H404     1.0000 0.66660  0.40800  0.57910  Biso   1.000  H
  H405     1.0000 0.69610  0.42760  0.62130  Biso   1.000  H
  H406     1.0000 0.74680  0.41220  0.58570  Biso   1.000  H
  H407     1.0000 0.69620  0.60820  0.71650  Biso   1.000  H
  H408     1.0000 0.66010  0.56730  0.68180  Biso   1.000  H
  H409     1.0000 0.68080  0.64510  0.67570  Biso   1.000  H
  H410     1.0000 0.91960  0.54700  0.59450  Biso   1.000  H
  H411     1.0000 0.86600  0.48810  0.58550  Biso   1.000  H
  H412     1.0000 0.92310  0.47700  0.61820  Biso   1.000  H
  H413     1.0000 0.86770  0.80420  0.78510  Biso   1.000  H
  H414     1.0000 0.87910  0.83920  0.82690  Biso   1.000  H
  H415     1.0000 0.81230  0.79540  0.81890  Biso   1.000  H
  H416     1.0000 0.96570  0.56870  0.89420  Biso   1.000  H
  H417     1.0000 0.98080  0.63460  0.92010  Biso   1.000  H
  H418     1.0000 0.03500  0.60950  0.88840  Biso   1.000  H
  H419     1.0000 0.77430  0.80590  0.89660  Biso   1.000  H
  H420     1.0000 0.76890  0.78060  0.94100  Biso   1.000  H
  H421     1.0000 0.78860  0.72820  0.90710  Biso   1.000  H
  H422     1.0000 0.07600  0.75760  0.91690  Biso   1.000  H
  H423     1.0000 0.07680  0.83870  0.91950  Biso   1.000  H
  H424     1.0000 0.06000  0.80220  0.87880  Biso   1.000  H
  H425     1.0000 0.74990  0.66590  0.82610  Biso   1.000  H
  H426     1.0000 0.75010  0.63770  0.87010  Biso   1.000  H
  H427     1.0000 0.68560  0.62540  0.84260  Biso   1.000  H
  H428     1.0000 0.78230  0.35550  0.81090  Biso   1.000  H
  H429     1.0000 0.81620  0.36670  0.85300  Biso   1.000  H
  H430     1.0000 0.86140  0.37280  0.81420  Biso   1.000  H
  H431     1.0000 0.82570  0.45170  0.95980  Biso   1.000  H
  H432     1.0000 0.85020  0.47760  0.91770  Biso   1.000  H
  H433     1.0000 0.83410  0.39900  0.92450  Biso   1.000  H
  H434     1.0000 0.55460  0.50630  0.87170  Biso   1.000  H
  H435     1.0000 0.59950  0.47830  0.83620  Biso   1.000  H
  H436     1.0000 0.60710  0.55540  0.85000  Biso   1.000  H
  H437     1.0000 0.82100  0.73170  0.65700  Biso   1.000  H
  H438     1.0000 0.86180  0.79530  0.64000  Biso   1.000  H
  H439     1.0000 0.83890  0.79430  0.68490  Biso   1.000  H
  H440     1.0000 0.12880  0.69590  0.69110  Biso   1.000  H
  H441     1.0000 0.11610  0.69270  0.64480  Biso   1.000  H
  H442     1.0000 0.10670  0.62610  0.67100  Biso   1.000  H
  H443     1.0000 0.99030  0.65850  0.55710  Biso   1.000  H
  H444     1.0000 0.04700  0.64770  0.59010  Biso   1.000  H
  H445     1.0000 0.06820  0.67380  0.54740  Biso   1.000  H
  H446     1.0000 0.01670  0.93690  0.63940  Biso   1.000  H
  H447     1.0000 0.98840  0.88150  0.66950  Biso   1.000  H
  H448     1.0000 0.93830  0.91600  0.63850  Biso   1.000  H
  C1       1.0000 0.68930  0.26650  0.91500  Biso   1.000  C
  C2       1.0000 0.61790  0.28490  0.92230  Biso   1.000  C
  C3       1.0000 0.55950  0.26690  0.89960  Biso   1.000  C
  C4       1.0000 0.50410  0.29820  0.91800  Biso   1.000  C
  C5       1.0000 0.43190  0.29710  0.90710  Biso   1.000  C
  C6       1.0000 0.60220  0.30610  0.81190  Biso   1.000  C
  C7       1.0000 0.58080  0.23880  0.82690  Biso   1.000  C
  C8       1.0000 0.55870  0.22090  0.86460  Biso   1.000  C
  C9       1.0000 0.53910  0.15460  0.86300  Biso   1.000  C
  C10      1.0000 0.51020  0.10730  0.89390  Biso   1.000  C
  C11      1.0000 0.79930  0.13910  0.68660  Biso   1.000  C
  C12      1.0000 0.73590  0.10270  0.67220  Biso   1.000  C
  C13      1.0000 0.72350  0.07520  0.63410  Biso   1.000  C
  C14      1.0000 0.65800  0.04720  0.63670  Biso   1.000  C
  C15      1.0000 0.61380  0.01340  0.60570  Biso   1.000  C
  C16      1.0000 0.77500  0.20670  0.58380  Biso   1.000  C
  C17      1.0000 0.79100  0.13320  0.57780  Biso   1.000  C
  C18      1.0000 0.76940  0.07600  0.59910  Biso   1.000  C
  C19      1.0000 0.79920  0.01900  0.58250  Biso   1.000  C
  C20      1.0000 0.79940  0.94520  0.59270  Biso   1.000  C
  C21      1.0000 0.62870  0.26490  0.65680  Biso   1.000  C
  C22      1.0000 0.56310  0.23430  0.67090  Biso   1.000  C
  C23      1.0000 0.49940  0.23650  0.65250  Biso   1.000  C
  C24      1.0000 0.45580  0.19950  0.67680  Biso   1.000  C
  C25      1.0000 0.38120  0.18350  0.67450  Biso   1.000  C
  C26      1.0000 0.44530  0.17910  0.56850  Biso   1.000  C
  C27      1.0000 0.45730  0.25270  0.58030  Biso   1.000  C
  C28      1.0000 0.48150  0.27530  0.61680  Biso   1.000  C
  C29      1.0000 0.48820  0.34640  0.61260  Biso   1.000  C
  C30      1.0000 0.50890  0.40110  0.64120  Biso   1.000  C
  C31      1.0000 0.76650  0.14520  0.83700  Biso   1.000  C
  C32      1.0000 0.73280  0.07880  0.82590  Biso   1.000  C
  C33      1.0000 0.73570  0.01540  0.84550  Biso   1.000  C
  C34      1.0000 0.69310  0.97200  0.82340  Biso   1.000  C
  C35      1.0000 0.67540  0.89870  0.82970  Biso   1.000  C
  C36      1.0000 0.67570  0.96690  0.93230  Biso   1.000  C
  C37      1.0000 0.74910  0.97620  0.91890  Biso   1.000  C
  C38      1.0000 0.77400  0.99800  0.88200  Biso   1.000  C
  C39      1.0000 0.84450  0.99980  0.88590  Biso   1.000  C
  C40      1.0000 0.89950  0.01550  0.85710  Biso   1.000  C
  C41      1.0000 0.72380  0.30330  0.73680  Biso   1.000  C
  C42      1.0000 0.31070  0.73350  0.91500  Biso   1.000  C
  C43      1.0000 0.38210  0.71510  0.92230  Biso   1.000  C
  C44      1.0000 0.44050  0.73310  0.89960  Biso   1.000  C
  C45      1.0000 0.49590  0.70180  0.91800  Biso   1.000  C
  C46      1.0000 0.56810  0.70290  0.90710  Biso   1.000  C
  C47      1.0000 0.39780  0.69390  0.81190  Biso   1.000  C
  C48      1.0000 0.41920  0.76120  0.82690  Biso   1.000  C
  C49      1.0000 0.44130  0.77910  0.86460  Biso   1.000  C
  C50      1.0000 0.46090  0.84540  0.86300  Biso   1.000  C
  C51      1.0000 0.48980  0.89270  0.89390  Biso   1.000  C
  C52      1.0000 0.20070  0.86090  0.68660  Biso   1.000  C
  C53      1.0000 0.26410  0.89730  0.67220  Biso   1.000  C
  C54      1.0000 0.27650  0.92480  0.63410  Biso   1.000  C
  C55      1.0000 0.34200  0.95280  0.63670  Biso   1.000  C
  C56      1.0000 0.38620  0.98660  0.60570  Biso   1.000  C
  C57      1.0000 0.22500  0.79330  0.58380  Biso   1.000  C
  C58      1.0000 0.20900  0.86680  0.57780  Biso   1.000  C
  C59      1.0000 0.23060  0.92400  0.59910  Biso   1.000  C
  C60      1.0000 0.20080  0.98100  0.58250  Biso   1.000  C
  C61      1.0000 0.20060  0.05480  0.59270  Biso   1.000  C
  C62      1.0000 0.37130  0.73510  0.65680  Biso   1.000  C
  C63      1.0000 0.43690  0.76570  0.67090  Biso   1.000  C
  C64      1.0000 0.50060  0.76350  0.65250  Biso   1.000  C
  C65      1.0000 0.54420  0.80050  0.67680  Biso   1.000  C
  C66      1.0000 0.61880  0.81650  0.67450  Biso   1.000  C
  C67      1.0000 0.55470  0.82090  0.56850  Biso   1.000  C
  C68      1.0000 0.54270  0.74730  0.58030  Biso   1.000  C
  C69      1.0000 0.51850  0.72470  0.61680  Biso   1.000  C
  C70      1.0000 0.51180  0.65360  0.61260  Biso   1.000  C
  C71      1.0000 0.49110  0.59890  0.64120  Biso   1.000  C
  C72      1.0000 0.23350  0.85480  0.83700  Biso   1.000  C
  C73      1.0000 0.26720  0.92120  0.82590  Biso   1.000  C
  C74      1.0000 0.26430  0.98460  0.84550  Biso   1.000  C
  C75      1.0000 0.30690  0.02800  0.82340  Biso   1.000  C
  C76      1.0000 0.32460  0.10130  0.82970  Biso   1.000  C
  C77      1.0000 0.32430  0.03310  0.93230  Biso   1.000  C
  C78      1.0000 0.25090  0.02380  0.91890  Biso   1.000  C
  C79      1.0000 0.22600  0.00200  0.88200  Biso   1.000  C
  C80      1.0000 0.15550  0.00020  0.88590  Biso   1.000  C
  C81      1.0000 0.10050  0.98450  0.85710  Biso   1.000  C
  C82      1.0000 0.27620  0.69670  0.73680  Biso   1.000  C
  C83      1.0000 0.73350  0.68930  0.41500  Biso   1.000  C
  C84      1.0000 0.71510  0.61790  0.42230  Biso   1.000  C
  C85      1.0000 0.73310  0.55950  0.39960  Biso   1.000  C
  C86      1.0000 0.70180  0.50410  0.41800  Biso   1.000  C
  C87      1.0000 0.70290  0.43190  0.40710  Biso   1.000  C
  C88      1.0000 0.69390  0.60220  0.31190  Biso   1.000  C
  C89      1.0000 0.76120  0.58080  0.32690  Biso   1.000  C
  C90      1.0000 0.77910  0.55870  0.36460  Biso   1.000  C
  C91      1.0000 0.84540  0.53910  0.36300  Biso   1.000  C
  C92      1.0000 0.89270  0.51020  0.39390  Biso   1.000  C
  C93      1.0000 0.86090  0.79930  0.18660  Biso   1.000  C
  C94      1.0000 0.89730  0.73590  0.17220  Biso   1.000  C
  C95      1.0000 0.92480  0.72350  0.13410  Biso   1.000  C
  C96      1.0000 0.95280  0.65800  0.13670  Biso   1.000  C
  C97      1.0000 0.98660  0.61380  0.10570  Biso   1.000  C
  C98      1.0000 0.79330  0.77500  0.08380  Biso   1.000  C
  C99      1.0000 0.86680  0.79100  0.07780  Biso   1.000  C
  C100     1.0000 0.92400  0.76940  0.09910  Biso   1.000  C
  C101     1.0000 0.98100  0.79920  0.08250  Biso   1.000  C
  C102     1.0000 0.05480  0.79940  0.09270  Biso   1.000  C
  C103     1.0000 0.73510  0.62870  0.15680  Biso   1.000  C
  C104     1.0000 0.76570  0.56310  0.17090  Biso   1.000  C
  C105     1.0000 0.76350  0.49940  0.15250  Biso   1.000  C
  C106     1.0000 0.80050  0.45580  0.17680  Biso   1.000  C
  C107     1.0000 0.81650  0.38120  0.17450  Biso   1.000  C
  C108     1.0000 0.82090  0.44530  0.06850  Biso   1.000  C
  C109     1.0000 0.74730  0.45730  0.08030  Biso   1.000  C
  C110     1.0000 0.72470  0.48150  0.11680  Biso   1.000  C
  C111     1.0000 0.65360  0.48820  0.11260  Biso   1.000  C
  C112     1.0000 0.59890  0.50890  0.14120  Biso   1.000  C
  C113     1.0000 0.85480  0.76650  0.33700  Biso   1.000  C
  C114     1.0000 0.92120  0.73280  0.32590  Biso   1.000  C
  C115     1.0000 0.98460  0.73570  0.34550  Biso   1.000  C
  C116     1.0000 0.02800  0.69310  0.32340  Biso   1.000  C
  C117     1.0000 0.10130  0.67540  0.32970  Biso   1.000  C
  C118     1.0000 0.03310  0.67570  0.43230  Biso   1.000  C
  C119     1.0000 0.02380  0.74910  0.41890  Biso   1.000  C
  C120     1.0000 0.00200  0.77400  0.38200  Biso   1.000  C
  C121     1.0000 0.00020  0.84450  0.38590  Biso   1.000  C
  C122     1.0000 0.98450  0.89950  0.35710  Biso   1.000  C
  C123     1.0000 0.69670  0.72380  0.23680  Biso   1.000  C
  C124     1.0000 0.26650  0.31070  0.41500  Biso   1.000  C
  C125     1.0000 0.28490  0.38210  0.42230  Biso   1.000  C
  C126     1.0000 0.26690  0.44050  0.39960  Biso   1.000  C
  C127     1.0000 0.29820  0.49590  0.41800  Biso   1.000  C
  C128     1.0000 0.29710  0.56810  0.40710  Biso   1.000  C
  C129     1.0000 0.30610  0.39780  0.31190  Biso   1.000  C
  C130     1.0000 0.23880  0.41920  0.32690  Biso   1.000  C
  C131     1.0000 0.22090  0.44130  0.36460  Biso   1.000  C
  C132     1.0000 0.15460  0.46090  0.36300  Biso   1.000  C
  C133     1.0000 0.10730  0.48980  0.39390  Biso   1.000  C
  C134     1.0000 0.13910  0.20070  0.18660  Biso   1.000  C
  C135     1.0000 0.10270  0.26410  0.17220  Biso   1.000  C
  C136     1.0000 0.07520  0.27650  0.13410  Biso   1.000  C
  C137     1.0000 0.04720  0.34200  0.13670  Biso   1.000  C
  C138     1.0000 0.01340  0.38620  0.10570  Biso   1.000  C
  C139     1.0000 0.20670  0.22500  0.08380  Biso   1.000  C
  C140     1.0000 0.13320  0.20900  0.07780  Biso   1.000  C
  C141     1.0000 0.07600  0.23060  0.09910  Biso   1.000  C
  C142     1.0000 0.01900  0.20080  0.08250  Biso   1.000  C
  C143     1.0000 0.94520  0.20060  0.09270  Biso   1.000  C
  C144     1.0000 0.26490  0.37130  0.15680  Biso   1.000  C
  C145     1.0000 0.23430  0.43690  0.17090  Biso   1.000  C
  C146     1.0000 0.23650  0.50060  0.15250  Biso   1.000  C
  C147     1.0000 0.19950  0.54420  0.17680  Biso   1.000  C
  C148     1.0000 0.18350  0.61880  0.17450  Biso   1.000  C
  C149     1.0000 0.17910  0.55470  0.06850  Biso   1.000  C
  C150     1.0000 0.25270  0.54270  0.08030  Biso   1.000  C
  C151     1.0000 0.27530  0.51850  0.11680  Biso   1.000  C
  C152     1.0000 0.34640  0.51180  0.11260  Biso   1.000  C
  C153     1.0000 0.40110  0.49110  0.14120  Biso   1.000  C
  C154     1.0000 0.14520  0.23350  0.33700  Biso   1.000  C
  C155     1.0000 0.07880  0.26720  0.32590  Biso   1.000  C
  C156     1.0000 0.01540  0.26430  0.34550  Biso   1.000  C
  C157     1.0000 0.97200  0.30690  0.32340  Biso   1.000  C
  C158     1.0000 0.89870  0.32460  0.32970  Biso   1.000  C
  C159     1.0000 0.96690  0.32430  0.43230  Biso   1.000  C
  C160     1.0000 0.97620  0.25090  0.41890  Biso   1.000  C
  C161     1.0000 0.99800  0.22600  0.38200  Biso   1.000  C
  C162     1.0000 0.99980  0.15550  0.38590  Biso   1.000  C
  C163     1.0000 0.01550  0.10050  0.35710  Biso   1.000  C
  C164     1.0000 0.30330  0.27620  0.23680  Biso   1.000  C
  C165     1.0000 0.31070  0.73350  0.08500  Biso   1.000  C
  C166     1.0000 0.38210  0.71510  0.07770  Biso   1.000  C
  C167     1.0000 0.44050  0.73310  0.10040  Biso   1.000  C
  C168     1.0000 0.49590  0.70180  0.08200  Biso   1.000  C
  C169     1.0000 0.56810  0.70290  0.09290  Biso   1.000  C
  C170     1.0000 0.39780  0.69390  0.18810  Biso   1.000  C
  C171     1.0000 0.41920  0.76120  0.17310  Biso   1.000  C
  C172     1.0000 0.44130  0.77910  0.13540  Biso   1.000  C
  C173     1.0000 0.46090  0.84540  0.13700  Biso   1.000  C
  C174     1.0000 0.48980  0.89270  0.10610  Biso   1.000  C
  C175     1.0000 0.20070  0.86090  0.31340  Biso   1.000  C
  C176     1.0000 0.26410  0.89730  0.32780  Biso   1.000  C
  C177     1.0000 0.27650  0.92480  0.36590  Biso   1.000  C
  C178     1.0000 0.34200  0.95280  0.36330  Biso   1.000  C
  C179     1.0000 0.38620  0.98660  0.39430  Biso   1.000  C
  C180     1.0000 0.22500  0.79330  0.41620  Biso   1.000  C
  C181     1.0000 0.20900  0.86680  0.42220  Biso   1.000  C
  C182     1.0000 0.23060  0.92400  0.40090  Biso   1.000  C
  C183     1.0000 0.20080  0.98100  0.41750  Biso   1.000  C
  C184     1.0000 0.20060  0.05480  0.40730  Biso   1.000  C
  C185     1.0000 0.37130  0.73510  0.34320  Biso   1.000  C
  C186     1.0000 0.43690  0.76570  0.32910  Biso   1.000  C
  C187     1.0000 0.50060  0.76350  0.34750  Biso   1.000  C
  C188     1.0000 0.54420  0.80050  0.32320  Biso   1.000  C
  C189     1.0000 0.61880  0.81650  0.32550  Biso   1.000  C
  C190     1.0000 0.55470  0.82090  0.43150  Biso   1.000  C
  C191     1.0000 0.54270  0.74730  0.41970  Biso   1.000  C
  C192     1.0000 0.51850  0.72470  0.38320  Biso   1.000  C
  C193     1.0000 0.51180  0.65360  0.38740  Biso   1.000  C
  C194     1.0000 0.49110  0.59890  0.35880  Biso   1.000  C
  C195     1.0000 0.23350  0.85480  0.16300  Biso   1.000  C
  C196     1.0000 0.26720  0.92120  0.17410  Biso   1.000  C
  C197     1.0000 0.26430  0.98460  0.15450  Biso   1.000  C
  C198     1.0000 0.30690  0.02800  0.17660  Biso   1.000  C
  C199     1.0000 0.32460  0.10130  0.17030  Biso   1.000  C
  C200     1.0000 0.32430  0.03310  0.06770  Biso   1.000  C
  C201     1.0000 0.25090  0.02380  0.08110  Biso   1.000  C
  C202     1.0000 0.22600  0.00200  0.11800  Biso   1.000  C
  C203     1.0000 0.15550  0.00020  0.11410  Biso   1.000  C
  C204     1.0000 0.10050  0.98450  0.14290  Biso   1.000  C
  C205     1.0000 0.27620  0.69670  0.26320  Biso   1.000  C
  C206     1.0000 0.68930  0.26650  0.08500  Biso   1.000  C
  C207     1.0000 0.61790  0.28490  0.07770  Biso   1.000  C
  C208     1.0000 0.55950  0.26690  0.10040  Biso   1.000  C
  C209     1.0000 0.50410  0.29820  0.08200  Biso   1.000  C
  C210     1.0000 0.43190  0.29710  0.09290  Biso   1.000  C
  C211     1.0000 0.60220  0.30610  0.18810  Biso   1.000  C
  C212     1.0000 0.58080  0.23880  0.17310  Biso   1.000  C
  C213     1.0000 0.55870  0.22090  0.13540  Biso   1.000  C
  C214     1.0000 0.53910  0.15460  0.13700  Biso   1.000  C
  C215     1.0000 0.51020  0.10730  0.10610  Biso   1.000  C
  C216     1.0000 0.79930  0.13910  0.31340  Biso   1.000  C
  C217     1.0000 0.73590  0.10270  0.32780  Biso   1.000  C
  C218     1.0000 0.72350  0.07520  0.36590  Biso   1.000  C
  C219     1.0000 0.65800  0.04720  0.36330  Biso   1.000  C
  C220     1.0000 0.61380  0.01340  0.39430  Biso   1.000  C
  C221     1.0000 0.77500  0.20670  0.41620  Biso   1.000  C
  C222     1.0000 0.79100  0.13320  0.42220  Biso   1.000  C
  C223     1.0000 0.76940  0.07600  0.40090  Biso   1.000  C
  C224     1.0000 0.79920  0.01900  0.41750  Biso   1.000  C
  C225     1.0000 0.79940  0.94520  0.40730  Biso   1.000  C
  C226     1.0000 0.62870  0.26490  0.34320  Biso   1.000  C
  C227     1.0000 0.56310  0.23430  0.32910  Biso   1.000  C
  C228     1.0000 0.49940  0.23650  0.34750  Biso   1.000  C
  C229     1.0000 0.45580  0.19950  0.32320  Biso   1.000  C
  C230     1.0000 0.38120  0.18350  0.32550  Biso   1.000  C
  C231     1.0000 0.44530  0.17910  0.43150  Biso   1.000  C
  C232     1.0000 0.45730  0.25270  0.41970  Biso   1.000  C
  C233     1.0000 0.48150  0.27530  0.38320  Biso   1.000  C
  C234     1.0000 0.48820  0.34640  0.38740  Biso   1.000  C
  C235     1.0000 0.50890  0.40110  0.35880  Biso   1.000  C
  C236     1.0000 0.76650  0.14520  0.16300  Biso   1.000  C
  C237     1.0000 0.73280  0.07880  0.17410  Biso   1.000  C
  C238     1.0000 0.73570  0.01540  0.15450  Biso   1.000  C
  C239     1.0000 0.69310  0.97200  0.17660  Biso   1.000  C
  C240     1.0000 0.67540  0.89870  0.17030  Biso   1.000  C
  C241     1.0000 0.67570  0.96690  0.06770  Biso   1.000  C
  C242     1.0000 0.74910  0.97620  0.08110  Biso   1.000  C
  C243     1.0000 0.77400  0.99800  0.11800  Biso   1.000  C
  C244     1.0000 0.84450  0.99980  0.11410  Biso   1.000  C
  C245     1.0000 0.89950  0.01550  0.14290  Biso   1.000  C
  C246     1.0000 0.72380  0.30330  0.26320  Biso   1.000  C
  C247     1.0000 0.26650  0.31070  0.58500  Biso   1.000  C
  C248     1.0000 0.28490  0.38210  0.57770  Biso   1.000  C
  C249     1.0000 0.26690  0.44050  0.60040  Biso   1.000  C
  C250     1.0000 0.29820  0.49590  0.58200  Biso   1.000  C
  C251     1.0000 0.29710  0.56810  0.59290  Biso   1.000  C
  C252     1.0000 0.30610  0.39780  0.68810  Biso   1.000  C
  C253     1.0000 0.23880  0.41920  0.67310  Biso   1.000  C
  C254     1.0000 0.22090  0.44130  0.63540  Biso   1.000  C
  C255     1.0000 0.15460  0.46090  0.63700  Biso   1.000  C
  C256     1.0000 0.10730  0.48980  0.60610  Biso   1.000  C
  C257     1.0000 0.13910  0.20070  0.81340  Biso   1.000  C
  C258     1.0000 0.10270  0.26410  0.82780  Biso   1.000  C
  C259     1.0000 0.07520  0.27650  0.86590  Biso   1.000  C
  C260     1.0000 0.04720  0.34200  0.86330  Biso   1.000  C
  C261     1.0000 0.01340  0.38620  0.89430  Biso   1.000  C
  C262     1.0000 0.20670  0.22500  0.91620  Biso   1.000  C
  C263     1.0000 0.13320  0.20900  0.92220  Biso   1.000  C
  C264     1.0000 0.07600  0.23060  0.90090  Biso   1.000  C
  C265     1.0000 0.01900  0.20080  0.91750  Biso   1.000  C
  C266     1.0000 0.94520  0.20060  0.90730  Biso   1.000  C
  C267     1.0000 0.26490  0.37130  0.84320  Biso   1.000  C
  C268     1.0000 0.23430  0.43690  0.82910  Biso   1.000  C
  C269     1.0000 0.23650  0.50060  0.84750  Biso   1.000  C
  C270     1.0000 0.19950  0.54420  0.82320  Biso   1.000  C
  C271     1.0000 0.18350  0.61880  0.82550  Biso   1.000  C
  C272     1.0000 0.17910  0.55470  0.93150  Biso   1.000  C
  C273     1.0000 0.25270  0.54270  0.91970  Biso   1.000  C
  C274     1.0000 0.27530  0.51850  0.88320  Biso   1.000  C
  C275     1.0000 0.34640  0.51180  0.88740  Biso   1.000  C
  C276     1.0000 0.40110  0.49110  0.85880  Biso   1.000  C
  C277     1.0000 0.14520  0.23350  0.66300  Biso   1.000  C
  C278     1.0000 0.07880  0.26720  0.67410  Biso   1.000  C
  C279     1.0000 0.01540  0.26430  0.65450  Biso   1.000  C
  C280     1.0000 0.97200  0.30690  0.67660  Biso   1.000  C
  C281     1.0000 0.89870  0.32460  0.67030  Biso   1.000  C
  C282     1.0000 0.96690  0.32430  0.56770  Biso   1.000  C
  C283     1.0000 0.97620  0.25090  0.58110  Biso   1.000  C
  C284     1.0000 0.99800  0.22600  0.61800  Biso   1.000  C
  C285     1.0000 0.99980  0.15550  0.61410  Biso   1.000  C
  C286     1.0000 0.01550  0.10050  0.64290  Biso   1.000  C
  C287     1.0000 0.30330  0.27620  0.76320  Biso   1.000  C
  C288     1.0000 0.73350  0.68930  0.58500  Biso   1.000  C
  C289     1.0000 0.71510  0.61790  0.57770  Biso   1.000  C
  C290     1.0000 0.73310  0.55950  0.60040  Biso   1.000  C
  C291     1.0000 0.70180  0.50410  0.58200  Biso   1.000  C
  C292     1.0000 0.70290  0.43190  0.59290  Biso   1.000  C
  C293     1.0000 0.69390  0.60220  0.68810  Biso   1.000  C
  C294     1.0000 0.76120  0.58080  0.67310  Biso   1.000  C
  C295     1.0000 0.77910  0.55870  0.63540  Biso   1.000  C
  C296     1.0000 0.84540  0.53910  0.63700  Biso   1.000  C
  C297     1.0000 0.89270  0.51020  0.60610  Biso   1.000  C
  C298     1.0000 0.86090  0.79930  0.81340  Biso   1.000  C
  C299     1.0000 0.89730  0.73590  0.82780  Biso   1.000  C
  C300     1.0000 0.92480  0.72350  0.86590  Biso   1.000  C
  C301     1.0000 0.95280  0.65800  0.86330  Biso   1.000  C
  C302     1.0000 0.98660  0.61380  0.89430  Biso   1.000  C
  C303     1.0000 0.79330  0.77500  0.91620  Biso   1.000  C
  C304     1.0000 0.86680  0.79100  0.92220  Biso   1.000  C
  C305     1.0000 0.92400  0.76940  0.90090  Biso   1.000  C
  C306     1.0000 0.98100  0.79920  0.91750  Biso   1.000  C
  C307     1.0000 0.05480  0.79940  0.90730  Biso   1.000  C
  C308     1.0000 0.73510  0.62870  0.84320  Biso   1.000  C
  C309     1.0000 0.76570  0.56310  0.82910  Biso   1.000  C
  C310     1.0000 0.76350  0.49940  0.84750  Biso   1.000  C
  C311     1.0000 0.80050  0.45580  0.82320  Biso   1.000  C
  C312     1.0000 0.81650  0.38120  0.82550  Biso   1.000  C
  C313     1.0000 0.82090  0.44530  0.93150  Biso   1.000  C
  C314     1.0000 0.74730  0.45730  0.91970  Biso   1.000  C
  C315     1.0000 0.72470  0.48150  0.88320  Biso   1.000  C
  C316     1.0000 0.65360  0.48820  0.88740  Biso   1.000  C
  C317     1.0000 0.59890  0.50890  0.85880  Biso   1.000  C
  C318     1.0000 0.85480  0.76650  0.66300  Biso   1.000  C
  C319     1.0000 0.92120  0.73280  0.67410  Biso   1.000  C
  C320     1.0000 0.98460  0.73570  0.65450  Biso   1.000  C
  C321     1.0000 0.02800  0.69310  0.67660  Biso   1.000  C
  C322     1.0000 0.10130  0.67540  0.67030  Biso   1.000  C
  C323     1.0000 0.03310  0.67570  0.56770  Biso   1.000  C
  C324     1.0000 0.02380  0.74910  0.58110  Biso   1.000  C
  C325     1.0000 0.00200  0.77400  0.61800  Biso   1.000  C
  C326     1.0000 0.00020  0.84450  0.61410  Biso   1.000  C
  C327     1.0000 0.98450  0.89950  0.64290  Biso   1.000  C
  C328     1.0000 0.69670  0.72380  0.76320  Biso   1.000  C
  C329     1.0000 0.82670  0.31440  0.00000  Biso   1.000  C
  C330     1.0000 0.17330  0.68560  0.00000  Biso   1.000  C
  C331     1.0000 0.68560  0.82670  0.50000  Biso   1.000  C
  C332     1.0000 0.31440  0.17330  0.50000  Biso   1.000  C
  C333     1.0000 0.82550  0.33530  0.50000  Biso   1.000  C
  C334     1.0000 0.17450  0.66470  0.50000  Biso   1.000  C
  C335     1.0000 0.66470  0.82550  0.00000  Biso   1.000  C
  C336     1.0000 0.33530  0.17450  0.00000  Biso   1.000  C
  S1       1.0000 0.73821  0.38063  0.72304  Biso   1.000  S
  S2       1.0000 0.26179  0.61937  0.72304  Biso   1.000  S
  S3       1.0000 0.61937  0.73821  0.22304  Biso   1.000  S
  S4       1.0000 0.38063  0.26179  0.22304  Biso   1.000  S
  S5       1.0000 0.26179  0.61937  0.27696  Biso   1.000  S
  S6       1.0000 0.73821  0.38063  0.27696  Biso   1.000  S
  S7       1.0000 0.38063  0.26179  0.77696  Biso   1.000  S
  S8       1.0000 0.61937  0.73821  0.77696  Biso   1.000  S
  S9       1.0000 0.91040  0.30120  0.00000  Biso   1.000  S
  S10      1.0000 0.08960  0.69880  0.00000  Biso   1.000  S
  S11      1.0000 0.69880  0.91040  0.50000  Biso   1.000  S
  S12      1.0000 0.30120  0.08960  0.50000  Biso   1.000  S
  S13      1.0000 0.81110  0.41930  0.50000  Biso   1.000  S
  S14      1.0000 0.18890  0.58070  0.50000  Biso   1.000  S
  S15      1.0000 0.58070  0.81110  0.00000  Biso   1.000  S
  S16      1.0000 0.41930  0.18890  0.00000  Biso   1.000  S
  N1       1.0000 0.59890  0.32520  0.95211  Biso   1.000  N
  N2       1.0000 0.53060  0.33180  0.94911  Biso   1.000  N
  N3       1.0000 0.57480  0.18510  0.80159  Biso   1.000  N
  N4       1.0000 0.54930  0.13350  0.82537  Biso   1.000  N
  N5       1.0000 0.68270  0.09390  0.69533  Biso   1.000  N
  N6       1.0000 0.63600  0.06010  0.67351  Biso   1.000  N
  N7       1.0000 0.83150  0.11290  0.54734  Biso   1.000  N
  N8       1.0000 0.83670  0.04420  0.55135  Biso   1.000  N
  N9       1.0000 0.56050  0.19680  0.70474  Biso   1.000  N
  N10      1.0000 0.49470  0.17710  0.70725  Biso   1.000  N
  N11      1.0000 0.45110  0.30390  0.55465  Biso   1.000  N
  N12      1.0000 0.47000  0.36020  0.57545  Biso   1.000  N
  N13      1.0000 0.69280  0.07430  0.79407  Biso   1.000  N
  N14      1.0000 0.66910  0.00900  0.79384  Biso   1.000  N
  N15      1.0000 0.80050  0.96530  0.94454  Biso   1.000  N
  N16      1.0000 0.85790  0.98000  0.92292  Biso   1.000  N
  N17      1.0000 0.71720  0.24600  0.74700  Biso   1.000  N
  N18      1.0000 0.40110  0.67480  0.95211  Biso   1.000  N
  N19      1.0000 0.46940  0.66820  0.94911  Biso   1.000  N
  N20      1.0000 0.42520  0.81490  0.80159  Biso   1.000  N
  N21      1.0000 0.45070  0.86650  0.82537  Biso   1.000  N
  N22      1.0000 0.31730  0.90610  0.69533  Biso   1.000  N
  N23      1.0000 0.36400  0.93990  0.67351  Biso   1.000  N
  N24      1.0000 0.16850  0.88710  0.54734  Biso   1.000  N
  N25      1.0000 0.16330  0.95580  0.55135  Biso   1.000  N
  N26      1.0000 0.43950  0.80320  0.70474  Biso   1.000  N
  N27      1.0000 0.50530  0.82290  0.70725  Biso   1.000  N
  N28      1.0000 0.54890  0.69610  0.55465  Biso   1.000  N
  N29      1.0000 0.53000  0.63980  0.57545  Biso   1.000  N
  N30      1.0000 0.30720  0.92570  0.79407  Biso   1.000  N
  N31      1.0000 0.33090  0.99100  0.79384  Biso   1.000  N
  N32      1.0000 0.19950  0.03470  0.94454  Biso   1.000  N
  N33      1.0000 0.14210  0.02000  0.92292  Biso   1.000  N
  N34      1.0000 0.28280  0.75400  0.74700  Biso   1.000  N
  N35      1.0000 0.67480  0.59890  0.45211  Biso   1.000  N
  N36      1.0000 0.66820  0.53060  0.44911  Biso   1.000  N
  N37      1.0000 0.81490  0.57480  0.30159  Biso   1.000  N
  N38      1.0000 0.86650  0.54930  0.32537  Biso   1.000  N
  N39      1.0000 0.90610  0.68270  0.19533  Biso   1.000  N
  N40      1.0000 0.93990  0.63600  0.17351  Biso   1.000  N
  N41      1.0000 0.88710  0.83150  0.04734  Biso   1.000  N
  N42      1.0000 0.95580  0.83670  0.05135  Biso   1.000  N
  N43      1.0000 0.80320  0.56050  0.20474  Biso   1.000  N
  N44      1.0000 0.82290  0.49470  0.20725  Biso   1.000  N
  N45      1.0000 0.69610  0.45110  0.05465  Biso   1.000  N
  N46      1.0000 0.63980  0.47000  0.07545  Biso   1.000  N
  N47      1.0000 0.92570  0.69280  0.29407  Biso   1.000  N
  N48      1.0000 0.99100  0.66910  0.29384  Biso   1.000  N
  N49      1.0000 0.03470  0.80050  0.44454  Biso   1.000  N
  N50      1.0000 0.02000  0.85790  0.42292  Biso   1.000  N
  N51      1.0000 0.75400  0.71720  0.24700  Biso   1.000  N
  N52      1.0000 0.32520  0.40110  0.45211  Biso   1.000  N
  N53      1.0000 0.33180  0.46940  0.44911  Biso   1.000  N
  N54      1.0000 0.18510  0.42520  0.30159  Biso   1.000  N
  N55      1.0000 0.13350  0.45070  0.32537  Biso   1.000  N
  N56      1.0000 0.09390  0.31730  0.19533  Biso   1.000  N
  N57      1.0000 0.06010  0.36400  0.17351  Biso   1.000  N
  N58      1.0000 0.11290  0.16850  0.04734  Biso   1.000  N
  N59      1.0000 0.04420  0.16330  0.05135  Biso   1.000  N
  N60      1.0000 0.19680  0.43950  0.20474  Biso   1.000  N
  N61      1.0000 0.17710  0.50530  0.20725  Biso   1.000  N
  N62      1.0000 0.30390  0.54890  0.05465  Biso   1.000  N
  N63      1.0000 0.36020  0.53000  0.07545  Biso   1.000  N
  N64      1.0000 0.07430  0.30720  0.29407  Biso   1.000  N
  N65      1.0000 0.00900  0.33090  0.29384  Biso   1.000  N
  N66      1.0000 0.96530  0.19950  0.44454  Biso   1.000  N
  N67      1.0000 0.98000  0.14210  0.42292  Biso   1.000  N
  N68      1.0000 0.24600  0.28280  0.24700  Biso   1.000  N
  N69      1.0000 0.40110  0.67480  0.04789  Biso   1.000  N
  N70      1.0000 0.46940  0.66820  0.05089  Biso   1.000  N
  N71      1.0000 0.42520  0.81490  0.19841  Biso   1.000  N
  N72      1.0000 0.45070  0.86650  0.17463  Biso   1.000  N
  N73      1.0000 0.31730  0.90610  0.30467  Biso   1.000  N
  N74      1.0000 0.36400  0.93990  0.32649  Biso   1.000  N
  N75      1.0000 0.16850  0.88710  0.45266  Biso   1.000  N
  N76      1.0000 0.16330  0.95580  0.44865  Biso   1.000  N
  N77      1.0000 0.43950  0.80320  0.29526  Biso   1.000  N
  N78      1.0000 0.50530  0.82290  0.29275  Biso   1.000  N
  N79      1.0000 0.54890  0.69610  0.44535  Biso   1.000  N
  N80      1.0000 0.53000  0.63980  0.42455  Biso   1.000  N
  N81      1.0000 0.30720  0.92570  0.20593  Biso   1.000  N
  N82      1.0000 0.33090  0.99100  0.20616  Biso   1.000  N
  N83      1.0000 0.19950  0.03470  0.05546  Biso   1.000  N
  N84      1.0000 0.14210  0.02000  0.07708  Biso   1.000  N
  N85      1.0000 0.28280  0.75400  0.25300  Biso   1.000  N
  N86      1.0000 0.59890  0.32520  0.04789  Biso   1.000  N
  N87      1.0000 0.53060  0.33180  0.05089  Biso   1.000  N
  N88      1.0000 0.57480  0.18510  0.19841  Biso   1.000  N
  N89      1.0000 0.54930  0.13350  0.17463  Biso   1.000  N
  N90      1.0000 0.68270  0.09390  0.30467  Biso   1.000  N
  N91      1.0000 0.63600  0.06010  0.32649  Biso   1.000  N
  N92      1.0000 0.83150  0.11290  0.45266  Biso   1.000  N
  N93      1.0000 0.83670  0.04420  0.44865  Biso   1.000  N
  N94      1.0000 0.56050  0.19680  0.29526  Biso   1.000  N
  N95      1.0000 0.49470  0.17710  0.29275  Biso   1.000  N
  N96      1.0000 0.45110  0.30390  0.44535  Biso   1.000  N
  N97      1.0000 0.47000  0.36020  0.42455  Biso   1.000  N
  N98      1.0000 0.69280  0.07430  0.20593  Biso   1.000  N
  N99      1.0000 0.66910  0.00900  0.20616  Biso   1.000  N
  N100     1.0000 0.80050  0.96530  0.05546  Biso   1.000  N
  N101     1.0000 0.85790  0.98000  0.07708  Biso   1.000  N
  N102     1.0000 0.71720  0.24600  0.25300  Biso   1.000  N
  N103     1.0000 0.32520  0.40110  0.54789  Biso   1.000  N
  N104     1.0000 0.33180  0.46940  0.55089  Biso   1.000  N
  N105     1.0000 0.18510  0.42520  0.69841  Biso   1.000  N
  N106     1.0000 0.13350  0.45070  0.67463  Biso   1.000  N
  N107     1.0000 0.09390  0.31730  0.80467  Biso   1.000  N
  N108     1.0000 0.06010  0.36400  0.82649  Biso   1.000  N
  N109     1.0000 0.11290  0.16850  0.95266  Biso   1.000  N
  N110     1.0000 0.04420  0.16330  0.94865  Biso   1.000  N
  N111     1.0000 0.19680  0.43950  0.79526  Biso   1.000  N
  N112     1.0000 0.17710  0.50530  0.79275  Biso   1.000  N
  N113     1.0000 0.30390  0.54890  0.94535  Biso   1.000  N
  N114     1.0000 0.36020  0.53000  0.92455  Biso   1.000  N
  N115     1.0000 0.07430  0.30720  0.70593  Biso   1.000  N
  N116     1.0000 0.00900  0.33090  0.70616  Biso   1.000  N
  N117     1.0000 0.96530  0.19950  0.55546  Biso   1.000  N
  N118     1.0000 0.98000  0.14210  0.57708  Biso   1.000  N
  N119     1.0000 0.24600  0.28280  0.75300  Biso   1.000  N
  N120     1.0000 0.67480  0.59890  0.54789  Biso   1.000  N
  N121     1.0000 0.66820  0.53060  0.55089  Biso   1.000  N
  N122     1.0000 0.81490  0.57480  0.69841  Biso   1.000  N
  N123     1.0000 0.86650  0.54930  0.67463  Biso   1.000  N
  N124     1.0000 0.90610  0.68270  0.80467  Biso   1.000  N
  N125     1.0000 0.93990  0.63600  0.82649  Biso   1.000  N
  N126     1.0000 0.88710  0.83150  0.95266  Biso   1.000  N
  N127     1.0000 0.95580  0.83670  0.94865  Biso   1.000  N
  N128     1.0000 0.80320  0.56050  0.79526  Biso   1.000  N
  N129     1.0000 0.82290  0.49470  0.79275  Biso   1.000  N
  N130     1.0000 0.69610  0.45110  0.94535  Biso   1.000  N
  N131     1.0000 0.63980  0.47000  0.92455  Biso   1.000  N
  N132     1.0000 0.92570  0.69280  0.70593  Biso   1.000  N
  N133     1.0000 0.99100  0.66910  0.70616  Biso   1.000  N
  N134     1.0000 0.03470  0.80050  0.55546  Biso   1.000  N
  N135     1.0000 0.02000  0.85790  0.57708  Biso   1.000  N
  N136     1.0000 0.75400  0.71720  0.75300  Biso   1.000  N
  N137     1.0000 0.76640  0.31930  0.00000  Biso   1.000  N
  N138     1.0000 0.23360  0.68070  0.00000  Biso   1.000  N
  N139     1.0000 0.68070  0.76640  0.50000  Biso   1.000  N
  N140     1.0000 0.31930  0.23360  0.50000  Biso   1.000  N
  N141     1.0000 0.84030  0.27970  0.50000  Biso   1.000  N
  N142     1.0000 0.15970  0.72030  0.50000  Biso   1.000  N
  N143     1.0000 0.72030  0.84030  0.00000  Biso   1.000  N
  N144     1.0000 0.27970  0.15970  0.00000  Biso   1.000  N
