data_image0
_cell_length_a       8.96
_cell_length_b       28.437
_cell_length_c       56.8
_cell_angle_alpha    90
_cell_angle_beta     90
_cell_angle_gamma    90

_symmetry_space_group_name_H-M    "P 1"
_symmetry_int_tables_number       1

loop_
  _symmetry_equiv_pos_as_xyz
  'x, y, z'

loop_
  _atom_site_label
  _atom_site_occupancy
  _atom_site_fract_x
  _atom_site_fract_y
  _atom_site_fract_z
  _atom_site_thermal_displace_type
  _atom_site_B_iso_or_equiv
  _atom_site_type_symbol
  C1       1.0000 0.17600  0.03160  0.18100  Biso   1.000  C
  H1       1.0000 0.24780  0.05610  0.18090  Biso   1.000  H
  N1       1.0000 0.11730  0.00920  0.20137  Biso   1.000  N
  C2       1.0000 0.01360  0.97450  0.19390  Biso   1.000  C
  H2       1.0000 0.95760  0.95420  0.20380  Biso   1.000  H
  C3       1.0000 0.00830  0.97550  0.16890  Biso   1.000  C
  H3       1.0000 0.94820  0.95600  0.15920  Biso   1.000  H
  N2       1.0000 0.10870  0.01070  0.16095  Biso   1.000  N
  C4       1.0000 0.27740  0.06570  0.25340  Biso   1.000  C
  H4       1.0000 0.30980  0.09600  0.25820  Biso   1.000  H
  C5       1.0000 0.22440  0.05870  0.23065  Biso   1.000  C
  H5       1.0000 0.22060  0.08420  0.21990  Biso   1.000  H
  C6       1.0000 0.17710  0.01430  0.22364  Biso   1.000  C
  C7       1.0000 0.18270  0.97690  0.23940  Biso   1.000  C
  H6       1.0000 0.15040  0.94650  0.23460  Biso   1.000  H
  C8       1.0000 0.23570  0.98390  0.26210  Biso   1.000  C
  H7       1.0000 0.23960  0.95830  0.27290  Biso   1.000  H
  C9       1.0000 0.28310  0.02830  0.26911  Biso   1.000  C
  C10      1.0000 0.30230  0.23240  0.35090  Biso   1.000  C
  H8       1.0000 0.40480  0.23670  0.34720  Biso   1.000  H
  C11      1.0000 0.21180  0.26400  0.36390  Biso   1.000  C
  H9       1.0000 0.24300  0.29320  0.37040  Biso   1.000  H
  N3       1.0000 0.06630  0.24450  0.36548  Biso   1.000  N
  C12      1.0000 0.06690  0.20080  0.35340  Biso   1.000  C
  H10      1.0000 0.98430  0.18010  0.35170  Biso   1.000  H
  N4       1.0000 0.21280  0.19330  0.34439  Biso   1.000  N
  C13      1.0000 0.38380  0.13710  0.33333  Biso   1.000  C
  H11      1.0000 0.45560  0.15110  0.34350  Biso   1.000  H
  C14      1.0000 0.24080  0.15590  0.33190  Biso   1.000  C
  C15      1.0000 0.13580  0.13550  0.31710  Biso   1.000  C
  H12      1.0000 0.03810  0.14830  0.31610  Biso   1.000  H
  C16      1.0000 0.17380  0.09640  0.30365  Biso   1.000  C
  H13      1.0000 0.10200  0.08250  0.29350  Biso   1.000  H
  C17      1.0000 0.31680  0.07770  0.30508  Biso   1.000  C
  C18      1.0000 0.42180  0.09800  0.31990  Biso   1.000  C
  H14      1.0000 0.51960  0.08530  0.32090  Biso   1.000  H
  C19      1.0000 0.59600  0.86530  0.35390  Biso   1.000  C
  H15      1.0000 0.50300  0.87510  0.36010  Biso   1.000  H
  C20      1.0000 0.80700  0.83110  0.35050  Biso   1.000  C
  H16      1.0000 0.89300  0.81270  0.35340  Biso   1.000  H
  C21      1.0000 0.79300  0.86970  0.33310  Biso   1.000  C
  H17      1.0000 0.86110  0.87990  0.32140  Biso   1.000  H
  C22      1.0000 0.59020  0.92990  0.30177  Biso   1.000  C
  H18      1.0000 0.64810  0.90840  0.29280  Biso   1.000  H
  C23      1.0000 0.52000  0.96750  0.29071  Biso   1.000  C
  H19      1.0000 0.53000  0.97170  0.27420  Biso   1.000  H
  C24      1.0000 0.43520  0.99900  0.30381  Biso   1.000  C
  C25      1.0000 0.42050  0.99290  0.32798  Biso   1.000  C
  H20      1.0000 0.36260  0.01440  0.33690  Biso   1.000  H
  C26      1.0000 0.49070  0.95530  0.33904  Biso   1.000  C
  H21      1.0000 0.48060  0.95110  0.35560  Biso   1.000  H
  C27      1.0000 0.57550  0.92380  0.32594  Biso   1.000  C
  N5       1.0000 0.21260  0.97890  0.11077  Biso   1.000  N
  C28      1.0000 0.11580  0.94150  0.10440  Biso   1.000  C
  H22      1.0000 0.01500  0.93790  0.10930  Biso   1.000  H
  C29      1.0000 0.19610  0.91030  0.08955  Biso   1.000  C
  N6       1.0000 0.34250  0.92850  0.08667  Biso   1.000  N
  C30      1.0000 0.35270  0.97090  0.09978  Biso   1.000  C
  H23      1.0000 0.43830  0.99050  0.10100  Biso   1.000  H
  C31      1.0000 0.02350  0.84480  0.09017  Biso   1.000  C
  H24      1.0000 0.99120  0.85430  0.10540  Biso   1.000  H
  C32      1.0000 0.95920  0.80590  0.07941  Biso   1.000  C
  H25      1.0000 0.88310  0.78870  0.08730  Biso   1.000  H
  C33      1.0000 0.00640  0.79200  0.05716  Biso   1.000  C
  C34      1.0000 0.11780  0.81710  0.04566  Biso   1.000  C
  H26      1.0000 0.15000  0.80760  0.03040  Biso   1.000  H
  C35      1.0000 0.18200  0.85610  0.05641  Biso   1.000  C
  H27      1.0000 0.25820  0.87320  0.04860  Biso   1.000  H
  C36      1.0000 0.13490  0.86990  0.07867  Biso   1.000  C
  C37      1.0000 0.75730  0.64290  0.08800  Biso   1.000  C
  C38      1.0000 0.69450  0.65750  0.06600  Biso   1.000  C
  H28      1.0000 0.61140  0.64070  0.05990  Biso   1.000  H
  C39      1.0000 0.75040  0.69560  0.05300  Biso   1.000  C
  H29      1.0000 0.69800  0.70710  0.03970  Biso   1.000  H
  C40      1.0000 0.87670  0.71520  0.05970  Biso   1.000  C
  C41      1.0000 0.95330  0.70070  0.07970  Biso   1.000  C
  H30      1.0000 0.04350  0.71600  0.08390  Biso   1.000  H
  C42      1.0000 0.89930  0.66330  0.09390  Biso   1.000  C
  H31      1.0000 0.95540  0.65210  0.10690  Biso   1.000  H
  C43      1.0000 0.00940  0.68870  0.99065  Biso   1.000  C
  H32      1.0000 0.04250  0.65860  0.98570  Biso   1.000  H
  C44      1.0000 0.99720  0.69870  0.01454  Biso   1.000  C
  H33      1.0000 0.02210  0.67530  0.02590  Biso   1.000  H
  C45      1.0000 0.94870  0.74270  0.02185  Biso   1.000  C
  C46      1.0000 0.91230  0.77680  0.00529  Biso   1.000  C
  H34      1.0000 0.87910  0.80690  0.01030  Biso   1.000  H
  C47      1.0000 0.92440  0.76690  0.98141  Biso   1.000  C
  H35      1.0000 0.89950  0.79020  0.97010  Biso   1.000  H
  C48      1.0000 0.97290  0.72280  0.97409  Biso   1.000  C
  C49      1.0000 0.91560  0.73710  0.93230  Biso   1.000  C
  H36      1.0000 0.84920  0.76290  0.93410  Biso   1.000  H
  N7       1.0000 0.00020  0.71570  0.95054  Biso   1.000  N
  C50      1.0000 0.08470  0.67850  0.94047  Biso   1.000  C
  H37      1.0000 0.15110  0.65830  0.94870  Biso   1.000  H
  C51      1.0000 0.05230  0.67690  0.91601  Biso   1.000  C
  H38      1.0000 0.09340  0.65550  0.90500  Biso   1.000  H
  N8       1.0000 0.94790  0.71310  0.91096  Biso   1.000  N
  Cl1      1.0000 0.34120  0.08133  0.12813  Biso   1.000  Cl
  Cl2      1.0000 0.70490  0.78641  0.87460  Biso   1.000  Cl
  N9       1.0000 0.35250  0.03480  0.29200  Biso   1.000  N
  N10      1.0000 0.65970  0.88590  0.33840  Biso   1.000  N
  N11      1.0000 0.66870  0.82690  0.36170  Biso   1.000  N
  N12      1.0000 0.93540  0.75080  0.04620  Biso   1.000  N
  N13      1.0000 0.52880  0.55820  0.11741  Biso   1.000  N
  C52      1.0000 0.67220  0.53740  0.11963  Biso   1.000  C
  H39      1.0000 0.69380  0.50820  0.12700  Biso   1.000  H
  C53      1.0000 0.77750  0.56780  0.10880  Biso   1.000  C
  H40      1.0000 0.88200  0.56250  0.10770  Biso   1.000  H
  N14      1.0000 0.69920  0.60740  0.09989  Biso   1.000  N
  C54      1.0000 0.54550  0.60140  0.10521  Biso   1.000  C
  H41      1.0000 0.46750  0.62270  0.10130  Biso   1.000  H
  Zn1      1.0000 0.15630  0.03105  0.12988  Biso   1.000  Zn
  Zn2      1.0000 0.88020  0.73021  0.87964  Biso   1.000  Zn
  C55      1.0000 0.32400  0.46840  0.68100  Biso   1.000  C
  H42      1.0000 0.25220  0.44390  0.68090  Biso   1.000  H
  N15      1.0000 0.38270  0.49080  0.70137  Biso   1.000  N
  C56      1.0000 0.48640  0.52550  0.69390  Biso   1.000  C
  H43      1.0000 0.54240  0.54580  0.70380  Biso   1.000  H
  C57      1.0000 0.49170  0.52450  0.66890  Biso   1.000  C
  H44      1.0000 0.55180  0.54400  0.65920  Biso   1.000  H
  N16      1.0000 0.39130  0.48930  0.66095  Biso   1.000  N
  C58      1.0000 0.22260  0.43430  0.75340  Biso   1.000  C
  H45      1.0000 0.19020  0.40400  0.75820  Biso   1.000  H
  C59      1.0000 0.27560  0.44130  0.73065  Biso   1.000  C
  H46      1.0000 0.27940  0.41580  0.71990  Biso   1.000  H
  C60      1.0000 0.32290  0.48570  0.72364  Biso   1.000  C
  C61      1.0000 0.31730  0.52310  0.73940  Biso   1.000  C
  H47      1.0000 0.34960  0.55350  0.73460  Biso   1.000  H
  C62      1.0000 0.26430  0.51610  0.76210  Biso   1.000  C
  H48      1.0000 0.26040  0.54170  0.77290  Biso   1.000  H
  C63      1.0000 0.21690  0.47170  0.76911  Biso   1.000  C
  C64      1.0000 0.19770  0.26760  0.85090  Biso   1.000  C
  H49      1.0000 0.09520  0.26330  0.84720  Biso   1.000  H
  C65      1.0000 0.28820  0.23600  0.86390  Biso   1.000  C
  H50      1.0000 0.25700  0.20680  0.87040  Biso   1.000  H
  N17      1.0000 0.43370  0.25550  0.86548  Biso   1.000  N
  C66      1.0000 0.43310  0.29920  0.85340  Biso   1.000  C
  H51      1.0000 0.51570  0.31990  0.85170  Biso   1.000  H
  N18      1.0000 0.28720  0.30670  0.84439  Biso   1.000  N
  C67      1.0000 0.11620  0.36290  0.83333  Biso   1.000  C
  H52      1.0000 0.04440  0.34890  0.84350  Biso   1.000  H
  C68      1.0000 0.25920  0.34410  0.83190  Biso   1.000  C
  C69      1.0000 0.36420  0.36450  0.81710  Biso   1.000  C
  H53      1.0000 0.46190  0.35170  0.81610  Biso   1.000  H
  C70      1.0000 0.32620  0.40360  0.80365  Biso   1.000  C
  H54      1.0000 0.39800  0.41750  0.79350  Biso   1.000  H
  C71      1.0000 0.18320  0.42230  0.80508  Biso   1.000  C
  C72      1.0000 0.07820  0.40200  0.81990  Biso   1.000  C
  H55      1.0000 0.98040  0.41470  0.82090  Biso   1.000  H
  C73      1.0000 0.90400  0.63470  0.85390  Biso   1.000  C
  H56      1.0000 0.99700  0.62490  0.86010  Biso   1.000  H
  C74      1.0000 0.69300  0.66890  0.85050  Biso   1.000  C
  H57      1.0000 0.60700  0.68730  0.85340  Biso   1.000  H
  C75      1.0000 0.70700  0.63030  0.83310  Biso   1.000  C
  H58      1.0000 0.63890  0.62010  0.82140  Biso   1.000  H
  C76      1.0000 0.90980  0.57010  0.80177  Biso   1.000  C
  H59      1.0000 0.85190  0.59160  0.79280  Biso   1.000  H
  C77      1.0000 0.98000  0.53250  0.79071  Biso   1.000  C
  H60      1.0000 0.97000  0.52830  0.77420  Biso   1.000  H
  C78      1.0000 0.06480  0.50100  0.80381  Biso   1.000  C
  C79      1.0000 0.07950  0.50710  0.82798  Biso   1.000  C
  H61      1.0000 0.13740  0.48560  0.83690  Biso   1.000  H
  C80      1.0000 0.00930  0.54470  0.83904  Biso   1.000  C
  H62      1.0000 0.01940  0.54890  0.85560  Biso   1.000  H
  C81      1.0000 0.92450  0.57620  0.82594  Biso   1.000  C
  N19      1.0000 0.28740  0.52110  0.61077  Biso   1.000  N
  C82      1.0000 0.38420  0.55850  0.60440  Biso   1.000  C
  H63      1.0000 0.48500  0.56210  0.60930  Biso   1.000  H
  C83      1.0000 0.30390  0.58970  0.58955  Biso   1.000  C
  N20      1.0000 0.15750  0.57150  0.58667  Biso   1.000  N
  C84      1.0000 0.14730  0.52910  0.59978  Biso   1.000  C
  H64      1.0000 0.06170  0.50950  0.60100  Biso   1.000  H
  C85      1.0000 0.47650  0.65520  0.59017  Biso   1.000  C
  H65      1.0000 0.50880  0.64570  0.60540  Biso   1.000  H
  C86      1.0000 0.54080  0.69410  0.57941  Biso   1.000  C
  H66      1.0000 0.61690  0.71130  0.58730  Biso   1.000  H
  C87      1.0000 0.49360  0.70800  0.55716  Biso   1.000  C
  C88      1.0000 0.38220  0.68290  0.54566  Biso   1.000  C
  H67      1.0000 0.35000  0.69240  0.53040  Biso   1.000  H
  C89      1.0000 0.31800  0.64390  0.55641  Biso   1.000  C
  H68      1.0000 0.24180  0.62680  0.54860  Biso   1.000  H
  C90      1.0000 0.36510  0.63010  0.57867  Biso   1.000  C
  C91      1.0000 0.74270  0.85710  0.58800  Biso   1.000  C
  C92      1.0000 0.80550  0.84250  0.56600  Biso   1.000  C
  H69      1.0000 0.88860  0.85930  0.55990  Biso   1.000  H
  C93      1.0000 0.74960  0.80440  0.55300  Biso   1.000  C
  H70      1.0000 0.80200  0.79290  0.53970  Biso   1.000  H
  C94      1.0000 0.62330  0.78480  0.55970  Biso   1.000  C
  C95      1.0000 0.54670  0.79930  0.57970  Biso   1.000  C
  H71      1.0000 0.45650  0.78400  0.58390  Biso   1.000  H
  C96      1.0000 0.60070  0.83670  0.59390  Biso   1.000  C
  H72      1.0000 0.54460  0.84790  0.60690  Biso   1.000  H
  C97      1.0000 0.49060  0.81130  0.49065  Biso   1.000  C
  H73      1.0000 0.45750  0.84140  0.48570  Biso   1.000  H
  C98      1.0000 0.50280  0.80130  0.51454  Biso   1.000  C
  H74      1.0000 0.47790  0.82470  0.52590  Biso   1.000  H
  C99      1.0000 0.55130  0.75730  0.52185  Biso   1.000  C
  C100     1.0000 0.58770  0.72320  0.50529  Biso   1.000  C
  H75      1.0000 0.62090  0.69310  0.51030  Biso   1.000  H
  C101     1.0000 0.57560  0.73310  0.48141  Biso   1.000  C
  H76      1.0000 0.60050  0.70980  0.47010  Biso   1.000  H
  C102     1.0000 0.52710  0.77720  0.47409  Biso   1.000  C
  C103     1.0000 0.58440  0.76290  0.43230  Biso   1.000  C
  H77      1.0000 0.65080  0.73710  0.43410  Biso   1.000  H
  N21      1.0000 0.49980  0.78430  0.45054  Biso   1.000  N
  C104     1.0000 0.41530  0.82150  0.44047  Biso   1.000  C
  H78      1.0000 0.34890  0.84170  0.44870  Biso   1.000  H
  C105     1.0000 0.44770  0.82310  0.41601  Biso   1.000  C
  H79      1.0000 0.40660  0.84450  0.40500  Biso   1.000  H
  N22      1.0000 0.55210  0.78690  0.41096  Biso   1.000  N
  Cl3      1.0000 0.15880  0.41867  0.62813  Biso   1.000  Cl
  Cl4      1.0000 0.79510  0.71359  0.37460  Biso   1.000  Cl
  N23      1.0000 0.14750  0.46520  0.79200  Biso   1.000  N
  N24      1.0000 0.84030  0.61410  0.83840  Biso   1.000  N
  N25      1.0000 0.83130  0.67310  0.86170  Biso   1.000  N
  N26      1.0000 0.56460  0.74920  0.54620  Biso   1.000  N
  N27      1.0000 0.97120  0.94180  0.61741  Biso   1.000  N
  C106     1.0000 0.82780  0.96260  0.61963  Biso   1.000  C
  H80      1.0000 0.80620  0.99180  0.62700  Biso   1.000  H
  C107     1.0000 0.72250  0.93220  0.60880  Biso   1.000  C
  H81      1.0000 0.61800  0.93750  0.60770  Biso   1.000  H
  N28      1.0000 0.80080  0.89260  0.59989  Biso   1.000  N
  C108     1.0000 0.95450  0.89860  0.60521  Biso   1.000  C
  H82      1.0000 0.03250  0.87730  0.60130  Biso   1.000  H
  Zn3      1.0000 0.34370  0.46895  0.62988  Biso   1.000  Zn
  Zn4      1.0000 0.61980  0.76979  0.37964  Biso   1.000  Zn
  C109     1.0000 0.17600  0.96840  0.68100  Biso   1.000  C
  H83      1.0000 0.24780  0.94390  0.68090  Biso   1.000  H
  N29      1.0000 0.11730  0.99080  0.70137  Biso   1.000  N
  C110     1.0000 0.01360  0.02550  0.69390  Biso   1.000  C
  H84      1.0000 0.95760  0.04580  0.70380  Biso   1.000  H
  C111     1.0000 0.00830  0.02450  0.66890  Biso   1.000  C
  H85      1.0000 0.94820  0.04400  0.65920  Biso   1.000  H
  N30      1.0000 0.10870  0.98930  0.66095  Biso   1.000  N
  C112     1.0000 0.27740  0.93430  0.75340  Biso   1.000  C
  H86      1.0000 0.30980  0.90400  0.75820  Biso   1.000  H
  C113     1.0000 0.22440  0.94130  0.73065  Biso   1.000  C
  H87      1.0000 0.22060  0.91580  0.71990  Biso   1.000  H
  C114     1.0000 0.17710  0.98570  0.72364  Biso   1.000  C
  C115     1.0000 0.18270  0.02310  0.73940  Biso   1.000  C
  H88      1.0000 0.15040  0.05350  0.73460  Biso   1.000  H
  C116     1.0000 0.23570  0.01610  0.76210  Biso   1.000  C
  H89      1.0000 0.23960  0.04170  0.77290  Biso   1.000  H
  C117     1.0000 0.28310  0.97170  0.76911  Biso   1.000  C
  C118     1.0000 0.30230  0.76760  0.85090  Biso   1.000  C
  H90      1.0000 0.40480  0.76330  0.84720  Biso   1.000  H
  C119     1.0000 0.21180  0.73600  0.86390  Biso   1.000  C
  H91      1.0000 0.24300  0.70680  0.87040  Biso   1.000  H
  N31      1.0000 0.06630  0.75550  0.86548  Biso   1.000  N
  C120     1.0000 0.06690  0.79920  0.85340  Biso   1.000  C
  H92      1.0000 0.98430  0.81990  0.85170  Biso   1.000  H
  N32      1.0000 0.21280  0.80670  0.84439  Biso   1.000  N
  C121     1.0000 0.38380  0.86290  0.83333  Biso   1.000  C
  H93      1.0000 0.45560  0.84890  0.84350  Biso   1.000  H
  C122     1.0000 0.24080  0.84410  0.83190  Biso   1.000  C
  C123     1.0000 0.13580  0.86450  0.81710  Biso   1.000  C
  H94      1.0000 0.03810  0.85170  0.81610  Biso   1.000  H
  C124     1.0000 0.17380  0.90360  0.80365  Biso   1.000  C
  H95      1.0000 0.10200  0.91750  0.79350  Biso   1.000  H
  C125     1.0000 0.31680  0.92230  0.80508  Biso   1.000  C
  C126     1.0000 0.42180  0.90200  0.81990  Biso   1.000  C
  H96      1.0000 0.51960  0.91470  0.82090  Biso   1.000  H
  C127     1.0000 0.59600  0.13470  0.85390  Biso   1.000  C
  H97      1.0000 0.50300  0.12490  0.86010  Biso   1.000  H
  C128     1.0000 0.80700  0.16890  0.85050  Biso   1.000  C
  H98      1.0000 0.89300  0.18730  0.85340  Biso   1.000  H
  C129     1.0000 0.79300  0.13030  0.83310  Biso   1.000  C
  H99      1.0000 0.86110  0.12010  0.82140  Biso   1.000  H
  C130     1.0000 0.59020  0.07010  0.80177  Biso   1.000  C
  H100     1.0000 0.64810  0.09160  0.79280  Biso   1.000  H
  C131     1.0000 0.52000  0.03250  0.79071  Biso   1.000  C
  H101     1.0000 0.53000  0.02830  0.77420  Biso   1.000  H
  C132     1.0000 0.43520  0.00100  0.80381  Biso   1.000  C
  C133     1.0000 0.42050  0.00710  0.82798  Biso   1.000  C
  H102     1.0000 0.36260  0.98560  0.83690  Biso   1.000  H
  C134     1.0000 0.49070  0.04470  0.83904  Biso   1.000  C
  H103     1.0000 0.48060  0.04890  0.85560  Biso   1.000  H
  C135     1.0000 0.57550  0.07620  0.82594  Biso   1.000  C
  N33      1.0000 0.21260  0.02110  0.61077  Biso   1.000  N
  C136     1.0000 0.11580  0.05850  0.60440  Biso   1.000  C
  H104     1.0000 0.01500  0.06210  0.60930  Biso   1.000  H
  C137     1.0000 0.19610  0.08970  0.58955  Biso   1.000  C
  N34      1.0000 0.34250  0.07150  0.58667  Biso   1.000  N
  C138     1.0000 0.35270  0.02910  0.59978  Biso   1.000  C
  H105     1.0000 0.43830  0.00950  0.60100  Biso   1.000  H
  C139     1.0000 0.02350  0.15520  0.59017  Biso   1.000  C
  H106     1.0000 0.99120  0.14570  0.60540  Biso   1.000  H
  C140     1.0000 0.95920  0.19410  0.57941  Biso   1.000  C
  H107     1.0000 0.88310  0.21130  0.58730  Biso   1.000  H
  C141     1.0000 0.00640  0.20800  0.55716  Biso   1.000  C
  C142     1.0000 0.11780  0.18290  0.54566  Biso   1.000  C
  H108     1.0000 0.15000  0.19240  0.53040  Biso   1.000  H
  C143     1.0000 0.18200  0.14390  0.55641  Biso   1.000  C
  H109     1.0000 0.25820  0.12680  0.54860  Biso   1.000  H
  C144     1.0000 0.13490  0.13010  0.57867  Biso   1.000  C
  C145     1.0000 0.75730  0.35710  0.58800  Biso   1.000  C
  C146     1.0000 0.69450  0.34250  0.56600  Biso   1.000  C
  H110     1.0000 0.61140  0.35930  0.55990  Biso   1.000  H
  C147     1.0000 0.75040  0.30440  0.55300  Biso   1.000  C
  H111     1.0000 0.69800  0.29290  0.53970  Biso   1.000  H
  C148     1.0000 0.87670  0.28480  0.55970  Biso   1.000  C
  C149     1.0000 0.95330  0.29930  0.57970  Biso   1.000  C
  H112     1.0000 0.04350  0.28400  0.58390  Biso   1.000  H
  C150     1.0000 0.89930  0.33670  0.59390  Biso   1.000  C
  H113     1.0000 0.95540  0.34790  0.60690  Biso   1.000  H
  C151     1.0000 0.00940  0.31130  0.49065  Biso   1.000  C
  H114     1.0000 0.04250  0.34140  0.48570  Biso   1.000  H
  C152     1.0000 0.99720  0.30130  0.51454  Biso   1.000  C
  H115     1.0000 0.02210  0.32470  0.52590  Biso   1.000  H
  C153     1.0000 0.94870  0.25730  0.52185  Biso   1.000  C
  C154     1.0000 0.91230  0.22320  0.50529  Biso   1.000  C
  H116     1.0000 0.87910  0.19310  0.51030  Biso   1.000  H
  C155     1.0000 0.92440  0.23310  0.48141  Biso   1.000  C
  H117     1.0000 0.89950  0.20980  0.47010  Biso   1.000  H
  C156     1.0000 0.97290  0.27720  0.47409  Biso   1.000  C
  C157     1.0000 0.91560  0.26290  0.43230  Biso   1.000  C
  H118     1.0000 0.84920  0.23710  0.43410  Biso   1.000  H
  N35      1.0000 0.00020  0.28430  0.45054  Biso   1.000  N
  C158     1.0000 0.08470  0.32150  0.44047  Biso   1.000  C
  H119     1.0000 0.15110  0.34170  0.44870  Biso   1.000  H
  C159     1.0000 0.05230  0.32310  0.41601  Biso   1.000  C
  H120     1.0000 0.09340  0.34450  0.40500  Biso   1.000  H
  N36      1.0000 0.94790  0.28690  0.41096  Biso   1.000  N
  Cl5      1.0000 0.34120  0.91867  0.62813  Biso   1.000  Cl
  Cl6      1.0000 0.70490  0.21359  0.37460  Biso   1.000  Cl
  N37      1.0000 0.35250  0.96520  0.79200  Biso   1.000  N
  N38      1.0000 0.65970  0.11410  0.83840  Biso   1.000  N
  N39      1.0000 0.66870  0.17310  0.86170  Biso   1.000  N
  N40      1.0000 0.93540  0.24920  0.54620  Biso   1.000  N
  N41      1.0000 0.52880  0.44180  0.61741  Biso   1.000  N
  C160     1.0000 0.67220  0.46260  0.61963  Biso   1.000  C
  H121     1.0000 0.69380  0.49180  0.62700  Biso   1.000  H
  C161     1.0000 0.77750  0.43220  0.60880  Biso   1.000  C
  H122     1.0000 0.88200  0.43750  0.60770  Biso   1.000  H
  N42      1.0000 0.69920  0.39260  0.59989  Biso   1.000  N
  C162     1.0000 0.54550  0.39860  0.60521  Biso   1.000  C
  H123     1.0000 0.46750  0.37730  0.60130  Biso   1.000  H
  Zn5      1.0000 0.15630  0.96895  0.62988  Biso   1.000  Zn
  Zn6      1.0000 0.88020  0.26979  0.37964  Biso   1.000  Zn
  C163     1.0000 0.32400  0.53160  0.18100  Biso   1.000  C
  H124     1.0000 0.25220  0.55610  0.18090  Biso   1.000  H
  N43      1.0000 0.38270  0.50920  0.20137  Biso   1.000  N
  C164     1.0000 0.48640  0.47450  0.19390  Biso   1.000  C
  H125     1.0000 0.54240  0.45420  0.20380  Biso   1.000  H
  C165     1.0000 0.49170  0.47550  0.16890  Biso   1.000  C
  H126     1.0000 0.55180  0.45600  0.15920  Biso   1.000  H
  N44      1.0000 0.39130  0.51070  0.16095  Biso   1.000  N
  C166     1.0000 0.22260  0.56570  0.25340  Biso   1.000  C
  H127     1.0000 0.19020  0.59600  0.25820  Biso   1.000  H
  C167     1.0000 0.27560  0.55870  0.23065  Biso   1.000  C
  H128     1.0000 0.27940  0.58420  0.21990  Biso   1.000  H
  C168     1.0000 0.32290  0.51430  0.22364  Biso   1.000  C
  C169     1.0000 0.31730  0.47690  0.23940  Biso   1.000  C
  H129     1.0000 0.34960  0.44650  0.23460  Biso   1.000  H
  C170     1.0000 0.26430  0.48390  0.26210  Biso   1.000  C
  H130     1.0000 0.26040  0.45830  0.27290  Biso   1.000  H
  C171     1.0000 0.21690  0.52830  0.26911  Biso   1.000  C
  C172     1.0000 0.19770  0.73240  0.35090  Biso   1.000  C
  H131     1.0000 0.09520  0.73670  0.34720  Biso   1.000  H
  C173     1.0000 0.28820  0.76400  0.36390  Biso   1.000  C
  H132     1.0000 0.25700  0.79320  0.37040  Biso   1.000  H
  N45      1.0000 0.43370  0.74450  0.36548  Biso   1.000  N
  C174     1.0000 0.43310  0.70080  0.35340  Biso   1.000  C
  H133     1.0000 0.51570  0.68010  0.35170  Biso   1.000  H
  N46      1.0000 0.28720  0.69330  0.34439  Biso   1.000  N
  C175     1.0000 0.11620  0.63710  0.33333  Biso   1.000  C
  H134     1.0000 0.04440  0.65110  0.34350  Biso   1.000  H
  C176     1.0000 0.25920  0.65590  0.33190  Biso   1.000  C
  C177     1.0000 0.36420  0.63550  0.31710  Biso   1.000  C
  H135     1.0000 0.46190  0.64830  0.31610  Biso   1.000  H
  C178     1.0000 0.32620  0.59640  0.30365  Biso   1.000  C
  H136     1.0000 0.39800  0.58250  0.29350  Biso   1.000  H
  C179     1.0000 0.18320  0.57770  0.30508  Biso   1.000  C
  C180     1.0000 0.07820  0.59800  0.31990  Biso   1.000  C
  H137     1.0000 0.98040  0.58530  0.32090  Biso   1.000  H
  C181     1.0000 0.90400  0.36530  0.35390  Biso   1.000  C
  H138     1.0000 0.99700  0.37510  0.36010  Biso   1.000  H
  C182     1.0000 0.69300  0.33110  0.35050  Biso   1.000  C
  H139     1.0000 0.60700  0.31270  0.35340  Biso   1.000  H
  C183     1.0000 0.70700  0.36970  0.33310  Biso   1.000  C
  H140     1.0000 0.63890  0.37990  0.32140  Biso   1.000  H
  C184     1.0000 0.90980  0.42990  0.30177  Biso   1.000  C
  H141     1.0000 0.85190  0.40840  0.29280  Biso   1.000  H
  C185     1.0000 0.98000  0.46750  0.29071  Biso   1.000  C
  H142     1.0000 0.97000  0.47170  0.27420  Biso   1.000  H
  C186     1.0000 0.06480  0.49900  0.30381  Biso   1.000  C
  C187     1.0000 0.07950  0.49290  0.32798  Biso   1.000  C
  H143     1.0000 0.13740  0.51440  0.33690  Biso   1.000  H
  C188     1.0000 0.00930  0.45530  0.33904  Biso   1.000  C
  H144     1.0000 0.01940  0.45110  0.35560  Biso   1.000  H
  C189     1.0000 0.92450  0.42380  0.32594  Biso   1.000  C
  N47      1.0000 0.28740  0.47890  0.11077  Biso   1.000  N
  C190     1.0000 0.38420  0.44150  0.10440  Biso   1.000  C
  H145     1.0000 0.48500  0.43790  0.10930  Biso   1.000  H
  C191     1.0000 0.30390  0.41030  0.08955  Biso   1.000  C
  N48      1.0000 0.15750  0.42850  0.08667  Biso   1.000  N
  C192     1.0000 0.14730  0.47090  0.09978  Biso   1.000  C
  H146     1.0000 0.06170  0.49050  0.10100  Biso   1.000  H
  C193     1.0000 0.47650  0.34480  0.09017  Biso   1.000  C
  H147     1.0000 0.50880  0.35430  0.10540  Biso   1.000  H
  C194     1.0000 0.54080  0.30590  0.07941  Biso   1.000  C
  H148     1.0000 0.61690  0.28870  0.08730  Biso   1.000  H
  C195     1.0000 0.49360  0.29200  0.05716  Biso   1.000  C
  C196     1.0000 0.38220  0.31710  0.04566  Biso   1.000  C
  H149     1.0000 0.35000  0.30760  0.03040  Biso   1.000  H
  C197     1.0000 0.31800  0.35610  0.05641  Biso   1.000  C
  H150     1.0000 0.24180  0.37320  0.04860  Biso   1.000  H
  C198     1.0000 0.36510  0.36990  0.07867  Biso   1.000  C
  C199     1.0000 0.74270  0.14290  0.08800  Biso   1.000  C
  C200     1.0000 0.80550  0.15750  0.06600  Biso   1.000  C
  H151     1.0000 0.88860  0.14070  0.05990  Biso   1.000  H
  C201     1.0000 0.74960  0.19560  0.05300  Biso   1.000  C
  H152     1.0000 0.80200  0.20710  0.03970  Biso   1.000  H
  C202     1.0000 0.62330  0.21520  0.05970  Biso   1.000  C
  C203     1.0000 0.54670  0.20070  0.07970  Biso   1.000  C
  H153     1.0000 0.45650  0.21600  0.08390  Biso   1.000  H
  C204     1.0000 0.60070  0.16330  0.09390  Biso   1.000  C
  H154     1.0000 0.54460  0.15210  0.10690  Biso   1.000  H
  C205     1.0000 0.49060  0.18870  0.99065  Biso   1.000  C
  H155     1.0000 0.45750  0.15860  0.98570  Biso   1.000  H
  C206     1.0000 0.50280  0.19870  0.01454  Biso   1.000  C
  H156     1.0000 0.47790  0.17530  0.02590  Biso   1.000  H
  C207     1.0000 0.55130  0.24270  0.02185  Biso   1.000  C
  C208     1.0000 0.58770  0.27680  0.00529  Biso   1.000  C
  H157     1.0000 0.62090  0.30690  0.01030  Biso   1.000  H
  C209     1.0000 0.57560  0.26690  0.98141  Biso   1.000  C
  H158     1.0000 0.60050  0.29020  0.97010  Biso   1.000  H
  C210     1.0000 0.52710  0.22280  0.97409  Biso   1.000  C
  C211     1.0000 0.58440  0.23710  0.93230  Biso   1.000  C
  H159     1.0000 0.65080  0.26290  0.93410  Biso   1.000  H
  N49      1.0000 0.49980  0.21570  0.95054  Biso   1.000  N
  C212     1.0000 0.41530  0.17850  0.94047  Biso   1.000  C
  H160     1.0000 0.34890  0.15830  0.94870  Biso   1.000  H
  C213     1.0000 0.44770  0.17690  0.91601  Biso   1.000  C
  H161     1.0000 0.40660  0.15550  0.90500  Biso   1.000  H
  N50      1.0000 0.55210  0.21310  0.91096  Biso   1.000  N
  Cl7      1.0000 0.15880  0.58133  0.12813  Biso   1.000  Cl
  Cl8      1.0000 0.79510  0.28641  0.87460  Biso   1.000  Cl
  N51      1.0000 0.14750  0.53480  0.29200  Biso   1.000  N
  N52      1.0000 0.84030  0.38590  0.33840  Biso   1.000  N
  N53      1.0000 0.83130  0.32690  0.36170  Biso   1.000  N
  N54      1.0000 0.56460  0.25080  0.04620  Biso   1.000  N
  N55      1.0000 0.97120  0.05820  0.11741  Biso   1.000  N
  C214     1.0000 0.82780  0.03740  0.11963  Biso   1.000  C
  H162     1.0000 0.80620  0.00820  0.12700  Biso   1.000  H
  C215     1.0000 0.72250  0.06780  0.10880  Biso   1.000  C
  H163     1.0000 0.61800  0.06250  0.10770  Biso   1.000  H
  N56      1.0000 0.80080  0.10740  0.09989  Biso   1.000  N
  C216     1.0000 0.95450  0.10140  0.10521  Biso   1.000  C
  H164     1.0000 0.03250  0.12270  0.10130  Biso   1.000  H
  Zn7      1.0000 0.34370  0.53105  0.12988  Biso   1.000  Zn
  Zn8      1.0000 0.61980  0.23021  0.87964  Biso   1.000  Zn
  C217     1.0000 0.82400  0.03160  0.31900  Biso   1.000  C
  H165     1.0000 0.75220  0.05610  0.31910  Biso   1.000  H
  N57      1.0000 0.88270  0.00920  0.29863  Biso   1.000  N
  C218     1.0000 0.98640  0.97450  0.30610  Biso   1.000  C
  H166     1.0000 0.04240  0.95420  0.29620  Biso   1.000  H
  C219     1.0000 0.99170  0.97550  0.33110  Biso   1.000  C
  H167     1.0000 0.05180  0.95600  0.34080  Biso   1.000  H
  N58      1.0000 0.89130  0.01070  0.33905  Biso   1.000  N
  C220     1.0000 0.72260  0.06570  0.24660  Biso   1.000  C
  H168     1.0000 0.69020  0.09600  0.24180  Biso   1.000  H
  C221     1.0000 0.77560  0.05870  0.26935  Biso   1.000  C
  H169     1.0000 0.77940  0.08420  0.28010  Biso   1.000  H
  C222     1.0000 0.82290  0.01430  0.27636  Biso   1.000  C
  C223     1.0000 0.81730  0.97690  0.26060  Biso   1.000  C
  H170     1.0000 0.84960  0.94650  0.26540  Biso   1.000  H
  C224     1.0000 0.76430  0.98390  0.23790  Biso   1.000  C
  H171     1.0000 0.76040  0.95830  0.22710  Biso   1.000  H
  C225     1.0000 0.71690  0.02830  0.23089  Biso   1.000  C
  C226     1.0000 0.69770  0.23240  0.14910  Biso   1.000  C
  H172     1.0000 0.59520  0.23670  0.15280  Biso   1.000  H
  C227     1.0000 0.78820  0.26400  0.13610  Biso   1.000  C
  H173     1.0000 0.75700  0.29320  0.12960  Biso   1.000  H
  N59      1.0000 0.93370  0.24450  0.13452  Biso   1.000  N
  C228     1.0000 0.93310  0.20080  0.14660  Biso   1.000  C
  H174     1.0000 0.01570  0.18010  0.14830  Biso   1.000  H
  N60      1.0000 0.78720  0.19330  0.15561  Biso   1.000  N
  C229     1.0000 0.61620  0.13710  0.16667  Biso   1.000  C
  H175     1.0000 0.54440  0.15110  0.15650  Biso   1.000  H
  C230     1.0000 0.75920  0.15590  0.16810  Biso   1.000  C
  C231     1.0000 0.86420  0.13550  0.18290  Biso   1.000  C
  H176     1.0000 0.96190  0.14830  0.18390  Biso   1.000  H
  C232     1.0000 0.82620  0.09640  0.19635  Biso   1.000  C
  H177     1.0000 0.89800  0.08250  0.20650  Biso   1.000  H
  C233     1.0000 0.68320  0.07770  0.19492  Biso   1.000  C
  C234     1.0000 0.57820  0.09800  0.18010  Biso   1.000  C
  H178     1.0000 0.48040  0.08530  0.17910  Biso   1.000  H
  C235     1.0000 0.40400  0.86530  0.14610  Biso   1.000  C
  H179     1.0000 0.49700  0.87510  0.13990  Biso   1.000  H
  C236     1.0000 0.19300  0.83110  0.14950  Biso   1.000  C
  H180     1.0000 0.10700  0.81270  0.14660  Biso   1.000  H
  C237     1.0000 0.20700  0.86970  0.16690  Biso   1.000  C
  H181     1.0000 0.13890  0.87990  0.17860  Biso   1.000  H
  C238     1.0000 0.40980  0.92990  0.19823  Biso   1.000  C
  H182     1.0000 0.35190  0.90840  0.20720  Biso   1.000  H
  C239     1.0000 0.48000  0.96750  0.20929  Biso   1.000  C
  H183     1.0000 0.47000  0.97170  0.22580  Biso   1.000  H
  C240     1.0000 0.56480  0.99900  0.19619  Biso   1.000  C
  C241     1.0000 0.57950  0.99290  0.17202  Biso   1.000  C
  H184     1.0000 0.63740  0.01440  0.16310  Biso   1.000  H
  C242     1.0000 0.50930  0.95530  0.16096  Biso   1.000  C
  H185     1.0000 0.51940  0.95110  0.14440  Biso   1.000  H
  C243     1.0000 0.42450  0.92380  0.17406  Biso   1.000  C
  N61      1.0000 0.78740  0.97890  0.38923  Biso   1.000  N
  C244     1.0000 0.88420  0.94150  0.39560  Biso   1.000  C
  H186     1.0000 0.98500  0.93790  0.39070  Biso   1.000  H
  C245     1.0000 0.80390  0.91030  0.41045  Biso   1.000  C
  N62      1.0000 0.65750  0.92850  0.41333  Biso   1.000  N
  C246     1.0000 0.64730  0.97090  0.40022  Biso   1.000  C
  H187     1.0000 0.56170  0.99050  0.39900  Biso   1.000  H
  C247     1.0000 0.97650  0.84480  0.40983  Biso   1.000  C
  H188     1.0000 0.00880  0.85430  0.39460  Biso   1.000  H
  C248     1.0000 0.04080  0.80590  0.42059  Biso   1.000  C
  H189     1.0000 0.11690  0.78870  0.41270  Biso   1.000  H
  C249     1.0000 0.99360  0.79200  0.44284  Biso   1.000  C
  C250     1.0000 0.88220  0.81710  0.45434  Biso   1.000  C
  H190     1.0000 0.85000  0.80760  0.46960  Biso   1.000  H
  C251     1.0000 0.81800  0.85610  0.44359  Biso   1.000  C
  H191     1.0000 0.74180  0.87320  0.45140  Biso   1.000  H
  C252     1.0000 0.86510  0.86990  0.42133  Biso   1.000  C
  C253     1.0000 0.24270  0.64290  0.41200  Biso   1.000  C
  C254     1.0000 0.30550  0.65750  0.43400  Biso   1.000  C
  H192     1.0000 0.38860  0.64070  0.44010  Biso   1.000  H
  C255     1.0000 0.24960  0.69560  0.44700  Biso   1.000  C
  H193     1.0000 0.30200  0.70710  0.46030  Biso   1.000  H
  C256     1.0000 0.12330  0.71520  0.44030  Biso   1.000  C
  C257     1.0000 0.04670  0.70070  0.42030  Biso   1.000  C
  H194     1.0000 0.95650  0.71600  0.41610  Biso   1.000  H
  C258     1.0000 0.10070  0.66330  0.40610  Biso   1.000  C
  H195     1.0000 0.04460  0.65210  0.39310  Biso   1.000  H
  C259     1.0000 0.99060  0.68870  0.50935  Biso   1.000  C
  H196     1.0000 0.95750  0.65860  0.51430  Biso   1.000  H
  C260     1.0000 0.00280  0.69870  0.48546  Biso   1.000  C
  H197     1.0000 0.97790  0.67530  0.47410  Biso   1.000  H
  C261     1.0000 0.05130  0.74270  0.47815  Biso   1.000  C
  C262     1.0000 0.08770  0.77680  0.49471  Biso   1.000  C
  H198     1.0000 0.12090  0.80690  0.48970  Biso   1.000  H
  C263     1.0000 0.07560  0.76690  0.51859  Biso   1.000  C
  H199     1.0000 0.10050  0.79020  0.52990  Biso   1.000  H
  C264     1.0000 0.02710  0.72280  0.52591  Biso   1.000  C
  C265     1.0000 0.08440  0.73710  0.56770  Biso   1.000  C
  H200     1.0000 0.15080  0.76290  0.56590  Biso   1.000  H
  N63      1.0000 0.99980  0.71570  0.54946  Biso   1.000  N
  C266     1.0000 0.91530  0.67850  0.55953  Biso   1.000  C
  H201     1.0000 0.84890  0.65830  0.55130  Biso   1.000  H
  C267     1.0000 0.94770  0.67690  0.58399  Biso   1.000  C
  H202     1.0000 0.90660  0.65550  0.59500  Biso   1.000  H
  N64      1.0000 0.05210  0.71310  0.58904  Biso   1.000  N
  Cl9      1.0000 0.65880  0.08133  0.37187  Biso   1.000  Cl
  Cl10     1.0000 0.29510  0.78641  0.62540  Biso   1.000  Cl
  N65      1.0000 0.64750  0.03480  0.20800  Biso   1.000  N
  N66      1.0000 0.34030  0.88590  0.16160  Biso   1.000  N
  N67      1.0000 0.33130  0.82690  0.13830  Biso   1.000  N
  N68      1.0000 0.06460  0.75080  0.45380  Biso   1.000  N
  N69      1.0000 0.47120  0.55820  0.38259  Biso   1.000  N
  C268     1.0000 0.32780  0.53740  0.38037  Biso   1.000  C
  H203     1.0000 0.30620  0.50820  0.37300  Biso   1.000  H
  C269     1.0000 0.22250  0.56780  0.39120  Biso   1.000  C
  H204     1.0000 0.11800  0.56250  0.39230  Biso   1.000  H
  N70      1.0000 0.30080  0.60740  0.40011  Biso   1.000  N
  C270     1.0000 0.45450  0.60140  0.39479  Biso   1.000  C
  H205     1.0000 0.53250  0.62270  0.39870  Biso   1.000  H
  Zn9      1.0000 0.84370  0.03105  0.37012  Biso   1.000  Zn
  Zn10     1.0000 0.11980  0.73021  0.62036  Biso   1.000  Zn
  C271     1.0000 0.67600  0.46840  0.81900  Biso   1.000  C
  H206     1.0000 0.74780  0.44390  0.81910  Biso   1.000  H
  N71      1.0000 0.61730  0.49080  0.79863  Biso   1.000  N
  C272     1.0000 0.51360  0.52550  0.80610  Biso   1.000  C
  H207     1.0000 0.45760  0.54580  0.79620  Biso   1.000  H
  C273     1.0000 0.50830  0.52450  0.83110  Biso   1.000  C
  H208     1.0000 0.44820  0.54400  0.84080  Biso   1.000  H
  N72      1.0000 0.60870  0.48930  0.83905  Biso   1.000  N
  C274     1.0000 0.77740  0.43430  0.74660  Biso   1.000  C
  H209     1.0000 0.80980  0.40400  0.74180  Biso   1.000  H
  C275     1.0000 0.72440  0.44130  0.76935  Biso   1.000  C
  H210     1.0000 0.72060  0.41580  0.78010  Biso   1.000  H
  C276     1.0000 0.67710  0.48570  0.77636  Biso   1.000  C
  C277     1.0000 0.68270  0.52310  0.76060  Biso   1.000  C
  H211     1.0000 0.65040  0.55350  0.76540  Biso   1.000  H
  C278     1.0000 0.73570  0.51610  0.73790  Biso   1.000  C
  H212     1.0000 0.73960  0.54170  0.72710  Biso   1.000  H
  C279     1.0000 0.78310  0.47170  0.73089  Biso   1.000  C
  C280     1.0000 0.80230  0.26760  0.64910  Biso   1.000  C
  H213     1.0000 0.90480  0.26330  0.65280  Biso   1.000  H
  C281     1.0000 0.71180  0.23600  0.63610  Biso   1.000  C
  H214     1.0000 0.74300  0.20680  0.62960  Biso   1.000  H
  N73      1.0000 0.56630  0.25550  0.63452  Biso   1.000  N
  C282     1.0000 0.56690  0.29920  0.64660  Biso   1.000  C
  H215     1.0000 0.48430  0.31990  0.64830  Biso   1.000  H
  N74      1.0000 0.71280  0.30670  0.65561  Biso   1.000  N
  C283     1.0000 0.88380  0.36290  0.66667  Biso   1.000  C
  H216     1.0000 0.95560  0.34890  0.65650  Biso   1.000  H
  C284     1.0000 0.74080  0.34410  0.66810  Biso   1.000  C
  C285     1.0000 0.63580  0.36450  0.68290  Biso   1.000  C
  H217     1.0000 0.53810  0.35170  0.68390  Biso   1.000  H
  C286     1.0000 0.67380  0.40360  0.69635  Biso   1.000  C
  H218     1.0000 0.60200  0.41750  0.70650  Biso   1.000  H
  C287     1.0000 0.81680  0.42230  0.69492  Biso   1.000  C
  C288     1.0000 0.92180  0.40200  0.68010  Biso   1.000  C
  H219     1.0000 0.01960  0.41470  0.67910  Biso   1.000  H
  C289     1.0000 0.09600  0.63470  0.64610  Biso   1.000  C
  H220     1.0000 0.00300  0.62490  0.63990  Biso   1.000  H
  C290     1.0000 0.30700  0.66890  0.64950  Biso   1.000  C
  H221     1.0000 0.39300  0.68730  0.64660  Biso   1.000  H
  C291     1.0000 0.29300  0.63030  0.66690  Biso   1.000  C
  H222     1.0000 0.36110  0.62010  0.67860  Biso   1.000  H
  C292     1.0000 0.09020  0.57010  0.69823  Biso   1.000  C
  H223     1.0000 0.14810  0.59160  0.70720  Biso   1.000  H
  C293     1.0000 0.02000  0.53250  0.70929  Biso   1.000  C
  H224     1.0000 0.03000  0.52830  0.72580  Biso   1.000  H
  C294     1.0000 0.93520  0.50100  0.69619  Biso   1.000  C
  C295     1.0000 0.92050  0.50710  0.67202  Biso   1.000  C
  H225     1.0000 0.86260  0.48560  0.66310  Biso   1.000  H
  C296     1.0000 0.99070  0.54470  0.66096  Biso   1.000  C
  H226     1.0000 0.98060  0.54890  0.64440  Biso   1.000  H
  C297     1.0000 0.07550  0.57620  0.67406  Biso   1.000  C
  N75      1.0000 0.71260  0.52110  0.88923  Biso   1.000  N
  C298     1.0000 0.61580  0.55850  0.89560  Biso   1.000  C
  H227     1.0000 0.51500  0.56210  0.89070  Biso   1.000  H
  C299     1.0000 0.69610  0.58970  0.91045  Biso   1.000  C
  N76      1.0000 0.84250  0.57150  0.91333  Biso   1.000  N
  C300     1.0000 0.85270  0.52910  0.90022  Biso   1.000  C
  H228     1.0000 0.93830  0.50950  0.89900  Biso   1.000  H
  C301     1.0000 0.52350  0.65520  0.90983  Biso   1.000  C
  H229     1.0000 0.49120  0.64570  0.89460  Biso   1.000  H
  C302     1.0000 0.45920  0.69410  0.92059  Biso   1.000  C
  H230     1.0000 0.38310  0.71130  0.91270  Biso   1.000  H
  C303     1.0000 0.50640  0.70800  0.94284  Biso   1.000  C
  C304     1.0000 0.61780  0.68290  0.95434  Biso   1.000  C
  H231     1.0000 0.65000  0.69240  0.96960  Biso   1.000  H
  C305     1.0000 0.68200  0.64390  0.94359  Biso   1.000  C
  H232     1.0000 0.75820  0.62680  0.95140  Biso   1.000  H
  C306     1.0000 0.63490  0.63010  0.92133  Biso   1.000  C
  C307     1.0000 0.25730  0.85710  0.91200  Biso   1.000  C
  C308     1.0000 0.19450  0.84250  0.93400  Biso   1.000  C
  H233     1.0000 0.11140  0.85930  0.94010  Biso   1.000  H
  C309     1.0000 0.25040  0.80440  0.94700  Biso   1.000  C
  H234     1.0000 0.19800  0.79290  0.96030  Biso   1.000  H
  C310     1.0000 0.37670  0.78480  0.94030  Biso   1.000  C
  C311     1.0000 0.45330  0.79930  0.92030  Biso   1.000  C
  H235     1.0000 0.54350  0.78400  0.91610  Biso   1.000  H
  C312     1.0000 0.39930  0.83670  0.90610  Biso   1.000  C
  H236     1.0000 0.45540  0.84790  0.89310  Biso   1.000  H
  C313     1.0000 0.50940  0.81130  0.00935  Biso   1.000  C
  H237     1.0000 0.54250  0.84140  0.01430  Biso   1.000  H
  C314     1.0000 0.49720  0.80130  0.98546  Biso   1.000  C
  H238     1.0000 0.52210  0.82470  0.97410  Biso   1.000  H
  C315     1.0000 0.44870  0.75730  0.97815  Biso   1.000  C
  C316     1.0000 0.41230  0.72320  0.99471  Biso   1.000  C
  H239     1.0000 0.37910  0.69310  0.98970  Biso   1.000  H
  C317     1.0000 0.42440  0.73310  0.01859  Biso   1.000  C
  H240     1.0000 0.39950  0.70980  0.02990  Biso   1.000  H
  C318     1.0000 0.47290  0.77720  0.02591  Biso   1.000  C
  C319     1.0000 0.41560  0.76290  0.06770  Biso   1.000  C
  H241     1.0000 0.34920  0.73710  0.06590  Biso   1.000  H
  N77      1.0000 0.50020  0.78430  0.04946  Biso   1.000  N
  C320     1.0000 0.58470  0.82150  0.05953  Biso   1.000  C
  H242     1.0000 0.65110  0.84170  0.05130  Biso   1.000  H
  C321     1.0000 0.55230  0.82310  0.08399  Biso   1.000  C
  H243     1.0000 0.59340  0.84450  0.09500  Biso   1.000  H
  N78      1.0000 0.44790  0.78690  0.08904  Biso   1.000  N
  Cl11     1.0000 0.84120  0.41867  0.87187  Biso   1.000  Cl
  Cl12     1.0000 0.20490  0.71359  0.12540  Biso   1.000  Cl
  N79      1.0000 0.85250  0.46520  0.70800  Biso   1.000  N
  N80      1.0000 0.15970  0.61410  0.66160  Biso   1.000  N
  N81      1.0000 0.16870  0.67310  0.63830  Biso   1.000  N
  N82      1.0000 0.43540  0.74920  0.95380  Biso   1.000  N
  N83      1.0000 0.02880  0.94180  0.88259  Biso   1.000  N
  C322     1.0000 0.17220  0.96260  0.88037  Biso   1.000  C
  H244     1.0000 0.19380  0.99180  0.87300  Biso   1.000  H
  C323     1.0000 0.27750  0.93220  0.89120  Biso   1.000  C
  H245     1.0000 0.38200  0.93750  0.89230  Biso   1.000  H
  N84      1.0000 0.19920  0.89260  0.90011  Biso   1.000  N
  C324     1.0000 0.04550  0.89860  0.89479  Biso   1.000  C
  H246     1.0000 0.96750  0.87730  0.89870  Biso   1.000  H
  Zn11     1.0000 0.65630  0.46895  0.87012  Biso   1.000  Zn
  Zn12     1.0000 0.38020  0.76979  0.12036  Biso   1.000  Zn
  C325     1.0000 0.82400  0.96840  0.81900  Biso   1.000  C
  H247     1.0000 0.75220  0.94390  0.81910  Biso   1.000  H
  N85      1.0000 0.88270  0.99080  0.79863  Biso   1.000  N
  C326     1.0000 0.98640  0.02550  0.80610  Biso   1.000  C
  H248     1.0000 0.04240  0.04580  0.79620  Biso   1.000  H
  C327     1.0000 0.99170  0.02450  0.83110  Biso   1.000  C
  H249     1.0000 0.05180  0.04400  0.84080  Biso   1.000  H
  N86      1.0000 0.89130  0.98930  0.83905  Biso   1.000  N
  C328     1.0000 0.72260  0.93430  0.74660  Biso   1.000  C
  H250     1.0000 0.69020  0.90400  0.74180  Biso   1.000  H
  C329     1.0000 0.77560  0.94130  0.76935  Biso   1.000  C
  H251     1.0000 0.77940  0.91580  0.78010  Biso   1.000  H
  C330     1.0000 0.82290  0.98570  0.77636  Biso   1.000  C
  C331     1.0000 0.81730  0.02310  0.76060  Biso   1.000  C
  H252     1.0000 0.84960  0.05350  0.76540  Biso   1.000  H
  C332     1.0000 0.76430  0.01610  0.73790  Biso   1.000  C
  H253     1.0000 0.76040  0.04170  0.72710  Biso   1.000  H
  C333     1.0000 0.71690  0.97170  0.73089  Biso   1.000  C
  C334     1.0000 0.69770  0.76760  0.64910  Biso   1.000  C
  H254     1.0000 0.59520  0.76330  0.65280  Biso   1.000  H
  C335     1.0000 0.78820  0.73600  0.63610  Biso   1.000  C
  H255     1.0000 0.75700  0.70680  0.62960  Biso   1.000  H
  N87      1.0000 0.93370  0.75550  0.63452  Biso   1.000  N
  C336     1.0000 0.93310  0.79920  0.64660  Biso   1.000  C
  H256     1.0000 0.01570  0.81990  0.64830  Biso   1.000  H
  N88      1.0000 0.78720  0.80670  0.65561  Biso   1.000  N
  C337     1.0000 0.61620  0.86290  0.66667  Biso   1.000  C
  H257     1.0000 0.54440  0.84890  0.65650  Biso   1.000  H
  C338     1.0000 0.75920  0.84410  0.66810  Biso   1.000  C
  C339     1.0000 0.86420  0.86450  0.68290  Biso   1.000  C
  H258     1.0000 0.96190  0.85170  0.68390  Biso   1.000  H
  C340     1.0000 0.82620  0.90360  0.69635  Biso   1.000  C
  H259     1.0000 0.89800  0.91750  0.70650  Biso   1.000  H
  C341     1.0000 0.68320  0.92230  0.69492  Biso   1.000  C
  C342     1.0000 0.57820  0.90200  0.68010  Biso   1.000  C
  H260     1.0000 0.48040  0.91470  0.67910  Biso   1.000  H
  C343     1.0000 0.40400  0.13470  0.64610  Biso   1.000  C
  H261     1.0000 0.49700  0.12490  0.63990  Biso   1.000  H
  C344     1.0000 0.19300  0.16890  0.64950  Biso   1.000  C
  H262     1.0000 0.10700  0.18730  0.64660  Biso   1.000  H
  C345     1.0000 0.20700  0.13030  0.66690  Biso   1.000  C
  H263     1.0000 0.13890  0.12010  0.67860  Biso   1.000  H
  C346     1.0000 0.40980  0.07010  0.69823  Biso   1.000  C
  H264     1.0000 0.35190  0.09160  0.70720  Biso   1.000  H
  C347     1.0000 0.48000  0.03250  0.70929  Biso   1.000  C
  H265     1.0000 0.47000  0.02830  0.72580  Biso   1.000  H
  C348     1.0000 0.56480  0.00100  0.69619  Biso   1.000  C
  C349     1.0000 0.57950  0.00710  0.67202  Biso   1.000  C
  H266     1.0000 0.63740  0.98560  0.66310  Biso   1.000  H
  C350     1.0000 0.50930  0.04470  0.66096  Biso   1.000  C
  H267     1.0000 0.51940  0.04890  0.64440  Biso   1.000  H
  C351     1.0000 0.42450  0.07620  0.67406  Biso   1.000  C
  N89      1.0000 0.78740  0.02110  0.88923  Biso   1.000  N
  C352     1.0000 0.88420  0.05850  0.89560  Biso   1.000  C
  H268     1.0000 0.98500  0.06210  0.89070  Biso   1.000  H
  C353     1.0000 0.80390  0.08970  0.91045  Biso   1.000  C
  N90      1.0000 0.65750  0.07150  0.91333  Biso   1.000  N
  C354     1.0000 0.64730  0.02910  0.90022  Biso   1.000  C
  H269     1.0000 0.56170  0.00950  0.89900  Biso   1.000  H
  C355     1.0000 0.97650  0.15520  0.90983  Biso   1.000  C
  H270     1.0000 0.00880  0.14570  0.89460  Biso   1.000  H
  C356     1.0000 0.04080  0.19410  0.92059  Biso   1.000  C
  H271     1.0000 0.11690  0.21130  0.91270  Biso   1.000  H
  C357     1.0000 0.99360  0.20800  0.94284  Biso   1.000  C
  C358     1.0000 0.88220  0.18290  0.95434  Biso   1.000  C
  H272     1.0000 0.85000  0.19240  0.96960  Biso   1.000  H
  C359     1.0000 0.81800  0.14390  0.94359  Biso   1.000  C
  H273     1.0000 0.74180  0.12680  0.95140  Biso   1.000  H
  C360     1.0000 0.86510  0.13010  0.92133  Biso   1.000  C
  C361     1.0000 0.24270  0.35710  0.91200  Biso   1.000  C
  C362     1.0000 0.30550  0.34250  0.93400  Biso   1.000  C
  H274     1.0000 0.38860  0.35930  0.94010  Biso   1.000  H
  C363     1.0000 0.24960  0.30440  0.94700  Biso   1.000  C
  H275     1.0000 0.30200  0.29290  0.96030  Biso   1.000  H
  C364     1.0000 0.12330  0.28480  0.94030  Biso   1.000  C
  C365     1.0000 0.04670  0.29930  0.92030  Biso   1.000  C
  H276     1.0000 0.95650  0.28400  0.91610  Biso   1.000  H
  C366     1.0000 0.10070  0.33670  0.90610  Biso   1.000  C
  H277     1.0000 0.04460  0.34790  0.89310  Biso   1.000  H
  C367     1.0000 0.99060  0.31130  0.00935  Biso   1.000  C
  H278     1.0000 0.95750  0.34140  0.01430  Biso   1.000  H
  C368     1.0000 0.00280  0.30130  0.98546  Biso   1.000  C
  H279     1.0000 0.97790  0.32470  0.97410  Biso   1.000  H
  C369     1.0000 0.05130  0.25730  0.97815  Biso   1.000  C
  C370     1.0000 0.08770  0.22320  0.99471  Biso   1.000  C
  H280     1.0000 0.12090  0.19310  0.98970  Biso   1.000  H
  C371     1.0000 0.07560  0.23310  0.01859  Biso   1.000  C
  H281     1.0000 0.10050  0.20980  0.02990  Biso   1.000  H
  C372     1.0000 0.02710  0.27720  0.02591  Biso   1.000  C
  C373     1.0000 0.08440  0.26290  0.06770  Biso   1.000  C
  H282     1.0000 0.15080  0.23710  0.06590  Biso   1.000  H
  N91      1.0000 0.99980  0.28430  0.04946  Biso   1.000  N
  C374     1.0000 0.91530  0.32150  0.05953  Biso   1.000  C
  H283     1.0000 0.84890  0.34170  0.05130  Biso   1.000  H
  C375     1.0000 0.94770  0.32310  0.08399  Biso   1.000  C
  H284     1.0000 0.90660  0.34450  0.09500  Biso   1.000  H
  N92      1.0000 0.05210  0.28690  0.08904  Biso   1.000  N
  Cl13     1.0000 0.65880  0.91867  0.87187  Biso   1.000  Cl
  Cl14     1.0000 0.29510  0.21359  0.12540  Biso   1.000  Cl
  N93      1.0000 0.64750  0.96520  0.70800  Biso   1.000  N
  N94      1.0000 0.34030  0.11410  0.66160  Biso   1.000  N
  N95      1.0000 0.33130  0.17310  0.63830  Biso   1.000  N
  N96      1.0000 0.06460  0.24920  0.95380  Biso   1.000  N
  N97      1.0000 0.47120  0.44180  0.88259  Biso   1.000  N
  C376     1.0000 0.32780  0.46260  0.88037  Biso   1.000  C
  H285     1.0000 0.30620  0.49180  0.87300  Biso   1.000  H
  C377     1.0000 0.22250  0.43220  0.89120  Biso   1.000  C
  H286     1.0000 0.11800  0.43750  0.89230  Biso   1.000  H
  N98      1.0000 0.30080  0.39260  0.90011  Biso   1.000  N
  C378     1.0000 0.45450  0.39860  0.89479  Biso   1.000  C
  H287     1.0000 0.53250  0.37730  0.89870  Biso   1.000  H
  Zn13     1.0000 0.84370  0.96895  0.87012  Biso   1.000  Zn
  Zn14     1.0000 0.11980  0.26979  0.12036  Biso   1.000  Zn
  C379     1.0000 0.67600  0.53160  0.31900  Biso   1.000  C
  H288     1.0000 0.74780  0.55610  0.31910  Biso   1.000  H
  N99      1.0000 0.61730  0.50920  0.29863  Biso   1.000  N
  C380     1.0000 0.51360  0.47450  0.30610  Biso   1.000  C
  H289     1.0000 0.45760  0.45420  0.29620  Biso   1.000  H
  C381     1.0000 0.50830  0.47550  0.33110  Biso   1.000  C
  H290     1.0000 0.44820  0.45600  0.34080  Biso   1.000  H
  N100     1.0000 0.60870  0.51070  0.33905  Biso   1.000  N
  C382     1.0000 0.77740  0.56570  0.24660  Biso   1.000  C
  H291     1.0000 0.80980  0.59600  0.24180  Biso   1.000  H
  C383     1.0000 0.72440  0.55870  0.26935  Biso   1.000  C
  H292     1.0000 0.72060  0.58420  0.28010  Biso   1.000  H
  C384     1.0000 0.67710  0.51430  0.27636  Biso   1.000  C
  C385     1.0000 0.68270  0.47690  0.26060  Biso   1.000  C
  H293     1.0000 0.65040  0.44650  0.26540  Biso   1.000  H
  C386     1.0000 0.73570  0.48390  0.23790  Biso   1.000  C
  H294     1.0000 0.73960  0.45830  0.22710  Biso   1.000  H
  C387     1.0000 0.78310  0.52830  0.23089  Biso   1.000  C
  C388     1.0000 0.80230  0.73240  0.14910  Biso   1.000  C
  H295     1.0000 0.90480  0.73670  0.15280  Biso   1.000  H
  C389     1.0000 0.71180  0.76400  0.13610  Biso   1.000  C
  H296     1.0000 0.74300  0.79320  0.12960  Biso   1.000  H
  N101     1.0000 0.56630  0.74450  0.13452  Biso   1.000  N
  C390     1.0000 0.56690  0.70080  0.14660  Biso   1.000  C
  H297     1.0000 0.48430  0.68010  0.14830  Biso   1.000  H
  N102     1.0000 0.71280  0.69330  0.15561  Biso   1.000  N
  C391     1.0000 0.88380  0.63710  0.16667  Biso   1.000  C
  H298     1.0000 0.95560  0.65110  0.15650  Biso   1.000  H
  C392     1.0000 0.74080  0.65590  0.16810  Biso   1.000  C
  C393     1.0000 0.63580  0.63550  0.18290  Biso   1.000  C
  H299     1.0000 0.53810  0.64830  0.18390  Biso   1.000  H
  C394     1.0000 0.67380  0.59640  0.19635  Biso   1.000  C
  H300     1.0000 0.60200  0.58250  0.20650  Biso   1.000  H
  C395     1.0000 0.81680  0.57770  0.19492  Biso   1.000  C
  C396     1.0000 0.92180  0.59800  0.18010  Biso   1.000  C
  H301     1.0000 0.01960  0.58530  0.17910  Biso   1.000  H
  C397     1.0000 0.09600  0.36530  0.14610  Biso   1.000  C
  H302     1.0000 0.00300  0.37510  0.13990  Biso   1.000  H
  C398     1.0000 0.30700  0.33110  0.14950  Biso   1.000  C
  H303     1.0000 0.39300  0.31270  0.14660  Biso   1.000  H
  C399     1.0000 0.29300  0.36970  0.16690  Biso   1.000  C
  H304     1.0000 0.36110  0.37990  0.17860  Biso   1.000  H
  C400     1.0000 0.09020  0.42990  0.19823  Biso   1.000  C
  H305     1.0000 0.14810  0.40840  0.20720  Biso   1.000  H
  C401     1.0000 0.02000  0.46750  0.20929  Biso   1.000  C
  H306     1.0000 0.03000  0.47170  0.22580  Biso   1.000  H
  C402     1.0000 0.93520  0.49900  0.19619  Biso   1.000  C
  C403     1.0000 0.92050  0.49290  0.17202  Biso   1.000  C
  H307     1.0000 0.86260  0.51440  0.16310  Biso   1.000  H
  C404     1.0000 0.99070  0.45530  0.16096  Biso   1.000  C
  H308     1.0000 0.98060  0.45110  0.14440  Biso   1.000  H
  C405     1.0000 0.07550  0.42380  0.17406  Biso   1.000  C
  N103     1.0000 0.71260  0.47890  0.38923  Biso   1.000  N
  C406     1.0000 0.61580  0.44150  0.39560  Biso   1.000  C
  H309     1.0000 0.51500  0.43790  0.39070  Biso   1.000  H
  C407     1.0000 0.69610  0.41030  0.41045  Biso   1.000  C
  N104     1.0000 0.84250  0.42850  0.41333  Biso   1.000  N
  C408     1.0000 0.85270  0.47090  0.40022  Biso   1.000  C
  H310     1.0000 0.93830  0.49050  0.39900  Biso   1.000  H
  C409     1.0000 0.52350  0.34480  0.40983  Biso   1.000  C
  H311     1.0000 0.49120  0.35430  0.39460  Biso   1.000  H
  C410     1.0000 0.45920  0.30590  0.42059  Biso   1.000  C
  H312     1.0000 0.38310  0.28870  0.41270  Biso   1.000  H
  C411     1.0000 0.50640  0.29200  0.44284  Biso   1.000  C
  C412     1.0000 0.61780  0.31710  0.45434  Biso   1.000  C
  H313     1.0000 0.65000  0.30760  0.46960  Biso   1.000  H
  C413     1.0000 0.68200  0.35610  0.44359  Biso   1.000  C
  H314     1.0000 0.75820  0.37320  0.45140  Biso   1.000  H
  C414     1.0000 0.63490  0.36990  0.42133  Biso   1.000  C
  C415     1.0000 0.25730  0.14290  0.41200  Biso   1.000  C
  C416     1.0000 0.19450  0.15750  0.43400  Biso   1.000  C
  H315     1.0000 0.11140  0.14070  0.44010  Biso   1.000  H
  C417     1.0000 0.25040  0.19560  0.44700  Biso   1.000  C
  H316     1.0000 0.19800  0.20710  0.46030  Biso   1.000  H
  C418     1.0000 0.37670  0.21520  0.44030  Biso   1.000  C
  C419     1.0000 0.45330  0.20070  0.42030  Biso   1.000  C
  H317     1.0000 0.54350  0.21600  0.41610  Biso   1.000  H
  C420     1.0000 0.39930  0.16330  0.40610  Biso   1.000  C
  H318     1.0000 0.45540  0.15210  0.39310  Biso   1.000  H
  C421     1.0000 0.50940  0.18870  0.50935  Biso   1.000  C
  H319     1.0000 0.54250  0.15860  0.51430  Biso   1.000  H
  C422     1.0000 0.49720  0.19870  0.48546  Biso   1.000  C
  H320     1.0000 0.52210  0.17530  0.47410  Biso   1.000  H
  C423     1.0000 0.44870  0.24270  0.47815  Biso   1.000  C
  C424     1.0000 0.41230  0.27680  0.49471  Biso   1.000  C
  H321     1.0000 0.37910  0.30690  0.48970  Biso   1.000  H
  C425     1.0000 0.42440  0.26690  0.51859  Biso   1.000  C
  H322     1.0000 0.39950  0.29020  0.52990  Biso   1.000  H
  C426     1.0000 0.47290  0.22280  0.52591  Biso   1.000  C
  C427     1.0000 0.41560  0.23710  0.56770  Biso   1.000  C
  H323     1.0000 0.34920  0.26290  0.56590  Biso   1.000  H
  N105     1.0000 0.50020  0.21570  0.54946  Biso   1.000  N
  C428     1.0000 0.58470  0.17850  0.55953  Biso   1.000  C
  H324     1.0000 0.65110  0.15830  0.55130  Biso   1.000  H
  C429     1.0000 0.55230  0.17690  0.58399  Biso   1.000  C
  H325     1.0000 0.59340  0.15550  0.59500  Biso   1.000  H
  N106     1.0000 0.44790  0.21310  0.58904  Biso   1.000  N
  Cl15     1.0000 0.84120  0.58133  0.37187  Biso   1.000  Cl
  Cl16     1.0000 0.20490  0.28641  0.62540  Biso   1.000  Cl
  N107     1.0000 0.85250  0.53480  0.20800  Biso   1.000  N
  N108     1.0000 0.15970  0.38590  0.16160  Biso   1.000  N
  N109     1.0000 0.16870  0.32690  0.13830  Biso   1.000  N
  N110     1.0000 0.43540  0.25080  0.45380  Biso   1.000  N
  N111     1.0000 0.02880  0.05820  0.38259  Biso   1.000  N
  C430     1.0000 0.17220  0.03740  0.38037  Biso   1.000  C
  H326     1.0000 0.19380  0.00820  0.37300  Biso   1.000  H
  C431     1.0000 0.27750  0.06780  0.39120  Biso   1.000  C
  H327     1.0000 0.38200  0.06250  0.39230  Biso   1.000  H
  N112     1.0000 0.19920  0.10740  0.40011  Biso   1.000  N
  C432     1.0000 0.04550  0.10140  0.39479  Biso   1.000  C
  H328     1.0000 0.96750  0.12270  0.39870  Biso   1.000  H
  Zn15     1.0000 0.65630  0.53105  0.37012  Biso   1.000  Zn
  Zn16     1.0000 0.38020  0.23021  0.62036  Biso   1.000  Zn
