data_image0
_cell_length_a       11.1514
_cell_length_b       11.1514
_cell_length_c       102.578
_cell_angle_alpha    90
_cell_angle_beta     90
_cell_angle_gamma    120

_symmetry_space_group_name_H-M    "P 1"
_symmetry_int_tables_number       1

loop_
  _symmetry_equiv_pos_as_xyz
  'x, y, z'

loop_
  _atom_site_label
  _atom_site_occupancy
  _atom_site_fract_x
  _atom_site_fract_y
  _atom_site_fract_z
  _atom_site_thermal_displace_type
  _atom_site_B_iso_or_equiv
  _atom_site_type_symbol
  N1       1.0000 0.13890  0.20130  0.01193  Biso   1.000  N
  N2       1.0000 0.09360  0.28090  0.01832  Biso   1.000  N
  N3       1.0000 0.29520  0.32990  0.02566  Biso   1.000  N
  N4       1.0000 0.41490  0.38600  0.03306  Biso   1.000  N
  N5       1.0000 0.63120  0.50700  0.03852  Biso   1.000  N
  N6       1.0000 0.55640  0.41260  0.04843  Biso   1.000  N
  N7       1.0000 0.65440  0.49580  0.07670  Biso   1.000  N
  N8       1.0000 0.61540  0.96740  0.08784  Biso   1.000  N
  C1       1.0000 0.25840  0.23150  0.01638  Biso   1.000  C
  H1       1.0000 0.31080  0.19220  0.01370  Biso   1.000  H
  C2       1.0000 0.18990  0.35710  0.02648  Biso   1.000  C
  H2       1.0000 0.18740  0.42130  0.03210  Biso   1.000  H
  C3       1.0000 0.54260  0.48780  0.02952  Biso   1.000  C
  H3       1.0000 0.56340  0.53680  0.02170  Biso   1.000  H
  C4       1.0000 0.42890  0.34220  0.04487  Biso   1.000  C
  H4       1.0000 0.35770  0.27210  0.04970  Biso   1.000  H
  C5       1.0000 0.64600  0.60240  0.07285  Biso   1.000  C
  H5       1.0000 0.62870  0.61920  0.06440  Biso   1.000  H
  C6       1.0000 0.58320  0.84060  0.09020  Biso   1.000  C
  H6       1.0000 0.51320  0.78060  0.09580  Biso   1.000  H
  N9       1.0000 0.80557  0.53463  0.34526  Biso   1.000  N
  N10      1.0000 0.76027  0.61423  0.35165  Biso   1.000  N
  N11      1.0000 0.96187  0.66323  0.35899  Biso   1.000  N
  N12      1.0000 0.08157  0.71933  0.36639  Biso   1.000  N
  N13      1.0000 0.29787  0.84033  0.37185  Biso   1.000  N
  N14      1.0000 0.22307  0.74593  0.38176  Biso   1.000  N
  N15      1.0000 0.32107  0.82913  0.41003  Biso   1.000  N
  N16      1.0000 0.28207  0.30073  0.42117  Biso   1.000  N
  C7       1.0000 0.92507  0.56483  0.34971  Biso   1.000  C
  H7       1.0000 0.97747  0.52553  0.34703  Biso   1.000  H
  C8       1.0000 0.85657  0.69043  0.35981  Biso   1.000  C
  H8       1.0000 0.85407  0.75463  0.36543  Biso   1.000  H
  C9       1.0000 0.20927  0.82113  0.36285  Biso   1.000  C
  H9       1.0000 0.23007  0.87013  0.35503  Biso   1.000  H
  C10      1.0000 0.09557  0.67553  0.37820  Biso   1.000  C
  H10      1.0000 0.02437  0.60543  0.38303  Biso   1.000  H
  C11      1.0000 0.31267  0.93573  0.40618  Biso   1.000  C
  H11      1.0000 0.29537  0.95253  0.39773  Biso   1.000  H
  C12      1.0000 0.24987  0.17393  0.42353  Biso   1.000  C
  H12      1.0000 0.17987  0.11393  0.42913  Biso   1.000  H
  N17      1.0000 0.47223  0.86797  0.67860  Biso   1.000  N
  N18      1.0000 0.42693  0.94757  0.68499  Biso   1.000  N
  N19      1.0000 0.62853  0.99657  0.69233  Biso   1.000  N
  N20      1.0000 0.74823  0.05267  0.69973  Biso   1.000  N
  N21      1.0000 0.96453  0.17367  0.70519  Biso   1.000  N
  N22      1.0000 0.88973  0.07927  0.71510  Biso   1.000  N
  N23      1.0000 0.98773  0.16247  0.74337  Biso   1.000  N
  N24      1.0000 0.94873  0.63407  0.75451  Biso   1.000  N
  C13      1.0000 0.59173  0.89817  0.68305  Biso   1.000  C
  H13      1.0000 0.64413  0.85887  0.68037  Biso   1.000  H
  C14      1.0000 0.52323  0.02377  0.69315  Biso   1.000  C
  H14      1.0000 0.52073  0.08797  0.69877  Biso   1.000  H
  C15      1.0000 0.87593  0.15447  0.69619  Biso   1.000  C
  H15      1.0000 0.89673  0.20347  0.68837  Biso   1.000  H
  C16      1.0000 0.76223  0.00887  0.71154  Biso   1.000  C
  H16      1.0000 0.69103  0.93877  0.71637  Biso   1.000  H
  C17      1.0000 0.97933  0.26907  0.73952  Biso   1.000  C
  H17      1.0000 0.96203  0.28587  0.73107  Biso   1.000  H
  C18      1.0000 0.91653  0.50727  0.75687  Biso   1.000  C
  H18      1.0000 0.84653  0.44727  0.76247  Biso   1.000  H
  N25      1.0000 0.79870  0.93760  0.01193  Biso   1.000  N
  N26      1.0000 0.71910  0.81270  0.01832  Biso   1.000  N
  N27      1.0000 0.67010  0.96530  0.02566  Biso   1.000  N
  N28      1.0000 0.61400  0.02890  0.03306  Biso   1.000  N
  N29      1.0000 0.49300  0.12420  0.03852  Biso   1.000  N
  N30      1.0000 0.58740  0.14380  0.04843  Biso   1.000  N
  N31      1.0000 0.50420  0.15860  0.07670  Biso   1.000  N
  N32      1.0000 0.03260  0.64800  0.08784  Biso   1.000  N
  C19      1.0000 0.76850  0.02690  0.01638  Biso   1.000  C
  H19      1.0000 0.80780  0.11860  0.01370  Biso   1.000  H
  C20      1.0000 0.64290  0.83280  0.02648  Biso   1.000  C
  H20      1.0000 0.57870  0.76610  0.03210  Biso   1.000  H
  C21      1.0000 0.51220  0.05480  0.02952  Biso   1.000  C
  H21      1.0000 0.46320  0.02660  0.02170  Biso   1.000  H
  C22      1.0000 0.65780  0.08670  0.04487  Biso   1.000  C
  H22      1.0000 0.72790  0.08560  0.04970  Biso   1.000  H
  C23      1.0000 0.39760  0.04360  0.07285  Biso   1.000  C
  H23      1.0000 0.38080  0.00950  0.06440  Biso   1.000  H
  C24      1.0000 0.15940  0.74260  0.09020  Biso   1.000  C
  H24      1.0000 0.21940  0.73260  0.09580  Biso   1.000  H
  N33      1.0000 0.46537  0.27093  0.34526  Biso   1.000  N
  N34      1.0000 0.38577  0.14603  0.35165  Biso   1.000  N
  N35      1.0000 0.33677  0.29863  0.35899  Biso   1.000  N
  N36      1.0000 0.28067  0.36223  0.36639  Biso   1.000  N
  N37      1.0000 0.15967  0.45753  0.37185  Biso   1.000  N
  N38      1.0000 0.25407  0.47713  0.38176  Biso   1.000  N
  N39      1.0000 0.17087  0.49193  0.41003  Biso   1.000  N
  N40      1.0000 0.69927  0.98133  0.42117  Biso   1.000  N
  C25      1.0000 0.43517  0.36023  0.34971  Biso   1.000  C
  H25      1.0000 0.47447  0.45193  0.34703  Biso   1.000  H
  C26      1.0000 0.30957  0.16613  0.35981  Biso   1.000  C
  H26      1.0000 0.24537  0.09943  0.36543  Biso   1.000  H
  C27      1.0000 0.17887  0.38813  0.36285  Biso   1.000  C
  H27      1.0000 0.12987  0.35993  0.35503  Biso   1.000  H
  C28      1.0000 0.32447  0.42003  0.37820  Biso   1.000  C
  H28      1.0000 0.39457  0.41893  0.38303  Biso   1.000  H
  C29      1.0000 0.06427  0.37693  0.40618  Biso   1.000  C
  H29      1.0000 0.04747  0.34283  0.39773  Biso   1.000  H
  C30      1.0000 0.82607  0.07593  0.42353  Biso   1.000  C
  H30      1.0000 0.88607  0.06593  0.42913  Biso   1.000  H
  N41      1.0000 0.13203  0.60427  0.67860  Biso   1.000  N
  N42      1.0000 0.05243  0.47937  0.68499  Biso   1.000  N
  N43      1.0000 0.00343  0.63197  0.69233  Biso   1.000  N
  N44      1.0000 0.94733  0.69557  0.69973  Biso   1.000  N
  N45      1.0000 0.82633  0.79087  0.70519  Biso   1.000  N
  N46      1.0000 0.92073  0.81047  0.71510  Biso   1.000  N
  N47      1.0000 0.83753  0.82527  0.74337  Biso   1.000  N
  N48      1.0000 0.36593  0.31467  0.75451  Biso   1.000  N
  C31      1.0000 0.10183  0.69357  0.68305  Biso   1.000  C
  H31      1.0000 0.14113  0.78527  0.68037  Biso   1.000  H
  C32      1.0000 0.97623  0.49947  0.69315  Biso   1.000  C
  H32      1.0000 0.91203  0.43277  0.69877  Biso   1.000  H
  C33      1.0000 0.84553  0.72147  0.69619  Biso   1.000  C
  H33      1.0000 0.79653  0.69327  0.68837  Biso   1.000  H
  C34      1.0000 0.99113  0.75337  0.71154  Biso   1.000  C
  H34      1.0000 0.06123  0.75227  0.71637  Biso   1.000  H
  C35      1.0000 0.73093  0.71027  0.73952  Biso   1.000  C
  H35      1.0000 0.71413  0.67617  0.73107  Biso   1.000  H
  C36      1.0000 0.49273  0.40927  0.75687  Biso   1.000  C
  H36      1.0000 0.55273  0.39927  0.76247  Biso   1.000  H
  N49      1.0000 0.06240  0.86110  0.01193  Biso   1.000  N
  N50      1.0000 0.18730  0.90640  0.01832  Biso   1.000  N
  N51      1.0000 0.03470  0.70480  0.02566  Biso   1.000  N
  N52      1.0000 0.97110  0.58510  0.03306  Biso   1.000  N
  N53      1.0000 0.87580  0.36880  0.03852  Biso   1.000  N
  N54      1.0000 0.85620  0.44360  0.04843  Biso   1.000  N
  N55      1.0000 0.84140  0.34560  0.07670  Biso   1.000  N
  N56      1.0000 0.35200  0.38460  0.08784  Biso   1.000  N
  C37      1.0000 0.97310  0.74160  0.01638  Biso   1.000  C
  H37      1.0000 0.88140  0.68920  0.01370  Biso   1.000  H
  C38      1.0000 0.16720  0.81010  0.02648  Biso   1.000  C
  H38      1.0000 0.23390  0.81260  0.03210  Biso   1.000  H
  C39      1.0000 0.94520  0.45740  0.02952  Biso   1.000  C
  H39      1.0000 0.97340  0.43660  0.02170  Biso   1.000  H
  C40      1.0000 0.91330  0.57110  0.04487  Biso   1.000  C
  H40      1.0000 0.91440  0.64230  0.04970  Biso   1.000  H
  C41      1.0000 0.95640  0.35400  0.07285  Biso   1.000  C
  H41      1.0000 0.99050  0.37130  0.06440  Biso   1.000  H
  C42      1.0000 0.25740  0.41680  0.09020  Biso   1.000  C
  H42      1.0000 0.26740  0.48680  0.09580  Biso   1.000  H
  N57      1.0000 0.72907  0.19443  0.34526  Biso   1.000  N
  N58      1.0000 0.85397  0.23973  0.35165  Biso   1.000  N
  N59      1.0000 0.70137  0.03813  0.35899  Biso   1.000  N
  N60      1.0000 0.63777  0.91843  0.36639  Biso   1.000  N
  N61      1.0000 0.54247  0.70213  0.37185  Biso   1.000  N
  N62      1.0000 0.52287  0.77693  0.38176  Biso   1.000  N
  N63      1.0000 0.50807  0.67893  0.41003  Biso   1.000  N
  N64      1.0000 0.01867  0.71793  0.42117  Biso   1.000  N
  C43      1.0000 0.63977  0.07493  0.34971  Biso   1.000  C
  H43      1.0000 0.54807  0.02253  0.34703  Biso   1.000  H
  C44      1.0000 0.83387  0.14343  0.35981  Biso   1.000  C
  H44      1.0000 0.90057  0.14593  0.36543  Biso   1.000  H
  C45      1.0000 0.61187  0.79073  0.36285  Biso   1.000  C
  H45      1.0000 0.64007  0.76993  0.35503  Biso   1.000  H
  C46      1.0000 0.57997  0.90443  0.37820  Biso   1.000  C
  H46      1.0000 0.58107  0.97563  0.38303  Biso   1.000  H
  C47      1.0000 0.62307  0.68733  0.40618  Biso   1.000  C
  H47      1.0000 0.65717  0.70463  0.39773  Biso   1.000  H
  C48      1.0000 0.92407  0.75013  0.42353  Biso   1.000  C
  H48      1.0000 0.93407  0.82013  0.42913  Biso   1.000  H
  N65      1.0000 0.39573  0.52777  0.67860  Biso   1.000  N
  N66      1.0000 0.52063  0.57307  0.68499  Biso   1.000  N
  N67      1.0000 0.36803  0.37147  0.69233  Biso   1.000  N
  N68      1.0000 0.30443  0.25177  0.69973  Biso   1.000  N
  N69      1.0000 0.20913  0.03547  0.70519  Biso   1.000  N
  N70      1.0000 0.18953  0.11027  0.71510  Biso   1.000  N
  N71      1.0000 0.17473  0.01227  0.74337  Biso   1.000  N
  N72      1.0000 0.68533  0.05127  0.75451  Biso   1.000  N
  C49      1.0000 0.30643  0.40827  0.68305  Biso   1.000  C
  H49      1.0000 0.21473  0.35587  0.68037  Biso   1.000  H
  C50      1.0000 0.50053  0.47677  0.69315  Biso   1.000  C
  H50      1.0000 0.56723  0.47927  0.69877  Biso   1.000  H
  C51      1.0000 0.27853  0.12407  0.69619  Biso   1.000  C
  H51      1.0000 0.30673  0.10327  0.68837  Biso   1.000  H
  C52      1.0000 0.24663  0.23777  0.71154  Biso   1.000  C
  H52      1.0000 0.24773  0.30897  0.71637  Biso   1.000  H
  C53      1.0000 0.28973  0.02067  0.73952  Biso   1.000  C
  H53      1.0000 0.32383  0.03797  0.73107  Biso   1.000  H
  C54      1.0000 0.59073  0.08347  0.75687  Biso   1.000  C
  H54      1.0000 0.60073  0.15347  0.76247  Biso   1.000  H
  N73      1.0000 0.20130  0.13890  0.48807  Biso   1.000  N
  N74      1.0000 0.28090  0.09360  0.48168  Biso   1.000  N
  N75      1.0000 0.32990  0.29520  0.47434  Biso   1.000  N
  N76      1.0000 0.38600  0.41490  0.46694  Biso   1.000  N
  N77      1.0000 0.50700  0.63120  0.46148  Biso   1.000  N
  N78      1.0000 0.41260  0.55640  0.45157  Biso   1.000  N
  N79      1.0000 0.49580  0.65440  0.42330  Biso   1.000  N
  N80      1.0000 0.96740  0.61540  0.41216  Biso   1.000  N
  C55      1.0000 0.23150  0.25840  0.48362  Biso   1.000  C
  H55      1.0000 0.19220  0.31080  0.48630  Biso   1.000  H
  C56      1.0000 0.35710  0.18990  0.47352  Biso   1.000  C
  H56      1.0000 0.42130  0.18740  0.46790  Biso   1.000  H
  C57      1.0000 0.48780  0.54260  0.47048  Biso   1.000  C
  H57      1.0000 0.53680  0.56340  0.47830  Biso   1.000  H
  C58      1.0000 0.34220  0.42890  0.45513  Biso   1.000  C
  H58      1.0000 0.27210  0.35770  0.45030  Biso   1.000  H
  C59      1.0000 0.60240  0.64600  0.42715  Biso   1.000  C
  H59      1.0000 0.61920  0.62870  0.43560  Biso   1.000  H
  C60      1.0000 0.84060  0.58320  0.40980  Biso   1.000  C
  H60      1.0000 0.78060  0.51320  0.40420  Biso   1.000  H
  N81      1.0000 0.86797  0.47223  0.82140  Biso   1.000  N
  N82      1.0000 0.94757  0.42693  0.81501  Biso   1.000  N
  N83      1.0000 0.99657  0.62853  0.80767  Biso   1.000  N
  N84      1.0000 0.05267  0.74823  0.80027  Biso   1.000  N
  N85      1.0000 0.17367  0.96453  0.79481  Biso   1.000  N
  N86      1.0000 0.07927  0.88973  0.78490  Biso   1.000  N
  N87      1.0000 0.16247  0.98773  0.75663  Biso   1.000  N
  N88      1.0000 0.63407  0.94873  0.74549  Biso   1.000  N
  C61      1.0000 0.89817  0.59173  0.81695  Biso   1.000  C
  H61      1.0000 0.85887  0.64413  0.81963  Biso   1.000  H
  C62      1.0000 0.02377  0.52323  0.80685  Biso   1.000  C
  H62      1.0000 0.08797  0.52073  0.80123  Biso   1.000  H
  C63      1.0000 0.15447  0.87593  0.80381  Biso   1.000  C
  H63      1.0000 0.20347  0.89673  0.81163  Biso   1.000  H
  C64      1.0000 0.00887  0.76223  0.78846  Biso   1.000  C
  H64      1.0000 0.93877  0.69103  0.78363  Biso   1.000  H
  C65      1.0000 0.26907  0.97933  0.76048  Biso   1.000  C
  H65      1.0000 0.28587  0.96203  0.76893  Biso   1.000  H
  C66      1.0000 0.50727  0.91653  0.74313  Biso   1.000  C
  H66      1.0000 0.44727  0.84653  0.73753  Biso   1.000  H
  N89      1.0000 0.53463  0.80557  0.15474  Biso   1.000  N
  N90      1.0000 0.61423  0.76027  0.14835  Biso   1.000  N
  N91      1.0000 0.66323  0.96187  0.14101  Biso   1.000  N
  N92      1.0000 0.71933  0.08157  0.13361  Biso   1.000  N
  N93      1.0000 0.84033  0.29787  0.12815  Biso   1.000  N
  N94      1.0000 0.74593  0.22307  0.11824  Biso   1.000  N
  N95      1.0000 0.82913  0.32107  0.08997  Biso   1.000  N
  N96      1.0000 0.30073  0.28207  0.07883  Biso   1.000  N
  C67      1.0000 0.56483  0.92507  0.15029  Biso   1.000  C
  H67      1.0000 0.52553  0.97747  0.15297  Biso   1.000  H
  C68      1.0000 0.69043  0.85657  0.14019  Biso   1.000  C
  H68      1.0000 0.75463  0.85407  0.13457  Biso   1.000  H
  C69      1.0000 0.82113  0.20927  0.13715  Biso   1.000  C
  H69      1.0000 0.87013  0.23007  0.14497  Biso   1.000  H
  C70      1.0000 0.67553  0.09557  0.12180  Biso   1.000  C
  H70      1.0000 0.60543  0.02437  0.11697  Biso   1.000  H
  C71      1.0000 0.93573  0.31267  0.09382  Biso   1.000  C
  H71      1.0000 0.95253  0.29537  0.10227  Biso   1.000  H
  C72      1.0000 0.17393  0.24987  0.07647  Biso   1.000  C
  H72      1.0000 0.11393  0.17987  0.07087  Biso   1.000  H
  N97      1.0000 0.93760  0.79870  0.48807  Biso   1.000  N
  N98      1.0000 0.81270  0.71910  0.48168  Biso   1.000  N
  N99      1.0000 0.96530  0.67010  0.47434  Biso   1.000  N
  N100     1.0000 0.02890  0.61400  0.46694  Biso   1.000  N
  N101     1.0000 0.12420  0.49300  0.46148  Biso   1.000  N
  N102     1.0000 0.14380  0.58740  0.45157  Biso   1.000  N
  N103     1.0000 0.15860  0.50420  0.42330  Biso   1.000  N
  N104     1.0000 0.64800  0.03260  0.41216  Biso   1.000  N
  C73      1.0000 0.02690  0.76850  0.48362  Biso   1.000  C
  H73      1.0000 0.11860  0.80780  0.48630  Biso   1.000  H
  C74      1.0000 0.83280  0.64290  0.47352  Biso   1.000  C
  H74      1.0000 0.76610  0.57870  0.46790  Biso   1.000  H
  C75      1.0000 0.05480  0.51220  0.47048  Biso   1.000  C
  H75      1.0000 0.02660  0.46320  0.47830  Biso   1.000  H
  C76      1.0000 0.08670  0.65780  0.45513  Biso   1.000  C
  H76      1.0000 0.08560  0.72790  0.45030  Biso   1.000  H
  C77      1.0000 0.04360  0.39760  0.42715  Biso   1.000  C
  H77      1.0000 0.00950  0.38080  0.43560  Biso   1.000  H
  C78      1.0000 0.74260  0.15940  0.40980  Biso   1.000  C
  H78      1.0000 0.73260  0.21940  0.40420  Biso   1.000  H
  N105     1.0000 0.60427  0.13203  0.82140  Biso   1.000  N
  N106     1.0000 0.47937  0.05243  0.81501  Biso   1.000  N
  N107     1.0000 0.63197  0.00343  0.80767  Biso   1.000  N
  N108     1.0000 0.69557  0.94733  0.80027  Biso   1.000  N
  N109     1.0000 0.79087  0.82633  0.79481  Biso   1.000  N
  N110     1.0000 0.81047  0.92073  0.78490  Biso   1.000  N
  N111     1.0000 0.82527  0.83753  0.75663  Biso   1.000  N
  N112     1.0000 0.31467  0.36593  0.74549  Biso   1.000  N
  C79      1.0000 0.69357  0.10183  0.81695  Biso   1.000  C
  H79      1.0000 0.78527  0.14113  0.81963  Biso   1.000  H
  C80      1.0000 0.49947  0.97623  0.80685  Biso   1.000  C
  H80      1.0000 0.43277  0.91203  0.80123  Biso   1.000  H
  C81      1.0000 0.72147  0.84553  0.80381  Biso   1.000  C
  H81      1.0000 0.69327  0.79653  0.81163  Biso   1.000  H
  C82      1.0000 0.75337  0.99113  0.78846  Biso   1.000  C
  H82      1.0000 0.75227  0.06123  0.78363  Biso   1.000  H
  C83      1.0000 0.71027  0.73093  0.76048  Biso   1.000  C
  H83      1.0000 0.67617  0.71413  0.76893  Biso   1.000  H
  C84      1.0000 0.40927  0.49273  0.74313  Biso   1.000  C
  H84      1.0000 0.39927  0.55273  0.73753  Biso   1.000  H
  N113     1.0000 0.27093  0.46537  0.15474  Biso   1.000  N
  N114     1.0000 0.14603  0.38577  0.14835  Biso   1.000  N
  N115     1.0000 0.29863  0.33677  0.14101  Biso   1.000  N
  N116     1.0000 0.36223  0.28067  0.13361  Biso   1.000  N
  N117     1.0000 0.45753  0.15967  0.12815  Biso   1.000  N
  N118     1.0000 0.47713  0.25407  0.11824  Biso   1.000  N
  N119     1.0000 0.49193  0.17087  0.08997  Biso   1.000  N
  N120     1.0000 0.98133  0.69927  0.07883  Biso   1.000  N
  C85      1.0000 0.36023  0.43517  0.15029  Biso   1.000  C
  H85      1.0000 0.45193  0.47447  0.15297  Biso   1.000  H
  C86      1.0000 0.16613  0.30957  0.14019  Biso   1.000  C
  H86      1.0000 0.09943  0.24537  0.13457  Biso   1.000  H
  C87      1.0000 0.38813  0.17887  0.13715  Biso   1.000  C
  H87      1.0000 0.35993  0.12987  0.14497  Biso   1.000  H
  C88      1.0000 0.42003  0.32447  0.12180  Biso   1.000  C
  H88      1.0000 0.41893  0.39457  0.11697  Biso   1.000  H
  C89      1.0000 0.37693  0.06427  0.09382  Biso   1.000  C
  H89      1.0000 0.34283  0.04747  0.10227  Biso   1.000  H
  C90      1.0000 0.07593  0.82607  0.07647  Biso   1.000  C
  H90      1.0000 0.06593  0.88607  0.07087  Biso   1.000  H
  N121     1.0000 0.86110  0.06240  0.48807  Biso   1.000  N
  N122     1.0000 0.90640  0.18730  0.48168  Biso   1.000  N
  N123     1.0000 0.70480  0.03470  0.47434  Biso   1.000  N
  N124     1.0000 0.58510  0.97110  0.46694  Biso   1.000  N
  N125     1.0000 0.36880  0.87580  0.46148  Biso   1.000  N
  N126     1.0000 0.44360  0.85620  0.45157  Biso   1.000  N
  N127     1.0000 0.34560  0.84140  0.42330  Biso   1.000  N
  N128     1.0000 0.38460  0.35200  0.41216  Biso   1.000  N
  C91      1.0000 0.74160  0.97310  0.48362  Biso   1.000  C
  H91      1.0000 0.68920  0.88140  0.48630  Biso   1.000  H
  C92      1.0000 0.81010  0.16720  0.47352  Biso   1.000  C
  H92      1.0000 0.81260  0.23390  0.46790  Biso   1.000  H
  C93      1.0000 0.45740  0.94520  0.47048  Biso   1.000  C
  H93      1.0000 0.43660  0.97340  0.47830  Biso   1.000  H
  C94      1.0000 0.57110  0.91330  0.45513  Biso   1.000  C
  H94      1.0000 0.64230  0.91440  0.45030  Biso   1.000  H
  C95      1.0000 0.35400  0.95640  0.42715  Biso   1.000  C
  H95      1.0000 0.37130  0.99050  0.43560  Biso   1.000  H
  C96      1.0000 0.41680  0.25740  0.40980  Biso   1.000  C
  H96      1.0000 0.48680  0.26740  0.40420  Biso   1.000  H
  N129     1.0000 0.52777  0.39573  0.82140  Biso   1.000  N
  N130     1.0000 0.57307  0.52063  0.81501  Biso   1.000  N
  N131     1.0000 0.37147  0.36803  0.80767  Biso   1.000  N
  N132     1.0000 0.25177  0.30443  0.80027  Biso   1.000  N
  N133     1.0000 0.03547  0.20913  0.79481  Biso   1.000  N
  N134     1.0000 0.11027  0.18953  0.78490  Biso   1.000  N
  N135     1.0000 0.01227  0.17473  0.75663  Biso   1.000  N
  N136     1.0000 0.05127  0.68533  0.74549  Biso   1.000  N
  C97      1.0000 0.40827  0.30643  0.81695  Biso   1.000  C
  H97      1.0000 0.35587  0.21473  0.81963  Biso   1.000  H
  C98      1.0000 0.47677  0.50053  0.80685  Biso   1.000  C
  H98      1.0000 0.47927  0.56723  0.80123  Biso   1.000  H
  C99      1.0000 0.12407  0.27853  0.80381  Biso   1.000  C
  H99      1.0000 0.10327  0.30673  0.81163  Biso   1.000  H
  C100     1.0000 0.23777  0.24663  0.78846  Biso   1.000  C
  H100     1.0000 0.30897  0.24773  0.78363  Biso   1.000  H
  C101     1.0000 0.02067  0.28973  0.76048  Biso   1.000  C
  H101     1.0000 0.03797  0.32383  0.76893  Biso   1.000  H
  C102     1.0000 0.08347  0.59073  0.74313  Biso   1.000  C
  H102     1.0000 0.15347  0.60073  0.73753  Biso   1.000  H
  N137     1.0000 0.19443  0.72907  0.15474  Biso   1.000  N
  N138     1.0000 0.23973  0.85397  0.14835  Biso   1.000  N
  N139     1.0000 0.03813  0.70137  0.14101  Biso   1.000  N
  N140     1.0000 0.91843  0.63777  0.13361  Biso   1.000  N
  N141     1.0000 0.70213  0.54247  0.12815  Biso   1.000  N
  N142     1.0000 0.77693  0.52287  0.11824  Biso   1.000  N
  N143     1.0000 0.67893  0.50807  0.08997  Biso   1.000  N
  N144     1.0000 0.71793  0.01867  0.07883  Biso   1.000  N
  C103     1.0000 0.07493  0.63977  0.15029  Biso   1.000  C
  H103     1.0000 0.02253  0.54807  0.15297  Biso   1.000  H
  C104     1.0000 0.14343  0.83387  0.14019  Biso   1.000  C
  H104     1.0000 0.14593  0.90057  0.13457  Biso   1.000  H
  C105     1.0000 0.79073  0.61187  0.13715  Biso   1.000  C
  H105     1.0000 0.76993  0.64007  0.14497  Biso   1.000  H
  C106     1.0000 0.90443  0.57997  0.12180  Biso   1.000  C
  H106     1.0000 0.97563  0.58107  0.11697  Biso   1.000  H
  C107     1.0000 0.68733  0.62307  0.09382  Biso   1.000  C
  H107     1.0000 0.70463  0.65717  0.10227  Biso   1.000  H
  C108     1.0000 0.75013  0.92407  0.07647  Biso   1.000  C
  H108     1.0000 0.82013  0.93407  0.07087  Biso   1.000  H
  N145     1.0000 0.86110  0.79870  0.98807  Biso   1.000  N
  N146     1.0000 0.90640  0.71910  0.98168  Biso   1.000  N
  N147     1.0000 0.70480  0.67010  0.97434  Biso   1.000  N
  N148     1.0000 0.58510  0.61400  0.96694  Biso   1.000  N
  N149     1.0000 0.36880  0.49300  0.96148  Biso   1.000  N
  N150     1.0000 0.44360  0.58740  0.95157  Biso   1.000  N
  N151     1.0000 0.34560  0.50420  0.92330  Biso   1.000  N
  N152     1.0000 0.38460  0.03260  0.91216  Biso   1.000  N
  C109     1.0000 0.74160  0.76850  0.98362  Biso   1.000  C
  H109     1.0000 0.68920  0.80780  0.98630  Biso   1.000  H
  C110     1.0000 0.81010  0.64290  0.97352  Biso   1.000  C
  H110     1.0000 0.81260  0.57870  0.96790  Biso   1.000  H
  C111     1.0000 0.45740  0.51220  0.97048  Biso   1.000  C
  H111     1.0000 0.43660  0.46320  0.97830  Biso   1.000  H
  C112     1.0000 0.57110  0.65780  0.95513  Biso   1.000  C
  H112     1.0000 0.64230  0.72790  0.95030  Biso   1.000  H
  C113     1.0000 0.35400  0.39760  0.92715  Biso   1.000  C
  H113     1.0000 0.37130  0.38080  0.93560  Biso   1.000  H
  C114     1.0000 0.41680  0.15940  0.90980  Biso   1.000  C
  H114     1.0000 0.48680  0.21940  0.90420  Biso   1.000  H
  N153     1.0000 0.52777  0.13203  0.32140  Biso   1.000  N
  N154     1.0000 0.57307  0.05243  0.31501  Biso   1.000  N
  N155     1.0000 0.37147  0.00343  0.30767  Biso   1.000  N
  N156     1.0000 0.25177  0.94733  0.30027  Biso   1.000  N
  N157     1.0000 0.03547  0.82633  0.29481  Biso   1.000  N
  N158     1.0000 0.11027  0.92073  0.28490  Biso   1.000  N
  N159     1.0000 0.01227  0.83753  0.25663  Biso   1.000  N
  N160     1.0000 0.05127  0.36593  0.24549  Biso   1.000  N
  C115     1.0000 0.40827  0.10183  0.31695  Biso   1.000  C
  H115     1.0000 0.35587  0.14113  0.31963  Biso   1.000  H
  C116     1.0000 0.47677  0.97623  0.30685  Biso   1.000  C
  H116     1.0000 0.47927  0.91203  0.30123  Biso   1.000  H
  C117     1.0000 0.12407  0.84553  0.30381  Biso   1.000  C
  H117     1.0000 0.10327  0.79653  0.31163  Biso   1.000  H
  C118     1.0000 0.23777  0.99113  0.28846  Biso   1.000  C
  H118     1.0000 0.30897  0.06123  0.28363  Biso   1.000  H
  C119     1.0000 0.02067  0.73093  0.26048  Biso   1.000  C
  H119     1.0000 0.03797  0.71413  0.26893  Biso   1.000  H
  C120     1.0000 0.08347  0.49273  0.24313  Biso   1.000  C
  H120     1.0000 0.15347  0.55273  0.23753  Biso   1.000  H
  N161     1.0000 0.19443  0.46537  0.65474  Biso   1.000  N
  N162     1.0000 0.23973  0.38577  0.64835  Biso   1.000  N
  N163     1.0000 0.03813  0.33677  0.64101  Biso   1.000  N
  N164     1.0000 0.91843  0.28067  0.63361  Biso   1.000  N
  N165     1.0000 0.70213  0.15967  0.62815  Biso   1.000  N
  N166     1.0000 0.77693  0.25407  0.61824  Biso   1.000  N
  N167     1.0000 0.67893  0.17087  0.58997  Biso   1.000  N
  N168     1.0000 0.71793  0.69927  0.57883  Biso   1.000  N
  C121     1.0000 0.07493  0.43517  0.65029  Biso   1.000  C
  H121     1.0000 0.02253  0.47447  0.65297  Biso   1.000  H
  C122     1.0000 0.14343  0.30957  0.64019  Biso   1.000  C
  H122     1.0000 0.14593  0.24537  0.63457  Biso   1.000  H
  C123     1.0000 0.79073  0.17887  0.63715  Biso   1.000  C
  H123     1.0000 0.76993  0.12987  0.64497  Biso   1.000  H
  C124     1.0000 0.90443  0.32447  0.62180  Biso   1.000  C
  H124     1.0000 0.97563  0.39457  0.61697  Biso   1.000  H
  C125     1.0000 0.68733  0.06427  0.59382  Biso   1.000  C
  H125     1.0000 0.70463  0.04747  0.60227  Biso   1.000  H
  C126     1.0000 0.75013  0.82607  0.57647  Biso   1.000  C
  H126     1.0000 0.82013  0.88607  0.57087  Biso   1.000  H
  N169     1.0000 0.20130  0.06240  0.98807  Biso   1.000  N
  N170     1.0000 0.28090  0.18730  0.98168  Biso   1.000  N
  N171     1.0000 0.32990  0.03470  0.97434  Biso   1.000  N
  N172     1.0000 0.38600  0.97110  0.96694  Biso   1.000  N
  N173     1.0000 0.50700  0.87580  0.96148  Biso   1.000  N
  N174     1.0000 0.41260  0.85620  0.95157  Biso   1.000  N
  N175     1.0000 0.49580  0.84140  0.92330  Biso   1.000  N
  N176     1.0000 0.96740  0.35200  0.91216  Biso   1.000  N
  C127     1.0000 0.23150  0.97310  0.98362  Biso   1.000  C
  H127     1.0000 0.19220  0.88140  0.98630  Biso   1.000  H
  C128     1.0000 0.35710  0.16720  0.97352  Biso   1.000  C
  H128     1.0000 0.42130  0.23390  0.96790  Biso   1.000  H
  C129     1.0000 0.48780  0.94520  0.97048  Biso   1.000  C
  H129     1.0000 0.53680  0.97340  0.97830  Biso   1.000  H
  C130     1.0000 0.34220  0.91330  0.95513  Biso   1.000  C
  H130     1.0000 0.27210  0.91440  0.95030  Biso   1.000  H
  C131     1.0000 0.60240  0.95640  0.92715  Biso   1.000  C
  H131     1.0000 0.61920  0.99050  0.93560  Biso   1.000  H
  C132     1.0000 0.84060  0.25740  0.90980  Biso   1.000  C
  H132     1.0000 0.78060  0.26740  0.90420  Biso   1.000  H
  N177     1.0000 0.86797  0.39573  0.32140  Biso   1.000  N
  N178     1.0000 0.94757  0.52063  0.31501  Biso   1.000  N
  N179     1.0000 0.99657  0.36803  0.30767  Biso   1.000  N
  N180     1.0000 0.05267  0.30443  0.30027  Biso   1.000  N
  N181     1.0000 0.17367  0.20913  0.29481  Biso   1.000  N
  N182     1.0000 0.07927  0.18953  0.28490  Biso   1.000  N
  N183     1.0000 0.16247  0.17473  0.25663  Biso   1.000  N
  N184     1.0000 0.63407  0.68533  0.24549  Biso   1.000  N
  C133     1.0000 0.89817  0.30643  0.31695  Biso   1.000  C
  H133     1.0000 0.85887  0.21473  0.31963  Biso   1.000  H
  C134     1.0000 0.02377  0.50053  0.30685  Biso   1.000  C
  H134     1.0000 0.08797  0.56723  0.30123  Biso   1.000  H
  C135     1.0000 0.15447  0.27853  0.30381  Biso   1.000  C
  H135     1.0000 0.20347  0.30673  0.31163  Biso   1.000  H
  C136     1.0000 0.00887  0.24663  0.28846  Biso   1.000  C
  H136     1.0000 0.93877  0.24773  0.28363  Biso   1.000  H
  C137     1.0000 0.26907  0.28973  0.26048  Biso   1.000  C
  H137     1.0000 0.28587  0.32383  0.26893  Biso   1.000  H
  C138     1.0000 0.50727  0.59073  0.24313  Biso   1.000  C
  H138     1.0000 0.44727  0.60073  0.23753  Biso   1.000  H
  N185     1.0000 0.53463  0.72907  0.65474  Biso   1.000  N
  N186     1.0000 0.61423  0.85397  0.64835  Biso   1.000  N
  N187     1.0000 0.66323  0.70137  0.64101  Biso   1.000  N
  N188     1.0000 0.71933  0.63777  0.63361  Biso   1.000  N
  N189     1.0000 0.84033  0.54247  0.62815  Biso   1.000  N
  N190     1.0000 0.74593  0.52287  0.61824  Biso   1.000  N
  N191     1.0000 0.82913  0.50807  0.58997  Biso   1.000  N
  N192     1.0000 0.30073  0.01867  0.57883  Biso   1.000  N
  C139     1.0000 0.56483  0.63977  0.65029  Biso   1.000  C
  H139     1.0000 0.52553  0.54807  0.65297  Biso   1.000  H
  C140     1.0000 0.69043  0.83387  0.64019  Biso   1.000  C
  H140     1.0000 0.75463  0.90057  0.63457  Biso   1.000  H
  C141     1.0000 0.82113  0.61187  0.63715  Biso   1.000  C
  H141     1.0000 0.87013  0.64007  0.64497  Biso   1.000  H
  C142     1.0000 0.67553  0.57997  0.62180  Biso   1.000  C
  H142     1.0000 0.60543  0.58107  0.61697  Biso   1.000  H
  C143     1.0000 0.93573  0.62307  0.59382  Biso   1.000  C
  H143     1.0000 0.95253  0.65717  0.60227  Biso   1.000  H
  C144     1.0000 0.17393  0.92407  0.57647  Biso   1.000  C
  H144     1.0000 0.11393  0.93407  0.57087  Biso   1.000  H
  N193     1.0000 0.93760  0.13890  0.98807  Biso   1.000  N
  N194     1.0000 0.81270  0.09360  0.98168  Biso   1.000  N
  N195     1.0000 0.96530  0.29520  0.97434  Biso   1.000  N
  N196     1.0000 0.02890  0.41490  0.96694  Biso   1.000  N
  N197     1.0000 0.12420  0.63120  0.96148  Biso   1.000  N
  N198     1.0000 0.14380  0.55640  0.95157  Biso   1.000  N
  N199     1.0000 0.15860  0.65440  0.92330  Biso   1.000  N
  N200     1.0000 0.64800  0.61540  0.91216  Biso   1.000  N
  C145     1.0000 0.02690  0.25840  0.98362  Biso   1.000  C
  H145     1.0000 0.11860  0.31080  0.98630  Biso   1.000  H
  C146     1.0000 0.83280  0.18990  0.97352  Biso   1.000  C
  H146     1.0000 0.76610  0.18740  0.96790  Biso   1.000  H
  C147     1.0000 0.05480  0.54260  0.97048  Biso   1.000  C
  H147     1.0000 0.02660  0.56340  0.97830  Biso   1.000  H
  C148     1.0000 0.08670  0.42890  0.95513  Biso   1.000  C
  H148     1.0000 0.08560  0.35770  0.95030  Biso   1.000  H
  C149     1.0000 0.04360  0.64600  0.92715  Biso   1.000  C
  H149     1.0000 0.00950  0.62870  0.93560  Biso   1.000  H
  C150     1.0000 0.74260  0.58320  0.90980  Biso   1.000  C
  H150     1.0000 0.73260  0.51320  0.90420  Biso   1.000  H
  N201     1.0000 0.60427  0.47223  0.32140  Biso   1.000  N
  N202     1.0000 0.47937  0.42693  0.31501  Biso   1.000  N
  N203     1.0000 0.63197  0.62853  0.30767  Biso   1.000  N
  N204     1.0000 0.69557  0.74823  0.30027  Biso   1.000  N
  N205     1.0000 0.79087  0.96453  0.29481  Biso   1.000  N
  N206     1.0000 0.81047  0.88973  0.28490  Biso   1.000  N
  N207     1.0000 0.82527  0.98773  0.25663  Biso   1.000  N
  N208     1.0000 0.31467  0.94873  0.24549  Biso   1.000  N
  C151     1.0000 0.69357  0.59173  0.31695  Biso   1.000  C
  H151     1.0000 0.78527  0.64413  0.31963  Biso   1.000  H
  C152     1.0000 0.49947  0.52323  0.30685  Biso   1.000  C
  H152     1.0000 0.43277  0.52073  0.30123  Biso   1.000  H
  C153     1.0000 0.72147  0.87593  0.30381  Biso   1.000  C
  H153     1.0000 0.69327  0.89673  0.31163  Biso   1.000  H
  C154     1.0000 0.75337  0.76223  0.28846  Biso   1.000  C
  H154     1.0000 0.75227  0.69103  0.28363  Biso   1.000  H
  C155     1.0000 0.71027  0.97933  0.26048  Biso   1.000  C
  H155     1.0000 0.67617  0.96203  0.26893  Biso   1.000  H
  C156     1.0000 0.40927  0.91653  0.24313  Biso   1.000  C
  H156     1.0000 0.39927  0.84653  0.23753  Biso   1.000  H
  N209     1.0000 0.27093  0.80557  0.65474  Biso   1.000  N
  N210     1.0000 0.14603  0.76027  0.64835  Biso   1.000  N
  N211     1.0000 0.29863  0.96187  0.64101  Biso   1.000  N
  N212     1.0000 0.36223  0.08157  0.63361  Biso   1.000  N
  N213     1.0000 0.45753  0.29787  0.62815  Biso   1.000  N
  N214     1.0000 0.47713  0.22307  0.61824  Biso   1.000  N
  N215     1.0000 0.49193  0.32107  0.58997  Biso   1.000  N
  N216     1.0000 0.98133  0.28207  0.57883  Biso   1.000  N
  C157     1.0000 0.36023  0.92507  0.65029  Biso   1.000  C
  H157     1.0000 0.45193  0.97747  0.65297  Biso   1.000  H
  C158     1.0000 0.16613  0.85657  0.64019  Biso   1.000  C
  H158     1.0000 0.09943  0.85407  0.63457  Biso   1.000  H
  C159     1.0000 0.38813  0.20927  0.63715  Biso   1.000  C
  H159     1.0000 0.35993  0.23007  0.64497  Biso   1.000  H
  C160     1.0000 0.42003  0.09557  0.62180  Biso   1.000  C
  H160     1.0000 0.41893  0.02437  0.61697  Biso   1.000  H
  C161     1.0000 0.37693  0.31267  0.59382  Biso   1.000  C
  H161     1.0000 0.34283  0.29537  0.60227  Biso   1.000  H
  C162     1.0000 0.07593  0.24987  0.57647  Biso   1.000  C
  H162     1.0000 0.06593  0.17987  0.57087  Biso   1.000  H
  N217     1.0000 0.79870  0.86110  0.51193  Biso   1.000  N
  N218     1.0000 0.71910  0.90640  0.51832  Biso   1.000  N
  N219     1.0000 0.67010  0.70480  0.52566  Biso   1.000  N
  N220     1.0000 0.61400  0.58510  0.53306  Biso   1.000  N
  N221     1.0000 0.49300  0.36880  0.53852  Biso   1.000  N
  N222     1.0000 0.58740  0.44360  0.54843  Biso   1.000  N
  N223     1.0000 0.50420  0.34560  0.57670  Biso   1.000  N
  N224     1.0000 0.03260  0.38460  0.58784  Biso   1.000  N
  C163     1.0000 0.76850  0.74160  0.51638  Biso   1.000  C
  H163     1.0000 0.80780  0.68920  0.51370  Biso   1.000  H
  C164     1.0000 0.64290  0.81010  0.52648  Biso   1.000  C
  H164     1.0000 0.57870  0.81260  0.53210  Biso   1.000  H
  C165     1.0000 0.51220  0.45740  0.52952  Biso   1.000  C
  H165     1.0000 0.46320  0.43660  0.52170  Biso   1.000  H
  C166     1.0000 0.65780  0.57110  0.54487  Biso   1.000  C
  H166     1.0000 0.72790  0.64230  0.54970  Biso   1.000  H
  C167     1.0000 0.39760  0.35400  0.57285  Biso   1.000  C
  H167     1.0000 0.38080  0.37130  0.56440  Biso   1.000  H
  C168     1.0000 0.15940  0.41680  0.59020  Biso   1.000  C
  H168     1.0000 0.21940  0.48680  0.59580  Biso   1.000  H
  N225     1.0000 0.46537  0.19443  0.84526  Biso   1.000  N
  N226     1.0000 0.38577  0.23973  0.85165  Biso   1.000  N
  N227     1.0000 0.33677  0.03813  0.85899  Biso   1.000  N
  N228     1.0000 0.28067  0.91843  0.86639  Biso   1.000  N
  N229     1.0000 0.15967  0.70213  0.87185  Biso   1.000  N
  N230     1.0000 0.25407  0.77693  0.88176  Biso   1.000  N
  N231     1.0000 0.17087  0.67893  0.91003  Biso   1.000  N
  N232     1.0000 0.69927  0.71793  0.92117  Biso   1.000  N
  C169     1.0000 0.43517  0.07493  0.84971  Biso   1.000  C
  H169     1.0000 0.47447  0.02253  0.84703  Biso   1.000  H
  C170     1.0000 0.30957  0.14343  0.85981  Biso   1.000  C
  H170     1.0000 0.24537  0.14593  0.86543  Biso   1.000  H
  C171     1.0000 0.17887  0.79073  0.86285  Biso   1.000  C
  H171     1.0000 0.12987  0.76993  0.85503  Biso   1.000  H
  C172     1.0000 0.32447  0.90443  0.87820  Biso   1.000  C
  H172     1.0000 0.39457  0.97563  0.88303  Biso   1.000  H
  C173     1.0000 0.06427  0.68733  0.90618  Biso   1.000  C
  H173     1.0000 0.04747  0.70463  0.89773  Biso   1.000  H
  C174     1.0000 0.82607  0.75013  0.92353  Biso   1.000  C
  H174     1.0000 0.88607  0.82013  0.92913  Biso   1.000  H
  N233     1.0000 0.13203  0.52777  0.17860  Biso   1.000  N
  N234     1.0000 0.05243  0.57307  0.18499  Biso   1.000  N
  N235     1.0000 0.00343  0.37147  0.19233  Biso   1.000  N
  N236     1.0000 0.94733  0.25177  0.19973  Biso   1.000  N
  N237     1.0000 0.82633  0.03547  0.20519  Biso   1.000  N
  N238     1.0000 0.92073  0.11027  0.21510  Biso   1.000  N
  N239     1.0000 0.83753  0.01227  0.24337  Biso   1.000  N
  N240     1.0000 0.36593  0.05127  0.25451  Biso   1.000  N
  C175     1.0000 0.10183  0.40827  0.18305  Biso   1.000  C
  H175     1.0000 0.14113  0.35587  0.18037  Biso   1.000  H
  C176     1.0000 0.97623  0.47677  0.19315  Biso   1.000  C
  H176     1.0000 0.91203  0.47927  0.19877  Biso   1.000  H
  C177     1.0000 0.84553  0.12407  0.19619  Biso   1.000  C
  H177     1.0000 0.79653  0.10327  0.18837  Biso   1.000  H
  C178     1.0000 0.99113  0.23777  0.21154  Biso   1.000  C
  H178     1.0000 0.06123  0.30897  0.21637  Biso   1.000  H
  C179     1.0000 0.73093  0.02067  0.23952  Biso   1.000  C
  H179     1.0000 0.71413  0.03797  0.23107  Biso   1.000  H
  C180     1.0000 0.49273  0.08347  0.25687  Biso   1.000  C
  H180     1.0000 0.55273  0.15347  0.26247  Biso   1.000  H
  N241     1.0000 0.06240  0.20130  0.51193  Biso   1.000  N
  N242     1.0000 0.18730  0.28090  0.51832  Biso   1.000  N
  N243     1.0000 0.03470  0.32990  0.52566  Biso   1.000  N
  N244     1.0000 0.97110  0.38600  0.53306  Biso   1.000  N
  N245     1.0000 0.87580  0.50700  0.53852  Biso   1.000  N
  N246     1.0000 0.85620  0.41260  0.54843  Biso   1.000  N
  N247     1.0000 0.84140  0.49580  0.57670  Biso   1.000  N
  N248     1.0000 0.35200  0.96740  0.58784  Biso   1.000  N
  C181     1.0000 0.97310  0.23150  0.51638  Biso   1.000  C
  H181     1.0000 0.88140  0.19220  0.51370  Biso   1.000  H
  C182     1.0000 0.16720  0.35710  0.52648  Biso   1.000  C
  H182     1.0000 0.23390  0.42130  0.53210  Biso   1.000  H
  C183     1.0000 0.94520  0.48780  0.52952  Biso   1.000  C
  H183     1.0000 0.97340  0.53680  0.52170  Biso   1.000  H
  C184     1.0000 0.91330  0.34220  0.54487  Biso   1.000  C
  H184     1.0000 0.91440  0.27210  0.54970  Biso   1.000  H
  C185     1.0000 0.95640  0.60240  0.57285  Biso   1.000  C
  H185     1.0000 0.99050  0.61920  0.56440  Biso   1.000  H
  C186     1.0000 0.25740  0.84060  0.59020  Biso   1.000  C
  H186     1.0000 0.26740  0.78060  0.59580  Biso   1.000  H
  N249     1.0000 0.72907  0.53463  0.84526  Biso   1.000  N
  N250     1.0000 0.85397  0.61423  0.85165  Biso   1.000  N
  N251     1.0000 0.70137  0.66323  0.85899  Biso   1.000  N
  N252     1.0000 0.63777  0.71933  0.86639  Biso   1.000  N
  N253     1.0000 0.54247  0.84033  0.87185  Biso   1.000  N
  N254     1.0000 0.52287  0.74593  0.88176  Biso   1.000  N
  N255     1.0000 0.50807  0.82913  0.91003  Biso   1.000  N
  N256     1.0000 0.01867  0.30073  0.92117  Biso   1.000  N
  C187     1.0000 0.63977  0.56483  0.84971  Biso   1.000  C
  H187     1.0000 0.54807  0.52553  0.84703  Biso   1.000  H
  C188     1.0000 0.83387  0.69043  0.85981  Biso   1.000  C
  H188     1.0000 0.90057  0.75463  0.86543  Biso   1.000  H
  C189     1.0000 0.61187  0.82113  0.86285  Biso   1.000  C
  H189     1.0000 0.64007  0.87013  0.85503  Biso   1.000  H
  C190     1.0000 0.57997  0.67553  0.87820  Biso   1.000  C
  H190     1.0000 0.58107  0.60543  0.88303  Biso   1.000  H
  C191     1.0000 0.62307  0.93573  0.90618  Biso   1.000  C
  H191     1.0000 0.65717  0.95253  0.89773  Biso   1.000  H
  C192     1.0000 0.92407  0.17393  0.92353  Biso   1.000  C
  H192     1.0000 0.93407  0.11393  0.92913  Biso   1.000  H
  N257     1.0000 0.39573  0.86797  0.17860  Biso   1.000  N
  N258     1.0000 0.52063  0.94757  0.18499  Biso   1.000  N
  N259     1.0000 0.36803  0.99657  0.19233  Biso   1.000  N
  N260     1.0000 0.30443  0.05267  0.19973  Biso   1.000  N
  N261     1.0000 0.20913  0.17367  0.20519  Biso   1.000  N
  N262     1.0000 0.18953  0.07927  0.21510  Biso   1.000  N
  N263     1.0000 0.17473  0.16247  0.24337  Biso   1.000  N
  N264     1.0000 0.68533  0.63407  0.25451  Biso   1.000  N
  C193     1.0000 0.30643  0.89817  0.18305  Biso   1.000  C
  H193     1.0000 0.21473  0.85887  0.18037  Biso   1.000  H
  C194     1.0000 0.50053  0.02377  0.19315  Biso   1.000  C
  H194     1.0000 0.56723  0.08797  0.19877  Biso   1.000  H
  C195     1.0000 0.27853  0.15447  0.19619  Biso   1.000  C
  H195     1.0000 0.30673  0.20347  0.18837  Biso   1.000  H
  C196     1.0000 0.24663  0.00887  0.21154  Biso   1.000  C
  H196     1.0000 0.24773  0.93877  0.21637  Biso   1.000  H
  C197     1.0000 0.28973  0.26907  0.23952  Biso   1.000  C
  H197     1.0000 0.32383  0.28587  0.23107  Biso   1.000  H
  C198     1.0000 0.59073  0.50727  0.25687  Biso   1.000  C
  H198     1.0000 0.60073  0.44727  0.26247  Biso   1.000  H
  N265     1.0000 0.13890  0.93760  0.51193  Biso   1.000  N
  N266     1.0000 0.09360  0.81270  0.51832  Biso   1.000  N
  N267     1.0000 0.29520  0.96530  0.52566  Biso   1.000  N
  N268     1.0000 0.41490  0.02890  0.53306  Biso   1.000  N
  N269     1.0000 0.63120  0.12420  0.53852  Biso   1.000  N
  N270     1.0000 0.55640  0.14380  0.54843  Biso   1.000  N
  N271     1.0000 0.65440  0.15860  0.57670  Biso   1.000  N
  N272     1.0000 0.61540  0.64800  0.58784  Biso   1.000  N
  C199     1.0000 0.25840  0.02690  0.51638  Biso   1.000  C
  H199     1.0000 0.31080  0.11860  0.51370  Biso   1.000  H
  C200     1.0000 0.18990  0.83280  0.52648  Biso   1.000  C
  H200     1.0000 0.18740  0.76610  0.53210  Biso   1.000  H
  C201     1.0000 0.54260  0.05480  0.52952  Biso   1.000  C
  H201     1.0000 0.56340  0.02660  0.52170  Biso   1.000  H
  C202     1.0000 0.42890  0.08670  0.54487  Biso   1.000  C
  H202     1.0000 0.35770  0.08560  0.54970  Biso   1.000  H
  C203     1.0000 0.64600  0.04360  0.57285  Biso   1.000  C
  H203     1.0000 0.62870  0.00950  0.56440  Biso   1.000  H
  C204     1.0000 0.58320  0.74260  0.59020  Biso   1.000  C
  H204     1.0000 0.51320  0.73260  0.59580  Biso   1.000  H
  N273     1.0000 0.80557  0.27093  0.84526  Biso   1.000  N
  N274     1.0000 0.76027  0.14603  0.85165  Biso   1.000  N
  N275     1.0000 0.96187  0.29863  0.85899  Biso   1.000  N
  N276     1.0000 0.08157  0.36223  0.86639  Biso   1.000  N
  N277     1.0000 0.29787  0.45753  0.87185  Biso   1.000  N
  N278     1.0000 0.22307  0.47713  0.88176  Biso   1.000  N
  N279     1.0000 0.32107  0.49193  0.91003  Biso   1.000  N
  N280     1.0000 0.28207  0.98133  0.92117  Biso   1.000  N
  C205     1.0000 0.92507  0.36023  0.84971  Biso   1.000  C
  H205     1.0000 0.97747  0.45193  0.84703  Biso   1.000  H
  C206     1.0000 0.85657  0.16613  0.85981  Biso   1.000  C
  H206     1.0000 0.85407  0.09943  0.86543  Biso   1.000  H
  C207     1.0000 0.20927  0.38813  0.86285  Biso   1.000  C
  H207     1.0000 0.23007  0.35993  0.85503  Biso   1.000  H
  C208     1.0000 0.09557  0.42003  0.87820  Biso   1.000  C
  H208     1.0000 0.02437  0.41893  0.88303  Biso   1.000  H
  C209     1.0000 0.31267  0.37693  0.90618  Biso   1.000  C
  H209     1.0000 0.29537  0.34283  0.89773  Biso   1.000  H
  C210     1.0000 0.24987  0.07593  0.92353  Biso   1.000  C
  H210     1.0000 0.17987  0.06593  0.92913  Biso   1.000  H
  N281     1.0000 0.47223  0.60427  0.17860  Biso   1.000  N
  N282     1.0000 0.42693  0.47937  0.18499  Biso   1.000  N
  N283     1.0000 0.62853  0.63197  0.19233  Biso   1.000  N
  N284     1.0000 0.74823  0.69557  0.19973  Biso   1.000  N
  N285     1.0000 0.96453  0.79087  0.20519  Biso   1.000  N
  N286     1.0000 0.88973  0.81047  0.21510  Biso   1.000  N
  N287     1.0000 0.98773  0.82527  0.24337  Biso   1.000  N
  N288     1.0000 0.94873  0.31467  0.25451  Biso   1.000  N
  C211     1.0000 0.59173  0.69357  0.18305  Biso   1.000  C
  H211     1.0000 0.64413  0.78527  0.18037  Biso   1.000  H
  C212     1.0000 0.52323  0.49947  0.19315  Biso   1.000  C
  H212     1.0000 0.52073  0.43277  0.19877  Biso   1.000  H
  C213     1.0000 0.87593  0.72147  0.19619  Biso   1.000  C
  H213     1.0000 0.89673  0.69327  0.18837  Biso   1.000  H
  C214     1.0000 0.76223  0.75337  0.21154  Biso   1.000  C
  H214     1.0000 0.69103  0.75227  0.21637  Biso   1.000  H
  C215     1.0000 0.97933  0.71027  0.23952  Biso   1.000  C
  H215     1.0000 0.96203  0.67617  0.23107  Biso   1.000  H
  C216     1.0000 0.91653  0.40927  0.25687  Biso   1.000  C
  H216     1.0000 0.84653  0.39927  0.26247  Biso   1.000  H
  Cd1      1.0000 0.00000  0.00000  0.00000  Biso   1.000  Cd
  Cd2      1.0000 0.66667  0.33333  0.33333  Biso   1.000  Cd
  Cd3      1.0000 0.33333  0.66667  0.66667  Biso   1.000  Cd
  Cd4      1.0000 0.00000  0.00000  0.50000  Biso   1.000  Cd
  Cd5      1.0000 0.66667  0.33333  0.83333  Biso   1.000  Cd
  Cd6      1.0000 0.33333  0.66667  0.16667  Biso   1.000  Cd
  Cd7      1.0000 0.66667  0.33333  0.06313  Biso   1.000  Cd
  Cd8      1.0000 0.33333  0.66667  0.39647  Biso   1.000  Cd
  Cd9      1.0000 0.00000  0.00000  0.72980  Biso   1.000  Cd
  Cd10     1.0000 0.33333  0.66667  0.43687  Biso   1.000  Cd
  Cd11     1.0000 0.00000  0.00000  0.77020  Biso   1.000  Cd
  Cd12     1.0000 0.66667  0.33333  0.10353  Biso   1.000  Cd
  Cd13     1.0000 0.33333  0.66667  0.93687  Biso   1.000  Cd
  Cd14     1.0000 0.00000  0.00000  0.27020  Biso   1.000  Cd
  Cd15     1.0000 0.66667  0.33333  0.60353  Biso   1.000  Cd
  Cd16     1.0000 0.66667  0.33333  0.56313  Biso   1.000  Cd
  Cd17     1.0000 0.33333  0.66667  0.89647  Biso   1.000  Cd
  Cd18     1.0000 0.00000  0.00000  0.22980  Biso   1.000  Cd
  N289     1.0000 0.66667  0.68528  0.08333  Biso   1.000  N
  N290     1.0000 0.66667  0.80878  0.08333  Biso   1.000  N
  N291     1.0000 0.31472  0.98138  0.08333  Biso   1.000  N
  N292     1.0000 0.19122  0.85788  0.08333  Biso   1.000  N
  N293     1.0000 0.01862  0.33333  0.08333  Biso   1.000  N
  N294     1.0000 0.14212  0.33333  0.08333  Biso   1.000  N
  N295     1.0000 0.68528  0.66667  0.41667  Biso   1.000  N
  N296     1.0000 0.80878  0.66667  0.41667  Biso   1.000  N
  N297     1.0000 0.35195  0.00000  0.75000  Biso   1.000  N
  N298     1.0000 0.47545  0.00000  0.75000  Biso   1.000  N
  N299     1.0000 0.98138  0.31472  0.41667  Biso   1.000  N
  N300     1.0000 0.85788  0.19122  0.41667  Biso   1.000  N
  N301     1.0000 0.64805  0.64805  0.75000  Biso   1.000  N
  N302     1.0000 0.52455  0.52455  0.75000  Biso   1.000  N
  N303     1.0000 0.33333  0.01862  0.41667  Biso   1.000  N
  N304     1.0000 0.33333  0.14212  0.41667  Biso   1.000  N
  N305     1.0000 0.00000  0.35195  0.75000  Biso   1.000  N
  N306     1.0000 0.00000  0.47545  0.75000  Biso   1.000  N
  N307     1.0000 0.33333  0.31472  0.91667  Biso   1.000  N
  N308     1.0000 0.33333  0.19122  0.91667  Biso   1.000  N
  N309     1.0000 0.00000  0.64805  0.25000  Biso   1.000  N
  N310     1.0000 0.00000  0.52455  0.25000  Biso   1.000  N
  N311     1.0000 0.68528  0.01862  0.91667  Biso   1.000  N
  N312     1.0000 0.80878  0.14212  0.91667  Biso   1.000  N
  N313     1.0000 0.35195  0.35195  0.25000  Biso   1.000  N
  N314     1.0000 0.47545  0.47545  0.25000  Biso   1.000  N
  N315     1.0000 0.98138  0.66667  0.91667  Biso   1.000  N
  N316     1.0000 0.85788  0.66667  0.91667  Biso   1.000  N
  N317     1.0000 0.64805  0.00000  0.25000  Biso   1.000  N
  N318     1.0000 0.52455  0.00000  0.25000  Biso   1.000  N
  N319     1.0000 0.31472  0.33333  0.58333  Biso   1.000  N
  N320     1.0000 0.19122  0.33333  0.58333  Biso   1.000  N
  N321     1.0000 0.01862  0.68528  0.58333  Biso   1.000  N
  N322     1.0000 0.14212  0.80878  0.58333  Biso   1.000  N
  N323     1.0000 0.66667  0.98138  0.58333  Biso   1.000  N
  N324     1.0000 0.66667  0.85788  0.58333  Biso   1.000  N
