data_image0
_cell_length_a       32.425
_cell_length_b       32.425
_cell_length_c       9.34
_cell_angle_alpha    90
_cell_angle_beta     90
_cell_angle_gamma    120

_symmetry_space_group_name_H-M    "P 1"
_symmetry_int_tables_number       1

loop_
  _symmetry_equiv_pos_as_xyz
  'x, y, z'

loop_
  _atom_site_label
  _atom_site_occupancy
  _atom_site_fract_x
  _atom_site_fract_y
  _atom_site_fract_z
  _atom_site_thermal_displace_type
  _atom_site_B_iso_or_equiv
  _atom_site_type_symbol
  N1       1.0000 0.53513  0.00209  0.17830  Biso   1.000  N
  N2       1.0000 0.49889  0.05760  0.06950  Biso   1.000  N
  N3       1.0000 0.37640  0.13728  0.75830  Biso   1.000  N
  C1       1.0000 0.55621  0.97521  0.20430  Biso   1.000  C
  C2       1.0000 0.58430  0.99130  0.33370  Biso   1.000  C
  H1       1.0000 0.60170  0.97800  0.37600  Biso   1.000  H
  C3       1.0000 0.58130  0.02830  0.38250  Biso   1.000  C
  H2       1.0000 0.59670  0.04680  0.46500  Biso   1.000  H
  C4       1.0000 0.55063  0.03496  0.28740  Biso   1.000  C
  C5       1.0000 0.54196  0.07351  0.29790  Biso   1.000  C
  C6       1.0000 0.51674  0.08223  0.19600  Biso   1.000  C
  C7       1.0000 0.50457  0.11940  0.20910  Biso   1.000  C
  H3       1.0000 0.51310  0.14170  0.28510  Biso   1.000  H
  C8       1.0000 0.47875  0.11620  0.09190  Biso   1.000  C
  H4       1.0000 0.46570  0.13600  0.07000  Biso   1.000  H
  C9       1.0000 0.47461  0.07770  0.00660  Biso   1.000  C
  C10      1.0000 0.44812  0.06209  0.87940  Biso   1.000  C
  C11      1.0000 0.42338  0.08813  0.83530  Biso   1.000  C
  C12      1.0000 0.43960  0.12060  0.72650  Biso   1.000  C
  H5       1.0000 0.46730  0.12690  0.67450  Biso   1.000  H
  C13      1.0000 0.41540  0.14408  0.69310  Biso   1.000  C
  H6       1.0000 0.42760  0.16680  0.61770  Biso   1.000  H
  C14      1.0000 0.36070  0.10560  0.86580  Biso   1.000  C
  H7       1.0000 0.33300  0.10020  0.91640  Biso   1.000  H
  C15      1.0000 0.38255  0.08040  0.90610  Biso   1.000  C
  H8       1.0000 0.36980  0.05790  0.98200  Biso   1.000  H
  C16      1.0000 0.55982  0.10466  0.42780  Biso   1.000  C
  C17      1.0000 0.54303  0.08740  0.56290  Biso   1.000  C
  H9       1.0000 0.51970  0.05480  0.57410  Biso   1.000  H
  C18      1.0000 0.55930  0.11650  0.68350  Biso   1.000  C
  H10      1.0000 0.54810  0.10290  0.77540  Biso   1.000  H
  C19      1.0000 0.59060  0.16370  0.67290  Biso   1.000  C
  C20      1.0000 0.60780  0.18120  0.53670  Biso   1.000  C
  H11      1.0000 0.63060  0.21400  0.52620  Biso   1.000  H
  C21      1.0000 0.59290  0.15250  0.41520  Biso   1.000  C
  H12      1.0000 0.60550  0.16580  0.32400  Biso   1.000  H
  C22      1.0000 0.60880  0.19480  0.80560  Biso   1.000  C
  H13      1.0000 0.58270  0.18480  0.87470  Biso   1.000  H
  H14      1.0000 0.62080  0.22810  0.77900  Biso   1.000  H
  H15      1.0000 0.63460  0.19160  0.84880  Biso   1.000  H
  N4       1.0000 0.20180  0.33542  0.51163  Biso   1.000  N
  N5       1.0000 0.16556  0.39093  0.40283  Biso   1.000  N
  N6       1.0000 0.04307  0.47061  0.09163  Biso   1.000  N
  C23      1.0000 0.22288  0.30854  0.53763  Biso   1.000  C
  C24      1.0000 0.25097  0.32463  0.66703  Biso   1.000  C
  H16      1.0000 0.26837  0.31133  0.70933  Biso   1.000  H
  C25      1.0000 0.24797  0.36163  0.71583  Biso   1.000  C
  H17      1.0000 0.26337  0.38013  0.79833  Biso   1.000  H
  C26      1.0000 0.21730  0.36829  0.62073  Biso   1.000  C
  C27      1.0000 0.20863  0.40684  0.63123  Biso   1.000  C
  C28      1.0000 0.18341  0.41556  0.52933  Biso   1.000  C
  C29      1.0000 0.17124  0.45273  0.54243  Biso   1.000  C
  H18      1.0000 0.17977  0.47503  0.61843  Biso   1.000  H
  C30      1.0000 0.14542  0.44953  0.42523  Biso   1.000  C
  H19      1.0000 0.13237  0.46933  0.40333  Biso   1.000  H
  C31      1.0000 0.14128  0.41103  0.33993  Biso   1.000  C
  C32      1.0000 0.11479  0.39542  0.21273  Biso   1.000  C
  C33      1.0000 0.09005  0.42146  0.16863  Biso   1.000  C
  C34      1.0000 0.10627  0.45393  0.05983  Biso   1.000  C
  H20      1.0000 0.13397  0.46023  0.00783  Biso   1.000  H
  C35      1.0000 0.08207  0.47741  0.02643  Biso   1.000  C
  H21      1.0000 0.09427  0.50013  0.95103  Biso   1.000  H
  C36      1.0000 0.02737  0.43893  0.19913  Biso   1.000  C
  H22      1.0000 0.99967  0.43353  0.24973  Biso   1.000  H
  C37      1.0000 0.04922  0.41373  0.23943  Biso   1.000  C
  H23      1.0000 0.03647  0.39123  0.31533  Biso   1.000  H
  C38      1.0000 0.22649  0.43799  0.76113  Biso   1.000  C
  C39      1.0000 0.20970  0.42073  0.89623  Biso   1.000  C
  H24      1.0000 0.18637  0.38813  0.90743  Biso   1.000  H
  C40      1.0000 0.22597  0.44983  0.01683  Biso   1.000  C
  H25      1.0000 0.21477  0.43623  0.10873  Biso   1.000  H
  C41      1.0000 0.25727  0.49703  0.00623  Biso   1.000  C
  C42      1.0000 0.27447  0.51453  0.87003  Biso   1.000  C
  H26      1.0000 0.29727  0.54733  0.85953  Biso   1.000  H
  C43      1.0000 0.25957  0.48583  0.74853  Biso   1.000  C
  H27      1.0000 0.27217  0.49913  0.65733  Biso   1.000  H
  C44      1.0000 0.27547  0.52813  0.13893  Biso   1.000  C
  H28      1.0000 0.24937  0.51813  0.20803  Biso   1.000  H
  H29      1.0000 0.28747  0.56143  0.11233  Biso   1.000  H
  H30      1.0000 0.30127  0.52493  0.18213  Biso   1.000  H
  N7       1.0000 0.86846  0.66876  0.84497  Biso   1.000  N
  N8       1.0000 0.83222  0.72427  0.73617  Biso   1.000  N
  N9       1.0000 0.70973  0.80395  0.42497  Biso   1.000  N
  C45      1.0000 0.88954  0.64188  0.87097  Biso   1.000  C
  C46      1.0000 0.91763  0.65797  0.00037  Biso   1.000  C
  H31      1.0000 0.93503  0.64467  0.04267  Biso   1.000  H
  C47      1.0000 0.91463  0.69497  0.04917  Biso   1.000  C
  H32      1.0000 0.93003  0.71347  0.13167  Biso   1.000  H
  C48      1.0000 0.88396  0.70163  0.95407  Biso   1.000  C
  C49      1.0000 0.87529  0.74018  0.96457  Biso   1.000  C
  C50      1.0000 0.85007  0.74890  0.86267  Biso   1.000  C
  C51      1.0000 0.83790  0.78607  0.87577  Biso   1.000  C
  H33      1.0000 0.84643  0.80837  0.95177  Biso   1.000  H
  C52      1.0000 0.81208  0.78287  0.75857  Biso   1.000  C
  H34      1.0000 0.79903  0.80267  0.73667  Biso   1.000  H
  C53      1.0000 0.80794  0.74437  0.67327  Biso   1.000  C
  C54      1.0000 0.78145  0.72876  0.54607  Biso   1.000  C
  C55      1.0000 0.75671  0.75480  0.50197  Biso   1.000  C
  C56      1.0000 0.77293  0.78727  0.39317  Biso   1.000  C
  H35      1.0000 0.80063  0.79357  0.34117  Biso   1.000  H
  C57      1.0000 0.74873  0.81075  0.35977  Biso   1.000  C
  H36      1.0000 0.76093  0.83347  0.28437  Biso   1.000  H
  C58      1.0000 0.69403  0.77227  0.53247  Biso   1.000  C
  H37      1.0000 0.66633  0.76687  0.58307  Biso   1.000  H
  C59      1.0000 0.71588  0.74707  0.57277  Biso   1.000  C
  H38      1.0000 0.70313  0.72457  0.64867  Biso   1.000  H
  C60      1.0000 0.89315  0.77133  0.09447  Biso   1.000  C
  C61      1.0000 0.87636  0.75407  0.22957  Biso   1.000  C
  H39      1.0000 0.85303  0.72147  0.24077  Biso   1.000  H
  C62      1.0000 0.89263  0.78317  0.35017  Biso   1.000  C
  H40      1.0000 0.88143  0.76957  0.44207  Biso   1.000  H
  C63      1.0000 0.92393  0.83037  0.33957  Biso   1.000  C
  C64      1.0000 0.94113  0.84787  0.20337  Biso   1.000  C
  H41      1.0000 0.96393  0.88067  0.19287  Biso   1.000  H
  C65      1.0000 0.92623  0.81917  0.08187  Biso   1.000  C
  H42      1.0000 0.93883  0.83247  0.99067  Biso   1.000  H
  C66      1.0000 0.94213  0.86147  0.47227  Biso   1.000  C
  H43      1.0000 0.91603  0.85147  0.54137  Biso   1.000  H
  H44      1.0000 0.95413  0.89477  0.44567  Biso   1.000  H
  H45      1.0000 0.96793  0.85827  0.51547  Biso   1.000  H
  N10      1.0000 0.99791  0.53304  0.17830  Biso   1.000  N
  N11      1.0000 0.94240  0.44129  0.06950  Biso   1.000  N
  N12      1.0000 0.86272  0.23912  0.75830  Biso   1.000  N
  C67      1.0000 0.02479  0.58100  0.20430  Biso   1.000  C
  C68      1.0000 0.00870  0.59300  0.33370  Biso   1.000  C
  H46      1.0000 0.02200  0.62370  0.37600  Biso   1.000  H
  C69      1.0000 0.97170  0.55300  0.38250  Biso   1.000  C
  H47      1.0000 0.95320  0.54990  0.46500  Biso   1.000  H
  C70      1.0000 0.96504  0.51567  0.28740  Biso   1.000  C
  C71      1.0000 0.92649  0.46845  0.29790  Biso   1.000  C
  C72      1.0000 0.91777  0.43451  0.19600  Biso   1.000  C
  C73      1.0000 0.88060  0.38517  0.20910  Biso   1.000  C
  H48      1.0000 0.85830  0.37140  0.28510  Biso   1.000  H
  C74      1.0000 0.88380  0.36255  0.09190  Biso   1.000  C
  H49      1.0000 0.86400  0.32970  0.07000  Biso   1.000  H
  C75      1.0000 0.92230  0.39691  0.00660  Biso   1.000  C
  C76      1.0000 0.93791  0.38603  0.87940  Biso   1.000  C
  C77      1.0000 0.91187  0.33525  0.83530  Biso   1.000  C
  C78      1.0000 0.87940  0.31900  0.72650  Biso   1.000  C
  H50      1.0000 0.87310  0.34040  0.67450  Biso   1.000  H
  C79      1.0000 0.85592  0.27132  0.69310  Biso   1.000  C
  H51      1.0000 0.83320  0.26080  0.61770  Biso   1.000  H
  C80      1.0000 0.89440  0.25510  0.86580  Biso   1.000  C
  H52      1.0000 0.89980  0.23280  0.91640  Biso   1.000  H
  C81      1.0000 0.91960  0.30215  0.90610  Biso   1.000  C
  H53      1.0000 0.94210  0.31190  0.98200  Biso   1.000  H
  C82      1.0000 0.89534  0.45516  0.42780  Biso   1.000  C
  C83      1.0000 0.91260  0.45563  0.56290  Biso   1.000  C
  H54      1.0000 0.94520  0.46490  0.57410  Biso   1.000  H
  C84      1.0000 0.88350  0.44280  0.68350  Biso   1.000  C
  H55      1.0000 0.89710  0.44520  0.77540  Biso   1.000  H
  C85      1.0000 0.83630  0.42690  0.67290  Biso   1.000  C
  C86      1.0000 0.81880  0.42660  0.53670  Biso   1.000  C
  H56      1.0000 0.78600  0.41660  0.52620  Biso   1.000  H
  C87      1.0000 0.84750  0.44040  0.41520  Biso   1.000  C
  H57      1.0000 0.83420  0.43970  0.32400  Biso   1.000  H
  C88      1.0000 0.80520  0.41400  0.80560  Biso   1.000  C
  H58      1.0000 0.81520  0.39790  0.87470  Biso   1.000  H
  H59      1.0000 0.77190  0.39270  0.77900  Biso   1.000  H
  H60      1.0000 0.80840  0.44300  0.84880  Biso   1.000  H
  N13      1.0000 0.66458  0.86637  0.51163  Biso   1.000  N
  N14      1.0000 0.60907  0.77462  0.40283  Biso   1.000  N
  N15      1.0000 0.52939  0.57245  0.09163  Biso   1.000  N
  C89      1.0000 0.69146  0.91433  0.53763  Biso   1.000  C
  C90      1.0000 0.67537  0.92633  0.66703  Biso   1.000  C
  H61      1.0000 0.68867  0.95703  0.70933  Biso   1.000  H
  C91      1.0000 0.63837  0.88633  0.71583  Biso   1.000  C
  H62      1.0000 0.61987  0.88323  0.79833  Biso   1.000  H
  C92      1.0000 0.63171  0.84900  0.62073  Biso   1.000  C
  C93      1.0000 0.59316  0.80178  0.63123  Biso   1.000  C
  C94      1.0000 0.58444  0.76784  0.52933  Biso   1.000  C
  C95      1.0000 0.54727  0.71850  0.54243  Biso   1.000  C
  H63      1.0000 0.52497  0.70473  0.61843  Biso   1.000  H
  C96      1.0000 0.55047  0.69588  0.42523  Biso   1.000  C
  H64      1.0000 0.53067  0.66303  0.40333  Biso   1.000  H
  C97      1.0000 0.58897  0.73024  0.33993  Biso   1.000  C
  C98      1.0000 0.60458  0.71936  0.21273  Biso   1.000  C
  C99      1.0000 0.57854  0.66858  0.16863  Biso   1.000  C
  C100     1.0000 0.54607  0.65233  0.05983  Biso   1.000  C
  H65      1.0000 0.53977  0.67373  0.00783  Biso   1.000  H
  C101     1.0000 0.52259  0.60465  0.02643  Biso   1.000  C
  H66      1.0000 0.49987  0.59413  0.95103  Biso   1.000  H
  C102     1.0000 0.56107  0.58843  0.19913  Biso   1.000  C
  H67      1.0000 0.56647  0.56613  0.24973  Biso   1.000  H
  C103     1.0000 0.58627  0.63548  0.23943  Biso   1.000  C
  H68      1.0000 0.60877  0.64523  0.31533  Biso   1.000  H
  C104     1.0000 0.56201  0.78849  0.76113  Biso   1.000  C
  C105     1.0000 0.57927  0.78896  0.89623  Biso   1.000  C
  H69      1.0000 0.61187  0.79823  0.90743  Biso   1.000  H
  C106     1.0000 0.55017  0.77613  0.01683  Biso   1.000  C
  H70      1.0000 0.56377  0.77853  0.10873  Biso   1.000  H
  C107     1.0000 0.50297  0.76023  0.00623  Biso   1.000  C
  C108     1.0000 0.48547  0.75993  0.87003  Biso   1.000  C
  H71      1.0000 0.45267  0.74993  0.85953  Biso   1.000  H
  C109     1.0000 0.51417  0.77373  0.74853  Biso   1.000  C
  H72      1.0000 0.50087  0.77303  0.65733  Biso   1.000  H
  C110     1.0000 0.47187  0.74733  0.13893  Biso   1.000  C
  H73      1.0000 0.48187  0.73123  0.20803  Biso   1.000  H
  H74      1.0000 0.43857  0.72603  0.11233  Biso   1.000  H
  H75      1.0000 0.47507  0.77633  0.18213  Biso   1.000  H
  N16      1.0000 0.33124  0.19971  0.84497  Biso   1.000  N
  N17      1.0000 0.27573  0.10796  0.73617  Biso   1.000  N
  N18      1.0000 0.19605  0.90579  0.42497  Biso   1.000  N
  C111     1.0000 0.35812  0.24767  0.87097  Biso   1.000  C
  C112     1.0000 0.34203  0.25967  0.00037  Biso   1.000  C
  H76      1.0000 0.35533  0.29037  0.04267  Biso   1.000  H
  C113     1.0000 0.30503  0.21967  0.04917  Biso   1.000  C
  H77      1.0000 0.28653  0.21657  0.13167  Biso   1.000  H
  C114     1.0000 0.29837  0.18234  0.95407  Biso   1.000  C
  C115     1.0000 0.25982  0.13512  0.96457  Biso   1.000  C
  C116     1.0000 0.25110  0.10118  0.86267  Biso   1.000  C
  C117     1.0000 0.21393  0.05184  0.87577  Biso   1.000  C
  H78      1.0000 0.19163  0.03807  0.95177  Biso   1.000  H
  C118     1.0000 0.21713  0.02922  0.75857  Biso   1.000  C
  H79      1.0000 0.19733  0.99637  0.73667  Biso   1.000  H
  C119     1.0000 0.25563  0.06358  0.67327  Biso   1.000  C
  C120     1.0000 0.27124  0.05270  0.54607  Biso   1.000  C
  C121     1.0000 0.24520  0.00192  0.50197  Biso   1.000  C
  C122     1.0000 0.21273  0.98567  0.39317  Biso   1.000  C
  H80      1.0000 0.20643  0.00707  0.34117  Biso   1.000  H
  C123     1.0000 0.18925  0.93799  0.35977  Biso   1.000  C
  H81      1.0000 0.16653  0.92747  0.28437  Biso   1.000  H
  C124     1.0000 0.22773  0.92177  0.53247  Biso   1.000  C
  H82      1.0000 0.23313  0.89947  0.58307  Biso   1.000  H
  C125     1.0000 0.25293  0.96882  0.57277  Biso   1.000  C
  H83      1.0000 0.27543  0.97857  0.64867  Biso   1.000  H
  C126     1.0000 0.22867  0.12183  0.09447  Biso   1.000  C
  C127     1.0000 0.24593  0.12230  0.22957  Biso   1.000  C
  H84      1.0000 0.27853  0.13157  0.24077  Biso   1.000  H
  C128     1.0000 0.21683  0.10947  0.35017  Biso   1.000  C
  H85      1.0000 0.23043  0.11187  0.44207  Biso   1.000  H
  C129     1.0000 0.16963  0.09357  0.33957  Biso   1.000  C
  C130     1.0000 0.15213  0.09327  0.20337  Biso   1.000  C
  H86      1.0000 0.11933  0.08327  0.19287  Biso   1.000  H
  C131     1.0000 0.18083  0.10707  0.08187  Biso   1.000  C
  H87      1.0000 0.16753  0.10637  0.99067  Biso   1.000  H
  C132     1.0000 0.13853  0.08067  0.47227  Biso   1.000  C
  H88      1.0000 0.14853  0.06457  0.54137  Biso   1.000  H
  H89      1.0000 0.10523  0.05937  0.44567  Biso   1.000  H
  H90      1.0000 0.14173  0.10967  0.51547  Biso   1.000  H
  N19      1.0000 0.46696  0.46487  0.17830  Biso   1.000  N
  N20      1.0000 0.55871  0.50111  0.06950  Biso   1.000  N
  N21      1.0000 0.76088  0.62360  0.75830  Biso   1.000  N
  C133     1.0000 0.41900  0.44379  0.20430  Biso   1.000  C
  C134     1.0000 0.40700  0.41570  0.33370  Biso   1.000  C
  H91      1.0000 0.37630  0.39830  0.37600  Biso   1.000  H
  C135     1.0000 0.44700  0.41870  0.38250  Biso   1.000  C
  H92      1.0000 0.45010  0.40330  0.46500  Biso   1.000  H
  C136     1.0000 0.48433  0.44937  0.28740  Biso   1.000  C
  C137     1.0000 0.53155  0.45804  0.29790  Biso   1.000  C
  C138     1.0000 0.56549  0.48326  0.19600  Biso   1.000  C
  C139     1.0000 0.61483  0.49543  0.20910  Biso   1.000  C
  H93      1.0000 0.62860  0.48690  0.28510  Biso   1.000  H
  C140     1.0000 0.63745  0.52125  0.09190  Biso   1.000  C
  H94      1.0000 0.67030  0.53430  0.07000  Biso   1.000  H
  C141     1.0000 0.60309  0.52539  0.00660  Biso   1.000  C
  C142     1.0000 0.61397  0.55188  0.87940  Biso   1.000  C
  C143     1.0000 0.66475  0.57662  0.83530  Biso   1.000  C
  C144     1.0000 0.68100  0.56040  0.72650  Biso   1.000  C
  H95      1.0000 0.65960  0.53270  0.67450  Biso   1.000  H
  C145     1.0000 0.72868  0.58460  0.69310  Biso   1.000  C
  H96      1.0000 0.73920  0.57240  0.61770  Biso   1.000  H
  C146     1.0000 0.74490  0.63930  0.86580  Biso   1.000  C
  H97      1.0000 0.76720  0.66700  0.91640  Biso   1.000  H
  C147     1.0000 0.69785  0.61745  0.90610  Biso   1.000  C
  H98      1.0000 0.68810  0.63020  0.98200  Biso   1.000  H
  C148     1.0000 0.54484  0.44018  0.42780  Biso   1.000  C
  C149     1.0000 0.54437  0.45697  0.56290  Biso   1.000  C
  H99      1.0000 0.53510  0.48030  0.57410  Biso   1.000  H
  C150     1.0000 0.55720  0.44070  0.68350  Biso   1.000  C
  H100     1.0000 0.55480  0.45190  0.77540  Biso   1.000  H
  C151     1.0000 0.57310  0.40940  0.67290  Biso   1.000  C
  C152     1.0000 0.57340  0.39220  0.53670  Biso   1.000  C
  H101     1.0000 0.58340  0.36940  0.52620  Biso   1.000  H
  C153     1.0000 0.55960  0.40710  0.41520  Biso   1.000  C
  H102     1.0000 0.56030  0.39450  0.32400  Biso   1.000  H
  C154     1.0000 0.58600  0.39120  0.80560  Biso   1.000  C
  H103     1.0000 0.60210  0.41730  0.87470  Biso   1.000  H
  H104     1.0000 0.60730  0.37920  0.77900  Biso   1.000  H
  H105     1.0000 0.55700  0.36540  0.84880  Biso   1.000  H
  N22      1.0000 0.13363  0.79820  0.51163  Biso   1.000  N
  N23      1.0000 0.22538  0.83444  0.40283  Biso   1.000  N
  N24      1.0000 0.42755  0.95693  0.09163  Biso   1.000  N
  C155     1.0000 0.08567  0.77712  0.53763  Biso   1.000  C
  C156     1.0000 0.07367  0.74903  0.66703  Biso   1.000  C
  H106     1.0000 0.04297  0.73163  0.70933  Biso   1.000  H
  C157     1.0000 0.11367  0.75203  0.71583  Biso   1.000  C
  H107     1.0000 0.11677  0.73663  0.79833  Biso   1.000  H
  C158     1.0000 0.15100  0.78270  0.62073  Biso   1.000  C
  C159     1.0000 0.19822  0.79137  0.63123  Biso   1.000  C
  C160     1.0000 0.23216  0.81659  0.52933  Biso   1.000  C
  C161     1.0000 0.28150  0.82876  0.54243  Biso   1.000  C
  H108     1.0000 0.29527  0.82023  0.61843  Biso   1.000  H
  C162     1.0000 0.30412  0.85458  0.42523  Biso   1.000  C
  H109     1.0000 0.33697  0.86763  0.40333  Biso   1.000  H
  C163     1.0000 0.26976  0.85872  0.33993  Biso   1.000  C
  C164     1.0000 0.28064  0.88521  0.21273  Biso   1.000  C
  C165     1.0000 0.33142  0.90995  0.16863  Biso   1.000  C
  C166     1.0000 0.34767  0.89373  0.05983  Biso   1.000  C
  H110     1.0000 0.32627  0.86603  0.00783  Biso   1.000  H
  C167     1.0000 0.39535  0.91793  0.02643  Biso   1.000  C
  H111     1.0000 0.40587  0.90573  0.95103  Biso   1.000  H
  C168     1.0000 0.41157  0.97263  0.19913  Biso   1.000  C
  H112     1.0000 0.43387  0.00033  0.24973  Biso   1.000  H
  C169     1.0000 0.36452  0.95078  0.23943  Biso   1.000  C
  H113     1.0000 0.35477  0.96353  0.31533  Biso   1.000  H
  C170     1.0000 0.21151  0.77351  0.76113  Biso   1.000  C
  C171     1.0000 0.21104  0.79030  0.89623  Biso   1.000  C
  H114     1.0000 0.20177  0.81363  0.90743  Biso   1.000  H
  C172     1.0000 0.22387  0.77403  0.01683  Biso   1.000  C
  H115     1.0000 0.22147  0.78523  0.10873  Biso   1.000  H
  C173     1.0000 0.23977  0.74273  0.00623  Biso   1.000  C
  C174     1.0000 0.24007  0.72553  0.87003  Biso   1.000  C
  H116     1.0000 0.25007  0.70273  0.85953  Biso   1.000  H
  C175     1.0000 0.22627  0.74043  0.74853  Biso   1.000  C
  H117     1.0000 0.22697  0.72783  0.65733  Biso   1.000  H
  C176     1.0000 0.25267  0.72453  0.13893  Biso   1.000  C
  H118     1.0000 0.26877  0.75063  0.20803  Biso   1.000  H
  H119     1.0000 0.27397  0.71253  0.11233  Biso   1.000  H
  H120     1.0000 0.22367  0.69873  0.18213  Biso   1.000  H
  N25      1.0000 0.80029  0.13154  0.84497  Biso   1.000  N
  N26      1.0000 0.89204  0.16778  0.73617  Biso   1.000  N
  N27      1.0000 0.09421  0.29027  0.42497  Biso   1.000  N
  C177     1.0000 0.75233  0.11046  0.87097  Biso   1.000  C
  C178     1.0000 0.74033  0.08237  0.00037  Biso   1.000  C
  H121     1.0000 0.70963  0.06497  0.04267  Biso   1.000  H
  C179     1.0000 0.78033  0.08537  0.04917  Biso   1.000  C
  H122     1.0000 0.78343  0.06997  0.13167  Biso   1.000  H
  C180     1.0000 0.81766  0.11604  0.95407  Biso   1.000  C
  C181     1.0000 0.86488  0.12471  0.96457  Biso   1.000  C
  C182     1.0000 0.89882  0.14993  0.86267  Biso   1.000  C
  C183     1.0000 0.94816  0.16210  0.87577  Biso   1.000  C
  H123     1.0000 0.96193  0.15357  0.95177  Biso   1.000  H
  C184     1.0000 0.97078  0.18792  0.75857  Biso   1.000  C
  H124     1.0000 0.00363  0.20097  0.73667  Biso   1.000  H
  C185     1.0000 0.93642  0.19206  0.67327  Biso   1.000  C
  C186     1.0000 0.94730  0.21855  0.54607  Biso   1.000  C
  C187     1.0000 0.99808  0.24329  0.50197  Biso   1.000  C
  C188     1.0000 0.01433  0.22707  0.39317  Biso   1.000  C
  H125     1.0000 0.99293  0.19937  0.34117  Biso   1.000  H
  C189     1.0000 0.06201  0.25127  0.35977  Biso   1.000  C
  H126     1.0000 0.07253  0.23907  0.28437  Biso   1.000  H
  C190     1.0000 0.07823  0.30597  0.53247  Biso   1.000  C
  H127     1.0000 0.10053  0.33367  0.58307  Biso   1.000  H
  C191     1.0000 0.03118  0.28412  0.57277  Biso   1.000  C
  H128     1.0000 0.02143  0.29687  0.64867  Biso   1.000  H
  C192     1.0000 0.87817  0.10685  0.09447  Biso   1.000  C
  C193     1.0000 0.87770  0.12364  0.22957  Biso   1.000  C
  H129     1.0000 0.86843  0.14697  0.24077  Biso   1.000  H
  C194     1.0000 0.89053  0.10737  0.35017  Biso   1.000  C
  H130     1.0000 0.88813  0.11857  0.44207  Biso   1.000  H
  C195     1.0000 0.90643  0.07607  0.33957  Biso   1.000  C
  C196     1.0000 0.90673  0.05887  0.20337  Biso   1.000  C
  H131     1.0000 0.91673  0.03607  0.19287  Biso   1.000  H
  C197     1.0000 0.89293  0.07377  0.08187  Biso   1.000  C
  H132     1.0000 0.89363  0.06117  0.99067  Biso   1.000  H
  C198     1.0000 0.91933  0.05787  0.47227  Biso   1.000  C
  H133     1.0000 0.93543  0.08397  0.54137  Biso   1.000  H
  H134     1.0000 0.94063  0.04587  0.44567  Biso   1.000  H
  H135     1.0000 0.89033  0.03207  0.51547  Biso   1.000  H
  N28      1.0000 0.46487  0.99791  0.82170  Biso   1.000  N
  N29      1.0000 0.50111  0.94240  0.93050  Biso   1.000  N
  N30      1.0000 0.62360  0.86272  0.24170  Biso   1.000  N
  C199     1.0000 0.44379  0.02479  0.79570  Biso   1.000  C
  C200     1.0000 0.41570  0.00870  0.66630  Biso   1.000  C
  H136     1.0000 0.39830  0.02200  0.62400  Biso   1.000  H
  C201     1.0000 0.41870  0.97170  0.61750  Biso   1.000  C
  H137     1.0000 0.40330  0.95320  0.53500  Biso   1.000  H
  C202     1.0000 0.44937  0.96504  0.71260  Biso   1.000  C
  C203     1.0000 0.45804  0.92649  0.70210  Biso   1.000  C
  C204     1.0000 0.48326  0.91777  0.80400  Biso   1.000  C
  C205     1.0000 0.49543  0.88060  0.79090  Biso   1.000  C
  H138     1.0000 0.48690  0.85830  0.71490  Biso   1.000  H
  C206     1.0000 0.52125  0.88380  0.90810  Biso   1.000  C
  H139     1.0000 0.53430  0.86400  0.93000  Biso   1.000  H
  C207     1.0000 0.52539  0.92230  0.99340  Biso   1.000  C
  C208     1.0000 0.55188  0.93791  0.12060  Biso   1.000  C
  C209     1.0000 0.57662  0.91187  0.16470  Biso   1.000  C
  C210     1.0000 0.56040  0.87940  0.27350  Biso   1.000  C
  H140     1.0000 0.53270  0.87310  0.32550  Biso   1.000  H
  C211     1.0000 0.58460  0.85592  0.30690  Biso   1.000  C
  H141     1.0000 0.57240  0.83320  0.38230  Biso   1.000  H
  C212     1.0000 0.63930  0.89440  0.13420  Biso   1.000  C
  H142     1.0000 0.66700  0.89980  0.08360  Biso   1.000  H
  C213     1.0000 0.61745  0.91960  0.09390  Biso   1.000  C
  H143     1.0000 0.63020  0.94210  0.01800  Biso   1.000  H
  C214     1.0000 0.44018  0.89534  0.57220  Biso   1.000  C
  C215     1.0000 0.45697  0.91260  0.43710  Biso   1.000  C
  H144     1.0000 0.48030  0.94520  0.42590  Biso   1.000  H
  C216     1.0000 0.44070  0.88350  0.31650  Biso   1.000  C
  H145     1.0000 0.45190  0.89710  0.22460  Biso   1.000  H
  C217     1.0000 0.40940  0.83630  0.32710  Biso   1.000  C
  C218     1.0000 0.39220  0.81880  0.46330  Biso   1.000  C
  H146     1.0000 0.36940  0.78600  0.47380  Biso   1.000  H
  C219     1.0000 0.40710  0.84750  0.58480  Biso   1.000  C
  H147     1.0000 0.39450  0.83420  0.67600  Biso   1.000  H
  C220     1.0000 0.39120  0.80520  0.19440  Biso   1.000  C
  H148     1.0000 0.41730  0.81520  0.12530  Biso   1.000  H
  H149     1.0000 0.37920  0.77190  0.22100  Biso   1.000  H
  H150     1.0000 0.36540  0.80840  0.15120  Biso   1.000  H
  N31      1.0000 0.13154  0.33124  0.15503  Biso   1.000  N
  N32      1.0000 0.16778  0.27573  0.26383  Biso   1.000  N
  N33      1.0000 0.29027  0.19605  0.57503  Biso   1.000  N
  C221     1.0000 0.11046  0.35812  0.12903  Biso   1.000  C
  C222     1.0000 0.08237  0.34203  0.99963  Biso   1.000  C
  H151     1.0000 0.06497  0.35533  0.95733  Biso   1.000  H
  C223     1.0000 0.08537  0.30503  0.95083  Biso   1.000  C
  H152     1.0000 0.06997  0.28653  0.86833  Biso   1.000  H
  C224     1.0000 0.11604  0.29837  0.04593  Biso   1.000  C
  C225     1.0000 0.12471  0.25982  0.03543  Biso   1.000  C
  C226     1.0000 0.14993  0.25110  0.13733  Biso   1.000  C
  C227     1.0000 0.16210  0.21393  0.12423  Biso   1.000  C
  H153     1.0000 0.15357  0.19163  0.04823  Biso   1.000  H
  C228     1.0000 0.18792  0.21713  0.24143  Biso   1.000  C
  H154     1.0000 0.20097  0.19733  0.26333  Biso   1.000  H
  C229     1.0000 0.19206  0.25563  0.32673  Biso   1.000  C
  C230     1.0000 0.21855  0.27124  0.45393  Biso   1.000  C
  C231     1.0000 0.24329  0.24520  0.49803  Biso   1.000  C
  C232     1.0000 0.22707  0.21273  0.60683  Biso   1.000  C
  H155     1.0000 0.19937  0.20643  0.65883  Biso   1.000  H
  C233     1.0000 0.25127  0.18925  0.64023  Biso   1.000  C
  H156     1.0000 0.23907  0.16653  0.71563  Biso   1.000  H
  C234     1.0000 0.30597  0.22773  0.46753  Biso   1.000  C
  H157     1.0000 0.33367  0.23313  0.41693  Biso   1.000  H
  C235     1.0000 0.28412  0.25293  0.42723  Biso   1.000  C
  H158     1.0000 0.29687  0.27543  0.35133  Biso   1.000  H
  C236     1.0000 0.10685  0.22867  0.90553  Biso   1.000  C
  C237     1.0000 0.12364  0.24593  0.77043  Biso   1.000  C
  H159     1.0000 0.14697  0.27853  0.75923  Biso   1.000  H
  C238     1.0000 0.10737  0.21683  0.64983  Biso   1.000  C
  H160     1.0000 0.11857  0.23043  0.55793  Biso   1.000  H
  C239     1.0000 0.07607  0.16963  0.66043  Biso   1.000  C
  C240     1.0000 0.05887  0.15213  0.79663  Biso   1.000  C
  H161     1.0000 0.03607  0.11933  0.80713  Biso   1.000  H
  C241     1.0000 0.07377  0.18083  0.91813  Biso   1.000  C
  H162     1.0000 0.06117  0.16753  0.00933  Biso   1.000  H
  C242     1.0000 0.05787  0.13853  0.52773  Biso   1.000  C
  H163     1.0000 0.08397  0.14853  0.45863  Biso   1.000  H
  H164     1.0000 0.04587  0.10523  0.55433  Biso   1.000  H
  H165     1.0000 0.03207  0.14173  0.48453  Biso   1.000  H
  N34      1.0000 0.79820  0.66458  0.48837  Biso   1.000  N
  N35      1.0000 0.83444  0.60907  0.59717  Biso   1.000  N
  N36      1.0000 0.95693  0.52939  0.90837  Biso   1.000  N
  C243     1.0000 0.77712  0.69146  0.46237  Biso   1.000  C
  C244     1.0000 0.74903  0.67537  0.33297  Biso   1.000  C
  H166     1.0000 0.73163  0.68867  0.29067  Biso   1.000  H
  C245     1.0000 0.75203  0.63837  0.28417  Biso   1.000  C
  H167     1.0000 0.73663  0.61987  0.20167  Biso   1.000  H
  C246     1.0000 0.78270  0.63171  0.37927  Biso   1.000  C
  C247     1.0000 0.79137  0.59316  0.36877  Biso   1.000  C
  C248     1.0000 0.81659  0.58444  0.47067  Biso   1.000  C
  C249     1.0000 0.82876  0.54727  0.45757  Biso   1.000  C
  H168     1.0000 0.82023  0.52497  0.38157  Biso   1.000  H
  C250     1.0000 0.85458  0.55047  0.57477  Biso   1.000  C
  H169     1.0000 0.86763  0.53067  0.59667  Biso   1.000  H
  C251     1.0000 0.85872  0.58897  0.66007  Biso   1.000  C
  C252     1.0000 0.88521  0.60458  0.78727  Biso   1.000  C
  C253     1.0000 0.90995  0.57854  0.83137  Biso   1.000  C
  C254     1.0000 0.89373  0.54607  0.94017  Biso   1.000  C
  H170     1.0000 0.86603  0.53977  0.99217  Biso   1.000  H
  C255     1.0000 0.91793  0.52259  0.97357  Biso   1.000  C
  H171     1.0000 0.90573  0.49987  0.04897  Biso   1.000  H
  C256     1.0000 0.97263  0.56107  0.80087  Biso   1.000  C
  H172     1.0000 0.00033  0.56647  0.75027  Biso   1.000  H
  C257     1.0000 0.95078  0.58627  0.76057  Biso   1.000  C
  H173     1.0000 0.96353  0.60877  0.68467  Biso   1.000  H
  C258     1.0000 0.77351  0.56201  0.23887  Biso   1.000  C
  C259     1.0000 0.79030  0.57927  0.10377  Biso   1.000  C
  H174     1.0000 0.81363  0.61187  0.09257  Biso   1.000  H
  C260     1.0000 0.77403  0.55017  0.98317  Biso   1.000  C
  H175     1.0000 0.78523  0.56377  0.89127  Biso   1.000  H
  C261     1.0000 0.74273  0.50297  0.99377  Biso   1.000  C
  C262     1.0000 0.72553  0.48547  0.12997  Biso   1.000  C
  H176     1.0000 0.70273  0.45267  0.14047  Biso   1.000  H
  C263     1.0000 0.74043  0.51417  0.25147  Biso   1.000  C
  H177     1.0000 0.72783  0.50087  0.34267  Biso   1.000  H
  C264     1.0000 0.72453  0.47187  0.86107  Biso   1.000  C
  H178     1.0000 0.75063  0.48187  0.79197  Biso   1.000  H
  H179     1.0000 0.71253  0.43857  0.88767  Biso   1.000  H
  H180     1.0000 0.69873  0.47507  0.81787  Biso   1.000  H
  N37      1.0000 0.00209  0.46696  0.82170  Biso   1.000  N
  N38      1.0000 0.05760  0.55871  0.93050  Biso   1.000  N
  N39      1.0000 0.13728  0.76088  0.24170  Biso   1.000  N
  C265     1.0000 0.97521  0.41900  0.79570  Biso   1.000  C
  C266     1.0000 0.99130  0.40700  0.66630  Biso   1.000  C
  H181     1.0000 0.97800  0.37630  0.62400  Biso   1.000  H
  C267     1.0000 0.02830  0.44700  0.61750  Biso   1.000  C
  H182     1.0000 0.04680  0.45010  0.53500  Biso   1.000  H
  C268     1.0000 0.03496  0.48433  0.71260  Biso   1.000  C
  C269     1.0000 0.07351  0.53155  0.70210  Biso   1.000  C
  C270     1.0000 0.08223  0.56549  0.80400  Biso   1.000  C
  C271     1.0000 0.11940  0.61483  0.79090  Biso   1.000  C
  H183     1.0000 0.14170  0.62860  0.71490  Biso   1.000  H
  C272     1.0000 0.11620  0.63745  0.90810  Biso   1.000  C
  H184     1.0000 0.13600  0.67030  0.93000  Biso   1.000  H
  C273     1.0000 0.07770  0.60309  0.99340  Biso   1.000  C
  C274     1.0000 0.06209  0.61397  0.12060  Biso   1.000  C
  C275     1.0000 0.08813  0.66475  0.16470  Biso   1.000  C
  C276     1.0000 0.12060  0.68100  0.27350  Biso   1.000  C
  H185     1.0000 0.12690  0.65960  0.32550  Biso   1.000  H
  C277     1.0000 0.14408  0.72868  0.30690  Biso   1.000  C
  H186     1.0000 0.16680  0.73920  0.38230  Biso   1.000  H
  C278     1.0000 0.10560  0.74490  0.13420  Biso   1.000  C
  H187     1.0000 0.10020  0.76720  0.08360  Biso   1.000  H
  C279     1.0000 0.08040  0.69785  0.09390  Biso   1.000  C
  H188     1.0000 0.05790  0.68810  0.01800  Biso   1.000  H
  C280     1.0000 0.10466  0.54484  0.57220  Biso   1.000  C
  C281     1.0000 0.08740  0.54437  0.43710  Biso   1.000  C
  H189     1.0000 0.05480  0.53510  0.42590  Biso   1.000  H
  C282     1.0000 0.11650  0.55720  0.31650  Biso   1.000  C
  H190     1.0000 0.10290  0.55480  0.22460  Biso   1.000  H
  C283     1.0000 0.16370  0.57310  0.32710  Biso   1.000  C
  C284     1.0000 0.18120  0.57340  0.46330  Biso   1.000  C
  H191     1.0000 0.21400  0.58340  0.47380  Biso   1.000  H
  C285     1.0000 0.15250  0.55960  0.58480  Biso   1.000  C
  H192     1.0000 0.16580  0.56030  0.67600  Biso   1.000  H
  C286     1.0000 0.19480  0.58600  0.19440  Biso   1.000  C
  H193     1.0000 0.18480  0.60210  0.12530  Biso   1.000  H
  H194     1.0000 0.22810  0.60730  0.22100  Biso   1.000  H
  H195     1.0000 0.19160  0.55700  0.15120  Biso   1.000  H
  N40      1.0000 0.66876  0.80029  0.15503  Biso   1.000  N
  N41      1.0000 0.72427  0.89204  0.26383  Biso   1.000  N
  N42      1.0000 0.80395  0.09421  0.57503  Biso   1.000  N
  C287     1.0000 0.64188  0.75233  0.12903  Biso   1.000  C
  C288     1.0000 0.65797  0.74033  0.99963  Biso   1.000  C
  H196     1.0000 0.64467  0.70963  0.95733  Biso   1.000  H
  C289     1.0000 0.69497  0.78033  0.95083  Biso   1.000  C
  H197     1.0000 0.71347  0.78343  0.86833  Biso   1.000  H
  C290     1.0000 0.70163  0.81766  0.04593  Biso   1.000  C
  C291     1.0000 0.74018  0.86488  0.03543  Biso   1.000  C
  C292     1.0000 0.74890  0.89882  0.13733  Biso   1.000  C
  C293     1.0000 0.78607  0.94816  0.12423  Biso   1.000  C
  H198     1.0000 0.80837  0.96193  0.04823  Biso   1.000  H
  C294     1.0000 0.78287  0.97078  0.24143  Biso   1.000  C
  H199     1.0000 0.80267  0.00363  0.26333  Biso   1.000  H
  C295     1.0000 0.74437  0.93642  0.32673  Biso   1.000  C
  C296     1.0000 0.72876  0.94730  0.45393  Biso   1.000  C
  C297     1.0000 0.75480  0.99808  0.49803  Biso   1.000  C
  C298     1.0000 0.78727  0.01433  0.60683  Biso   1.000  C
  H200     1.0000 0.79357  0.99293  0.65883  Biso   1.000  H
  C299     1.0000 0.81075  0.06201  0.64023  Biso   1.000  C
  H201     1.0000 0.83347  0.07253  0.71563  Biso   1.000  H
  C300     1.0000 0.77227  0.07823  0.46753  Biso   1.000  C
  H202     1.0000 0.76687  0.10053  0.41693  Biso   1.000  H
  C301     1.0000 0.74707  0.03118  0.42723  Biso   1.000  C
  H203     1.0000 0.72457  0.02143  0.35133  Biso   1.000  H
  C302     1.0000 0.77133  0.87817  0.90553  Biso   1.000  C
  C303     1.0000 0.75407  0.87770  0.77043  Biso   1.000  C
  H204     1.0000 0.72147  0.86843  0.75923  Biso   1.000  H
  C304     1.0000 0.78317  0.89053  0.64983  Biso   1.000  C
  H205     1.0000 0.76957  0.88813  0.55793  Biso   1.000  H
  C305     1.0000 0.83037  0.90643  0.66043  Biso   1.000  C
  C306     1.0000 0.84787  0.90673  0.79663  Biso   1.000  C
  H206     1.0000 0.88067  0.91673  0.80713  Biso   1.000  H
  C307     1.0000 0.81917  0.89293  0.91813  Biso   1.000  C
  H207     1.0000 0.83247  0.89363  0.00933  Biso   1.000  H
  C308     1.0000 0.86147  0.91933  0.52773  Biso   1.000  C
  H208     1.0000 0.85147  0.93543  0.45863  Biso   1.000  H
  H209     1.0000 0.89477  0.94063  0.55433  Biso   1.000  H
  H210     1.0000 0.85827  0.89033  0.48453  Biso   1.000  H
  N43      1.0000 0.33542  0.13363  0.48837  Biso   1.000  N
  N44      1.0000 0.39093  0.22538  0.59717  Biso   1.000  N
  N45      1.0000 0.47061  0.42755  0.90837  Biso   1.000  N
  C309     1.0000 0.30854  0.08567  0.46237  Biso   1.000  C
  C310     1.0000 0.32463  0.07367  0.33297  Biso   1.000  C
  H211     1.0000 0.31133  0.04297  0.29067  Biso   1.000  H
  C311     1.0000 0.36163  0.11367  0.28417  Biso   1.000  C
  H212     1.0000 0.38013  0.11677  0.20167  Biso   1.000  H
  C312     1.0000 0.36829  0.15100  0.37927  Biso   1.000  C
  C313     1.0000 0.40684  0.19822  0.36877  Biso   1.000  C
  C314     1.0000 0.41556  0.23216  0.47067  Biso   1.000  C
  C315     1.0000 0.45273  0.28150  0.45757  Biso   1.000  C
  H213     1.0000 0.47503  0.29527  0.38157  Biso   1.000  H
  C316     1.0000 0.44953  0.30412  0.57477  Biso   1.000  C
  H214     1.0000 0.46933  0.33697  0.59667  Biso   1.000  H
  C317     1.0000 0.41103  0.26976  0.66007  Biso   1.000  C
  C318     1.0000 0.39542  0.28064  0.78727  Biso   1.000  C
  C319     1.0000 0.42146  0.33142  0.83137  Biso   1.000  C
  C320     1.0000 0.45393  0.34767  0.94017  Biso   1.000  C
  H215     1.0000 0.46023  0.32627  0.99217  Biso   1.000  H
  C321     1.0000 0.47741  0.39535  0.97357  Biso   1.000  C
  H216     1.0000 0.50013  0.40587  0.04897  Biso   1.000  H
  C322     1.0000 0.43893  0.41157  0.80087  Biso   1.000  C
  H217     1.0000 0.43353  0.43387  0.75027  Biso   1.000  H
  C323     1.0000 0.41373  0.36452  0.76057  Biso   1.000  C
  H218     1.0000 0.39123  0.35477  0.68467  Biso   1.000  H
  C324     1.0000 0.43799  0.21151  0.23887  Biso   1.000  C
  C325     1.0000 0.42073  0.21104  0.10377  Biso   1.000  C
  H219     1.0000 0.38813  0.20177  0.09257  Biso   1.000  H
  C326     1.0000 0.44983  0.22387  0.98317  Biso   1.000  C
  H220     1.0000 0.43623  0.22147  0.89127  Biso   1.000  H
  C327     1.0000 0.49703  0.23977  0.99377  Biso   1.000  C
  C328     1.0000 0.51453  0.24007  0.12997  Biso   1.000  C
  H221     1.0000 0.54733  0.25007  0.14047  Biso   1.000  H
  C329     1.0000 0.48583  0.22627  0.25147  Biso   1.000  C
  H222     1.0000 0.49913  0.22697  0.34267  Biso   1.000  H
  C330     1.0000 0.52813  0.25267  0.86107  Biso   1.000  C
  H223     1.0000 0.51813  0.26877  0.79197  Biso   1.000  H
  H224     1.0000 0.56143  0.27397  0.88767  Biso   1.000  H
  H225     1.0000 0.52493  0.22367  0.81787  Biso   1.000  H
  N46      1.0000 0.53304  0.53513  0.82170  Biso   1.000  N
  N47      1.0000 0.44129  0.49889  0.93050  Biso   1.000  N
  N48      1.0000 0.23912  0.37640  0.24170  Biso   1.000  N
  C331     1.0000 0.58100  0.55621  0.79570  Biso   1.000  C
  C332     1.0000 0.59300  0.58430  0.66630  Biso   1.000  C
  H226     1.0000 0.62370  0.60170  0.62400  Biso   1.000  H
  C333     1.0000 0.55300  0.58130  0.61750  Biso   1.000  C
  H227     1.0000 0.54990  0.59670  0.53500  Biso   1.000  H
  C334     1.0000 0.51567  0.55063  0.71260  Biso   1.000  C
  C335     1.0000 0.46845  0.54196  0.70210  Biso   1.000  C
  C336     1.0000 0.43451  0.51674  0.80400  Biso   1.000  C
  C337     1.0000 0.38517  0.50457  0.79090  Biso   1.000  C
  H228     1.0000 0.37140  0.51310  0.71490  Biso   1.000  H
  C338     1.0000 0.36255  0.47875  0.90810  Biso   1.000  C
  H229     1.0000 0.32970  0.46570  0.93000  Biso   1.000  H
  C339     1.0000 0.39691  0.47461  0.99340  Biso   1.000  C
  C340     1.0000 0.38603  0.44812  0.12060  Biso   1.000  C
  C341     1.0000 0.33525  0.42338  0.16470  Biso   1.000  C
  C342     1.0000 0.31900  0.43960  0.27350  Biso   1.000  C
  H230     1.0000 0.34040  0.46730  0.32550  Biso   1.000  H
  C343     1.0000 0.27132  0.41540  0.30690  Biso   1.000  C
  H231     1.0000 0.26080  0.42760  0.38230  Biso   1.000  H
  C344     1.0000 0.25510  0.36070  0.13420  Biso   1.000  C
  H232     1.0000 0.23280  0.33300  0.08360  Biso   1.000  H
  C345     1.0000 0.30215  0.38255  0.09390  Biso   1.000  C
  H233     1.0000 0.31190  0.36980  0.01800  Biso   1.000  H
  C346     1.0000 0.45516  0.55982  0.57220  Biso   1.000  C
  C347     1.0000 0.45563  0.54303  0.43710  Biso   1.000  C
  H234     1.0000 0.46490  0.51970  0.42590  Biso   1.000  H
  C348     1.0000 0.44280  0.55930  0.31650  Biso   1.000  C
  H235     1.0000 0.44520  0.54810  0.22460  Biso   1.000  H
  C349     1.0000 0.42690  0.59060  0.32710  Biso   1.000  C
  C350     1.0000 0.42660  0.60780  0.46330  Biso   1.000  C
  H236     1.0000 0.41660  0.63060  0.47380  Biso   1.000  H
  C351     1.0000 0.44040  0.59290  0.58480  Biso   1.000  C
  H237     1.0000 0.43970  0.60550  0.67600  Biso   1.000  H
  C352     1.0000 0.41400  0.60880  0.19440  Biso   1.000  C
  H238     1.0000 0.39790  0.58270  0.12530  Biso   1.000  H
  H239     1.0000 0.39270  0.62080  0.22100  Biso   1.000  H
  H240     1.0000 0.44300  0.63460  0.15120  Biso   1.000  H
  N49      1.0000 0.19971  0.86846  0.15503  Biso   1.000  N
  N50      1.0000 0.10796  0.83222  0.26383  Biso   1.000  N
  N51      1.0000 0.90579  0.70973  0.57503  Biso   1.000  N
  C353     1.0000 0.24767  0.88954  0.12903  Biso   1.000  C
  C354     1.0000 0.25967  0.91763  0.99963  Biso   1.000  C
  H241     1.0000 0.29037  0.93503  0.95733  Biso   1.000  H
  C355     1.0000 0.21967  0.91463  0.95083  Biso   1.000  C
  H242     1.0000 0.21657  0.93003  0.86833  Biso   1.000  H
  C356     1.0000 0.18234  0.88396  0.04593  Biso   1.000  C
  C357     1.0000 0.13512  0.87529  0.03543  Biso   1.000  C
  C358     1.0000 0.10118  0.85007  0.13733  Biso   1.000  C
  C359     1.0000 0.05184  0.83790  0.12423  Biso   1.000  C
  H243     1.0000 0.03807  0.84643  0.04823  Biso   1.000  H
  C360     1.0000 0.02922  0.81208  0.24143  Biso   1.000  C
  H244     1.0000 0.99637  0.79903  0.26333  Biso   1.000  H
  C361     1.0000 0.06358  0.80794  0.32673  Biso   1.000  C
  C362     1.0000 0.05270  0.78145  0.45393  Biso   1.000  C
  C363     1.0000 0.00192  0.75671  0.49803  Biso   1.000  C
  C364     1.0000 0.98567  0.77293  0.60683  Biso   1.000  C
  H245     1.0000 0.00707  0.80063  0.65883  Biso   1.000  H
  C365     1.0000 0.93799  0.74873  0.64023  Biso   1.000  C
  H246     1.0000 0.92747  0.76093  0.71563  Biso   1.000  H
  C366     1.0000 0.92177  0.69403  0.46753  Biso   1.000  C
  H247     1.0000 0.89947  0.66633  0.41693  Biso   1.000  H
  C367     1.0000 0.96882  0.71588  0.42723  Biso   1.000  C
  H248     1.0000 0.97857  0.70313  0.35133  Biso   1.000  H
  C368     1.0000 0.12183  0.89315  0.90553  Biso   1.000  C
  C369     1.0000 0.12230  0.87636  0.77043  Biso   1.000  C
  H249     1.0000 0.13157  0.85303  0.75923  Biso   1.000  H
  C370     1.0000 0.10947  0.89263  0.64983  Biso   1.000  C
  H250     1.0000 0.11187  0.88143  0.55793  Biso   1.000  H
  C371     1.0000 0.09357  0.92393  0.66043  Biso   1.000  C
  C372     1.0000 0.09327  0.94113  0.79663  Biso   1.000  C
  H251     1.0000 0.08327  0.96393  0.80713  Biso   1.000  H
  C373     1.0000 0.10707  0.92623  0.91813  Biso   1.000  C
  H252     1.0000 0.10637  0.93883  0.00933  Biso   1.000  H
  C374     1.0000 0.08067  0.94213  0.52773  Biso   1.000  C
  H253     1.0000 0.06457  0.91603  0.45863  Biso   1.000  H
  H254     1.0000 0.05937  0.95413  0.55433  Biso   1.000  H
  H255     1.0000 0.10967  0.96793  0.48453  Biso   1.000  H
  N52      1.0000 0.86637  0.20180  0.48837  Biso   1.000  N
  N53      1.0000 0.77462  0.16556  0.59717  Biso   1.000  N
  N54      1.0000 0.57245  0.04307  0.90837  Biso   1.000  N
  C375     1.0000 0.91433  0.22288  0.46237  Biso   1.000  C
  C376     1.0000 0.92633  0.25097  0.33297  Biso   1.000  C
  H256     1.0000 0.95703  0.26837  0.29067  Biso   1.000  H
  C377     1.0000 0.88633  0.24797  0.28417  Biso   1.000  C
  H257     1.0000 0.88323  0.26337  0.20167  Biso   1.000  H
  C378     1.0000 0.84900  0.21730  0.37927  Biso   1.000  C
  C379     1.0000 0.80178  0.20863  0.36877  Biso   1.000  C
  C380     1.0000 0.76784  0.18341  0.47067  Biso   1.000  C
  C381     1.0000 0.71850  0.17124  0.45757  Biso   1.000  C
  H258     1.0000 0.70473  0.17977  0.38157  Biso   1.000  H
  C382     1.0000 0.69588  0.14542  0.57477  Biso   1.000  C
  H259     1.0000 0.66303  0.13237  0.59667  Biso   1.000  H
  C383     1.0000 0.73024  0.14128  0.66007  Biso   1.000  C
  C384     1.0000 0.71936  0.11479  0.78727  Biso   1.000  C
  C385     1.0000 0.66858  0.09005  0.83137  Biso   1.000  C
  C386     1.0000 0.65233  0.10627  0.94017  Biso   1.000  C
  H260     1.0000 0.67373  0.13397  0.99217  Biso   1.000  H
  C387     1.0000 0.60465  0.08207  0.97357  Biso   1.000  C
  H261     1.0000 0.59413  0.09427  0.04897  Biso   1.000  H
  C388     1.0000 0.58843  0.02737  0.80087  Biso   1.000  C
  H262     1.0000 0.56613  0.99967  0.75027  Biso   1.000  H
  C389     1.0000 0.63548  0.04922  0.76057  Biso   1.000  C
  H263     1.0000 0.64523  0.03647  0.68467  Biso   1.000  H
  C390     1.0000 0.78849  0.22649  0.23887  Biso   1.000  C
  C391     1.0000 0.78896  0.20970  0.10377  Biso   1.000  C
  H264     1.0000 0.79823  0.18637  0.09257  Biso   1.000  H
  C392     1.0000 0.77613  0.22597  0.98317  Biso   1.000  C
  H265     1.0000 0.77853  0.21477  0.89127  Biso   1.000  H
  C393     1.0000 0.76023  0.25727  0.99377  Biso   1.000  C
  C394     1.0000 0.75993  0.27447  0.12997  Biso   1.000  C
  H266     1.0000 0.74993  0.29727  0.14047  Biso   1.000  H
  C395     1.0000 0.77373  0.25957  0.25147  Biso   1.000  C
  H267     1.0000 0.77303  0.27217  0.34267  Biso   1.000  H
  C396     1.0000 0.74733  0.27547  0.86107  Biso   1.000  C
  H268     1.0000 0.73123  0.24937  0.79197  Biso   1.000  H
  H269     1.0000 0.72603  0.28747  0.88767  Biso   1.000  H
  H270     1.0000 0.77633  0.30127  0.81787  Biso   1.000  H
  Co1      1.0000 0.50000  0.00000  0.00000  Biso   1.000  Co
  Co2      1.0000 0.16667  0.33333  0.33333  Biso   1.000  Co
  Co3      1.0000 0.83333  0.66667  0.66667  Biso   1.000  Co
  Co4      1.0000 0.00000  0.50000  0.00000  Biso   1.000  Co
  Co5      1.0000 0.66667  0.83333  0.33333  Biso   1.000  Co
  Co6      1.0000 0.33333  0.16667  0.66667  Biso   1.000  Co
  Co7      1.0000 0.50000  0.50000  0.00000  Biso   1.000  Co
  Co8      1.0000 0.16667  0.83333  0.33333  Biso   1.000  Co
  Co9      1.0000 0.83333  0.16667  0.66667  Biso   1.000  Co
