data_image0
_cell_length_a       26.292
_cell_length_b       26.292
_cell_length_c       26.292
_cell_angle_alpha    90
_cell_angle_beta     90
_cell_angle_gamma    90

_symmetry_space_group_name_H-M    "P 1"
_symmetry_int_tables_number       1

loop_
  _symmetry_equiv_pos_as_xyz
  'x, y, z'

loop_
  _atom_site_label
  _atom_site_occupancy
  _atom_site_fract_x
  _atom_site_fract_y
  _atom_site_fract_z
  _atom_site_thermal_displace_type
  _atom_site_B_iso_or_equiv
  _atom_site_type_symbol
  Li1      1.0000 0.74464  0.60960  0.89129  Biso   1.000  Li
  B1       1.0000 0.74894  0.59999  0.10198  Biso   1.000  B
  N1       1.0000 0.75752  0.62182  0.04809  Biso   1.000  N
  N2       1.0000 0.75276  0.63373  0.96430  Biso   1.000  N
  C1       1.0000 0.73868  0.60470  0.00334  Biso   1.000  C
  H1       1.0000 0.71780  0.57540  0.00020  Biso   1.000  H
  C2       1.0000 0.78211  0.67209  0.98536  Biso   1.000  C
  C3       1.0000 0.78459  0.66533  0.03631  Biso   1.000  C
  H2       1.0000 0.80190  0.68670  0.05980  Biso   1.000  H
  C4       1.0000 0.80416  0.71301  0.95410  Biso   1.000  C
  H3       1.0000 0.77740  0.72850  0.93330  Biso   1.000  H
  H4       1.0000 0.83050  0.69880  0.93190  Biso   1.000  H
  H5       1.0000 0.81920  0.73890  0.97630  Biso   1.000  H
  N3       1.0000 0.72468  0.54629  0.09824  Biso   1.000  N
  N4       1.0000 0.71594  0.46214  0.10300  Biso   1.000  N
  C5       1.0000 0.74646  0.50132  0.10859  Biso   1.000  C
  H6       1.0000 0.78090  0.49810  0.11900  Biso   1.000  H
  C6       1.0000 0.67014  0.48341  0.08795  Biso   1.000  C
  C7       1.0000 0.67547  0.53456  0.08558  Biso   1.000  C
  H7       1.0000 0.64960  0.55820  0.07670  Biso   1.000  H
  C8       1.0000 0.62489  0.45026  0.07747  Biso   1.000  C
  H8       1.0000 0.63180  0.42880  0.04780  Biso   1.000  H
  H9       1.0000 0.59510  0.47160  0.07070  Biso   1.000  H
  H10      1.0000 0.61820  0.42870  0.10710  Biso   1.000  H
  N5       1.0000 0.80094  0.59650  0.12766  Biso   1.000  N
  N6       1.0000 0.86293  0.60121  0.18538  Biso   1.000  N
  C9       1.0000 0.81418  0.60941  0.17475  Biso   1.000  C
  H11      1.0000 0.79090  0.62330  0.19860  Biso   1.000  H
  C10      1.0000 0.88368  0.58142  0.14106  Biso   1.000  C
  C11      1.0000 0.84530  0.57793  0.10542  Biso   1.000  C
  H12      1.0000 0.84860  0.56520  0.07180  Biso   1.000  H
  C12      1.0000 0.93819  0.56694  0.13529  Biso   1.000  C
  H13      1.0000 0.95890  0.59770  0.13190  Biso   1.000  H
  H14      1.0000 0.94230  0.54580  0.10490  Biso   1.000  H
  H15      1.0000 0.94920  0.54780  0.16530  Biso   1.000  H
  N7       1.0000 0.71222  0.63427  0.13078  Biso   1.000  N
  N8       1.0000 0.65709  0.69725  0.14561  Biso   1.000  N
  C13      1.0000 0.69029  0.67719  0.11415  Biso   1.000  C
  H16      1.0000 0.69810  0.69190  0.08210  Biso   1.000  H
  C14      1.0000 0.65661  0.66457  0.18676  Biso   1.000  C
  C15      1.0000 0.68908  0.62611  0.17827  Biso   1.000  C
  H17      1.0000 0.69530  0.59830  0.20050  Biso   1.000  H
  C16      1.0000 0.62427  0.67411  0.23093  Biso   1.000  C
  H18      1.0000 0.62770  0.64600  0.25510  Biso   1.000  H
  H19      1.0000 0.58870  0.67680  0.22000  Biso   1.000  H
  H20      1.0000 0.63470  0.70590  0.24730  Biso   1.000  H
  Li2      1.0000 0.25536  0.39040  0.89129  Biso   1.000  Li
  B2       1.0000 0.25106  0.40001  0.10198  Biso   1.000  B
  N9       1.0000 0.24248  0.37818  0.04809  Biso   1.000  N
  N10      1.0000 0.24724  0.36627  0.96430  Biso   1.000  N
  C17      1.0000 0.26132  0.39530  0.00334  Biso   1.000  C
  H21      1.0000 0.28220  0.42460  0.00020  Biso   1.000  H
  C18      1.0000 0.21789  0.32791  0.98536  Biso   1.000  C
  C19      1.0000 0.21541  0.33467  0.03631  Biso   1.000  C
  H22      1.0000 0.19810  0.31330  0.05980  Biso   1.000  H
  C20      1.0000 0.19584  0.28699  0.95410  Biso   1.000  C
  H23      1.0000 0.22260  0.27150  0.93330  Biso   1.000  H
  H24      1.0000 0.16950  0.30120  0.93190  Biso   1.000  H
  H25      1.0000 0.18080  0.26110  0.97630  Biso   1.000  H
  N11      1.0000 0.27532  0.45371  0.09824  Biso   1.000  N
  N12      1.0000 0.28406  0.53786  0.10300  Biso   1.000  N
  C21      1.0000 0.25354  0.49868  0.10859  Biso   1.000  C
  H26      1.0000 0.21910  0.50190  0.11900  Biso   1.000  H
  C22      1.0000 0.32986  0.51659  0.08795  Biso   1.000  C
  C23      1.0000 0.32453  0.46544  0.08558  Biso   1.000  C
  H27      1.0000 0.35040  0.44180  0.07670  Biso   1.000  H
  C24      1.0000 0.37511  0.54974  0.07747  Biso   1.000  C
  H28      1.0000 0.36820  0.57120  0.04780  Biso   1.000  H
  H29      1.0000 0.40490  0.52840  0.07070  Biso   1.000  H
  H30      1.0000 0.38180  0.57130  0.10710  Biso   1.000  H
  N13      1.0000 0.19906  0.40350  0.12766  Biso   1.000  N
  N14      1.0000 0.13707  0.39879  0.18538  Biso   1.000  N
  C25      1.0000 0.18582  0.39059  0.17475  Biso   1.000  C
  H31      1.0000 0.20910  0.37670  0.19860  Biso   1.000  H
  C26      1.0000 0.11632  0.41858  0.14106  Biso   1.000  C
  C27      1.0000 0.15470  0.42207  0.10542  Biso   1.000  C
  H32      1.0000 0.15140  0.43480  0.07180  Biso   1.000  H
  C28      1.0000 0.06181  0.43306  0.13529  Biso   1.000  C
  H33      1.0000 0.04110  0.40230  0.13190  Biso   1.000  H
  H34      1.0000 0.05770  0.45420  0.10490  Biso   1.000  H
  H35      1.0000 0.05080  0.45220  0.16530  Biso   1.000  H
  N15      1.0000 0.28778  0.36573  0.13078  Biso   1.000  N
  N16      1.0000 0.34291  0.30275  0.14561  Biso   1.000  N
  C29      1.0000 0.30971  0.32281  0.11415  Biso   1.000  C
  H36      1.0000 0.30190  0.30810  0.08210  Biso   1.000  H
  C30      1.0000 0.34339  0.33543  0.18676  Biso   1.000  C
  C31      1.0000 0.31092  0.37389  0.17827  Biso   1.000  C
  H37      1.0000 0.30470  0.40170  0.20050  Biso   1.000  H
  C32      1.0000 0.37573  0.32589  0.23093  Biso   1.000  C
  H38      1.0000 0.37230  0.35400  0.25510  Biso   1.000  H
  H39      1.0000 0.41130  0.32320  0.22000  Biso   1.000  H
  H40      1.0000 0.36530  0.29410  0.24730  Biso   1.000  H
  Li3      1.0000 0.25536  0.60960  0.10871  Biso   1.000  Li
  B3       1.0000 0.25106  0.59999  0.89802  Biso   1.000  B
  N17      1.0000 0.24248  0.62182  0.95191  Biso   1.000  N
  N18      1.0000 0.24724  0.63373  0.03570  Biso   1.000  N
  C33      1.0000 0.26132  0.60470  0.99666  Biso   1.000  C
  H41      1.0000 0.28220  0.57540  0.99980  Biso   1.000  H
  C34      1.0000 0.21789  0.67209  0.01464  Biso   1.000  C
  C35      1.0000 0.21541  0.66533  0.96369  Biso   1.000  C
  H42      1.0000 0.19810  0.68670  0.94020  Biso   1.000  H
  C36      1.0000 0.19584  0.71301  0.04590  Biso   1.000  C
  H43      1.0000 0.22260  0.72850  0.06670  Biso   1.000  H
  H44      1.0000 0.16950  0.69880  0.06810  Biso   1.000  H
  H45      1.0000 0.18080  0.73890  0.02370  Biso   1.000  H
  N19      1.0000 0.27532  0.54629  0.90176  Biso   1.000  N
  N20      1.0000 0.28406  0.46214  0.89700  Biso   1.000  N
  C37      1.0000 0.25354  0.50132  0.89141  Biso   1.000  C
  H46      1.0000 0.21910  0.49810  0.88100  Biso   1.000  H
  C38      1.0000 0.32986  0.48341  0.91205  Biso   1.000  C
  C39      1.0000 0.32453  0.53456  0.91442  Biso   1.000  C
  H47      1.0000 0.35040  0.55820  0.92330  Biso   1.000  H
  C40      1.0000 0.37511  0.45026  0.92253  Biso   1.000  C
  H48      1.0000 0.36820  0.42880  0.95220  Biso   1.000  H
  H49      1.0000 0.40490  0.47160  0.92930  Biso   1.000  H
  H50      1.0000 0.38180  0.42870  0.89290  Biso   1.000  H
  N21      1.0000 0.19906  0.59650  0.87234  Biso   1.000  N
  N22      1.0000 0.13707  0.60121  0.81462  Biso   1.000  N
  C41      1.0000 0.18582  0.60941  0.82525  Biso   1.000  C
  H51      1.0000 0.20910  0.62330  0.80140  Biso   1.000  H
  C42      1.0000 0.11632  0.58142  0.85894  Biso   1.000  C
  C43      1.0000 0.15470  0.57793  0.89458  Biso   1.000  C
  H52      1.0000 0.15140  0.56520  0.92820  Biso   1.000  H
  C44      1.0000 0.06181  0.56694  0.86471  Biso   1.000  C
  H53      1.0000 0.04110  0.59770  0.86810  Biso   1.000  H
  H54      1.0000 0.05770  0.54580  0.89510  Biso   1.000  H
  H55      1.0000 0.05080  0.54780  0.83470  Biso   1.000  H
  N23      1.0000 0.28778  0.63427  0.86922  Biso   1.000  N
  N24      1.0000 0.34291  0.69725  0.85439  Biso   1.000  N
  C45      1.0000 0.30971  0.67719  0.88585  Biso   1.000  C
  H56      1.0000 0.30190  0.69190  0.91790  Biso   1.000  H
  C46      1.0000 0.34339  0.66457  0.81324  Biso   1.000  C
  C47      1.0000 0.31092  0.62611  0.82173  Biso   1.000  C
  H57      1.0000 0.30470  0.59830  0.79950  Biso   1.000  H
  C48      1.0000 0.37573  0.67411  0.76907  Biso   1.000  C
  H58      1.0000 0.37230  0.64600  0.74490  Biso   1.000  H
  H59      1.0000 0.41130  0.67680  0.78000  Biso   1.000  H
  H60      1.0000 0.36530  0.70590  0.75270  Biso   1.000  H
  Li4      1.0000 0.74464  0.39040  0.10871  Biso   1.000  Li
  B4       1.0000 0.74894  0.40001  0.89802  Biso   1.000  B
  N25      1.0000 0.75752  0.37818  0.95191  Biso   1.000  N
  N26      1.0000 0.75276  0.36627  0.03570  Biso   1.000  N
  C49      1.0000 0.73868  0.39530  0.99666  Biso   1.000  C
  H61      1.0000 0.71780  0.42460  0.99980  Biso   1.000  H
  C50      1.0000 0.78211  0.32791  0.01464  Biso   1.000  C
  C51      1.0000 0.78459  0.33467  0.96369  Biso   1.000  C
  H62      1.0000 0.80190  0.31330  0.94020  Biso   1.000  H
  C52      1.0000 0.80416  0.28699  0.04590  Biso   1.000  C
  H63      1.0000 0.77740  0.27150  0.06670  Biso   1.000  H
  H64      1.0000 0.83050  0.30120  0.06810  Biso   1.000  H
  H65      1.0000 0.81920  0.26110  0.02370  Biso   1.000  H
  N27      1.0000 0.72468  0.45371  0.90176  Biso   1.000  N
  N28      1.0000 0.71594  0.53786  0.89700  Biso   1.000  N
  C53      1.0000 0.74646  0.49868  0.89141  Biso   1.000  C
  H66      1.0000 0.78090  0.50190  0.88100  Biso   1.000  H
  C54      1.0000 0.67014  0.51659  0.91205  Biso   1.000  C
  C55      1.0000 0.67547  0.46544  0.91442  Biso   1.000  C
  H67      1.0000 0.64960  0.44180  0.92330  Biso   1.000  H
  C56      1.0000 0.62489  0.54974  0.92253  Biso   1.000  C
  H68      1.0000 0.63180  0.57120  0.95220  Biso   1.000  H
  H69      1.0000 0.59510  0.52840  0.92930  Biso   1.000  H
  H70      1.0000 0.61820  0.57130  0.89290  Biso   1.000  H
  N29      1.0000 0.80094  0.40350  0.87234  Biso   1.000  N
  N30      1.0000 0.86293  0.39879  0.81462  Biso   1.000  N
  C57      1.0000 0.81418  0.39059  0.82525  Biso   1.000  C
  H71      1.0000 0.79090  0.37670  0.80140  Biso   1.000  H
  C58      1.0000 0.88368  0.41858  0.85894  Biso   1.000  C
  C59      1.0000 0.84530  0.42207  0.89458  Biso   1.000  C
  H72      1.0000 0.84860  0.43480  0.92820  Biso   1.000  H
  C60      1.0000 0.93819  0.43306  0.86471  Biso   1.000  C
  H73      1.0000 0.95890  0.40230  0.86810  Biso   1.000  H
  H74      1.0000 0.94230  0.45420  0.89510  Biso   1.000  H
  H75      1.0000 0.94920  0.45220  0.83470  Biso   1.000  H
  N31      1.0000 0.71222  0.36573  0.86922  Biso   1.000  N
  N32      1.0000 0.65709  0.30275  0.85439  Biso   1.000  N
  C61      1.0000 0.69029  0.32281  0.88585  Biso   1.000  C
  H76      1.0000 0.69810  0.30810  0.91790  Biso   1.000  H
  C62      1.0000 0.65661  0.33543  0.81324  Biso   1.000  C
  C63      1.0000 0.68908  0.37389  0.82173  Biso   1.000  C
  H77      1.0000 0.69530  0.40170  0.79950  Biso   1.000  H
  C64      1.0000 0.62427  0.32589  0.76907  Biso   1.000  C
  H78      1.0000 0.62770  0.35400  0.74490  Biso   1.000  H
  H79      1.0000 0.58870  0.32320  0.78000  Biso   1.000  H
  H80      1.0000 0.63470  0.29410  0.75270  Biso   1.000  H
  Li5      1.0000 0.89129  0.74464  0.60960  Biso   1.000  Li
  B5       1.0000 0.10198  0.74894  0.59999  Biso   1.000  B
  N33      1.0000 0.04809  0.75752  0.62182  Biso   1.000  N
  N34      1.0000 0.96430  0.75276  0.63373  Biso   1.000  N
  C65      1.0000 0.00334  0.73868  0.60470  Biso   1.000  C
  H81      1.0000 0.00020  0.71780  0.57540  Biso   1.000  H
  C66      1.0000 0.98536  0.78211  0.67209  Biso   1.000  C
  C67      1.0000 0.03631  0.78459  0.66533  Biso   1.000  C
  H82      1.0000 0.05980  0.80190  0.68670  Biso   1.000  H
  C68      1.0000 0.95410  0.80416  0.71301  Biso   1.000  C
  H83      1.0000 0.93330  0.77740  0.72850  Biso   1.000  H
  H84      1.0000 0.93190  0.83050  0.69880  Biso   1.000  H
  H85      1.0000 0.97630  0.81920  0.73890  Biso   1.000  H
  N35      1.0000 0.09824  0.72468  0.54629  Biso   1.000  N
  N36      1.0000 0.10300  0.71594  0.46214  Biso   1.000  N
  C69      1.0000 0.10859  0.74646  0.50132  Biso   1.000  C
  H86      1.0000 0.11900  0.78090  0.49810  Biso   1.000  H
  C70      1.0000 0.08795  0.67014  0.48341  Biso   1.000  C
  C71      1.0000 0.08558  0.67547  0.53456  Biso   1.000  C
  H87      1.0000 0.07670  0.64960  0.55820  Biso   1.000  H
  C72      1.0000 0.07747  0.62489  0.45026  Biso   1.000  C
  H88      1.0000 0.04780  0.63180  0.42880  Biso   1.000  H
  H89      1.0000 0.07070  0.59510  0.47160  Biso   1.000  H
  H90      1.0000 0.10710  0.61820  0.42870  Biso   1.000  H
  N37      1.0000 0.12766  0.80094  0.59650  Biso   1.000  N
  N38      1.0000 0.18538  0.86293  0.60121  Biso   1.000  N
  C73      1.0000 0.17475  0.81418  0.60941  Biso   1.000  C
  H91      1.0000 0.19860  0.79090  0.62330  Biso   1.000  H
  C74      1.0000 0.14106  0.88368  0.58142  Biso   1.000  C
  C75      1.0000 0.10542  0.84530  0.57793  Biso   1.000  C
  H92      1.0000 0.07180  0.84860  0.56520  Biso   1.000  H
  C76      1.0000 0.13529  0.93819  0.56694  Biso   1.000  C
  H93      1.0000 0.13190  0.95890  0.59770  Biso   1.000  H
  H94      1.0000 0.10490  0.94230  0.54580  Biso   1.000  H
  H95      1.0000 0.16530  0.94920  0.54780  Biso   1.000  H
  N39      1.0000 0.13078  0.71222  0.63427  Biso   1.000  N
  N40      1.0000 0.14561  0.65709  0.69725  Biso   1.000  N
  C77      1.0000 0.11415  0.69029  0.67719  Biso   1.000  C
  H96      1.0000 0.08210  0.69810  0.69190  Biso   1.000  H
  C78      1.0000 0.18676  0.65661  0.66457  Biso   1.000  C
  C79      1.0000 0.17827  0.68908  0.62611  Biso   1.000  C
  H97      1.0000 0.20050  0.69530  0.59830  Biso   1.000  H
  C80      1.0000 0.23093  0.62427  0.67411  Biso   1.000  C
  H98      1.0000 0.25510  0.62770  0.64600  Biso   1.000  H
  H99      1.0000 0.22000  0.58870  0.67680  Biso   1.000  H
  H100     1.0000 0.24730  0.63470  0.70590  Biso   1.000  H
  Li6      1.0000 0.89129  0.25536  0.39040  Biso   1.000  Li
  B6       1.0000 0.10198  0.25106  0.40001  Biso   1.000  B
  N41      1.0000 0.04809  0.24248  0.37818  Biso   1.000  N
  N42      1.0000 0.96430  0.24724  0.36627  Biso   1.000  N
  C81      1.0000 0.00334  0.26132  0.39530  Biso   1.000  C
  H101     1.0000 0.00020  0.28220  0.42460  Biso   1.000  H
  C82      1.0000 0.98536  0.21789  0.32791  Biso   1.000  C
  C83      1.0000 0.03631  0.21541  0.33467  Biso   1.000  C
  H102     1.0000 0.05980  0.19810  0.31330  Biso   1.000  H
  C84      1.0000 0.95410  0.19584  0.28699  Biso   1.000  C
  H103     1.0000 0.93330  0.22260  0.27150  Biso   1.000  H
  H104     1.0000 0.93190  0.16950  0.30120  Biso   1.000  H
  H105     1.0000 0.97630  0.18080  0.26110  Biso   1.000  H
  N43      1.0000 0.09824  0.27532  0.45371  Biso   1.000  N
  N44      1.0000 0.10300  0.28406  0.53786  Biso   1.000  N
  C85      1.0000 0.10859  0.25354  0.49868  Biso   1.000  C
  H106     1.0000 0.11900  0.21910  0.50190  Biso   1.000  H
  C86      1.0000 0.08795  0.32986  0.51659  Biso   1.000  C
  C87      1.0000 0.08558  0.32453  0.46544  Biso   1.000  C
  H107     1.0000 0.07670  0.35040  0.44180  Biso   1.000  H
  C88      1.0000 0.07747  0.37511  0.54974  Biso   1.000  C
  H108     1.0000 0.04780  0.36820  0.57120  Biso   1.000  H
  H109     1.0000 0.07070  0.40490  0.52840  Biso   1.000  H
  H110     1.0000 0.10710  0.38180  0.57130  Biso   1.000  H
  N45      1.0000 0.12766  0.19906  0.40350  Biso   1.000  N
  N46      1.0000 0.18538  0.13707  0.39879  Biso   1.000  N
  C89      1.0000 0.17475  0.18582  0.39059  Biso   1.000  C
  H111     1.0000 0.19860  0.20910  0.37670  Biso   1.000  H
  C90      1.0000 0.14106  0.11632  0.41858  Biso   1.000  C
  C91      1.0000 0.10542  0.15470  0.42207  Biso   1.000  C
  H112     1.0000 0.07180  0.15140  0.43480  Biso   1.000  H
  C92      1.0000 0.13529  0.06181  0.43306  Biso   1.000  C
  H113     1.0000 0.13190  0.04110  0.40230  Biso   1.000  H
  H114     1.0000 0.10490  0.05770  0.45420  Biso   1.000  H
  H115     1.0000 0.16530  0.05080  0.45220  Biso   1.000  H
  N47      1.0000 0.13078  0.28778  0.36573  Biso   1.000  N
  N48      1.0000 0.14561  0.34291  0.30275  Biso   1.000  N
  C93      1.0000 0.11415  0.30971  0.32281  Biso   1.000  C
  H116     1.0000 0.08210  0.30190  0.30810  Biso   1.000  H
  C94      1.0000 0.18676  0.34339  0.33543  Biso   1.000  C
  C95      1.0000 0.17827  0.31092  0.37389  Biso   1.000  C
  H117     1.0000 0.20050  0.30470  0.40170  Biso   1.000  H
  C96      1.0000 0.23093  0.37573  0.32589  Biso   1.000  C
  H118     1.0000 0.25510  0.37230  0.35400  Biso   1.000  H
  H119     1.0000 0.22000  0.41130  0.32320  Biso   1.000  H
  H120     1.0000 0.24730  0.36530  0.29410  Biso   1.000  H
  Li7      1.0000 0.10871  0.25536  0.60960  Biso   1.000  Li
  B7       1.0000 0.89802  0.25106  0.59999  Biso   1.000  B
  N49      1.0000 0.95191  0.24248  0.62182  Biso   1.000  N
  N50      1.0000 0.03570  0.24724  0.63373  Biso   1.000  N
  C97      1.0000 0.99666  0.26132  0.60470  Biso   1.000  C
  H121     1.0000 0.99980  0.28220  0.57540  Biso   1.000  H
  C98      1.0000 0.01464  0.21789  0.67209  Biso   1.000  C
  C99      1.0000 0.96369  0.21541  0.66533  Biso   1.000  C
  H122     1.0000 0.94020  0.19810  0.68670  Biso   1.000  H
  C100     1.0000 0.04590  0.19584  0.71301  Biso   1.000  C
  H123     1.0000 0.06670  0.22260  0.72850  Biso   1.000  H
  H124     1.0000 0.06810  0.16950  0.69880  Biso   1.000  H
  H125     1.0000 0.02370  0.18080  0.73890  Biso   1.000  H
  N51      1.0000 0.90176  0.27532  0.54629  Biso   1.000  N
  N52      1.0000 0.89700  0.28406  0.46214  Biso   1.000  N
  C101     1.0000 0.89141  0.25354  0.50132  Biso   1.000  C
  H126     1.0000 0.88100  0.21910  0.49810  Biso   1.000  H
  C102     1.0000 0.91205  0.32986  0.48341  Biso   1.000  C
  C103     1.0000 0.91442  0.32453  0.53456  Biso   1.000  C
  H127     1.0000 0.92330  0.35040  0.55820  Biso   1.000  H
  C104     1.0000 0.92253  0.37511  0.45026  Biso   1.000  C
  H128     1.0000 0.95220  0.36820  0.42880  Biso   1.000  H
  H129     1.0000 0.92930  0.40490  0.47160  Biso   1.000  H
  H130     1.0000 0.89290  0.38180  0.42870  Biso   1.000  H
  N53      1.0000 0.87234  0.19906  0.59650  Biso   1.000  N
  N54      1.0000 0.81462  0.13707  0.60121  Biso   1.000  N
  C105     1.0000 0.82525  0.18582  0.60941  Biso   1.000  C
  H131     1.0000 0.80140  0.20910  0.62330  Biso   1.000  H
  C106     1.0000 0.85894  0.11632  0.58142  Biso   1.000  C
  C107     1.0000 0.89458  0.15470  0.57793  Biso   1.000  C
  H132     1.0000 0.92820  0.15140  0.56520  Biso   1.000  H
  C108     1.0000 0.86471  0.06181  0.56694  Biso   1.000  C
  H133     1.0000 0.86810  0.04110  0.59770  Biso   1.000  H
  H134     1.0000 0.89510  0.05770  0.54580  Biso   1.000  H
  H135     1.0000 0.83470  0.05080  0.54780  Biso   1.000  H
  N55      1.0000 0.86922  0.28778  0.63427  Biso   1.000  N
  N56      1.0000 0.85439  0.34291  0.69725  Biso   1.000  N
  C109     1.0000 0.88585  0.30971  0.67719  Biso   1.000  C
  H136     1.0000 0.91790  0.30190  0.69190  Biso   1.000  H
  C110     1.0000 0.81324  0.34339  0.66457  Biso   1.000  C
  C111     1.0000 0.82173  0.31092  0.62611  Biso   1.000  C
  H137     1.0000 0.79950  0.30470  0.59830  Biso   1.000  H
  C112     1.0000 0.76907  0.37573  0.67411  Biso   1.000  C
  H138     1.0000 0.74490  0.37230  0.64600  Biso   1.000  H
  H139     1.0000 0.78000  0.41130  0.67680  Biso   1.000  H
  H140     1.0000 0.75270  0.36530  0.70590  Biso   1.000  H
  Li8      1.0000 0.10871  0.74464  0.39040  Biso   1.000  Li
  B8       1.0000 0.89802  0.74894  0.40001  Biso   1.000  B
  N57      1.0000 0.95191  0.75752  0.37818  Biso   1.000  N
  N58      1.0000 0.03570  0.75276  0.36627  Biso   1.000  N
  C113     1.0000 0.99666  0.73868  0.39530  Biso   1.000  C
  H141     1.0000 0.99980  0.71780  0.42460  Biso   1.000  H
  C114     1.0000 0.01464  0.78211  0.32791  Biso   1.000  C
  C115     1.0000 0.96369  0.78459  0.33467  Biso   1.000  C
  H142     1.0000 0.94020  0.80190  0.31330  Biso   1.000  H
  C116     1.0000 0.04590  0.80416  0.28699  Biso   1.000  C
  H143     1.0000 0.06670  0.77740  0.27150  Biso   1.000  H
  H144     1.0000 0.06810  0.83050  0.30120  Biso   1.000  H
  H145     1.0000 0.02370  0.81920  0.26110  Biso   1.000  H
  N59      1.0000 0.90176  0.72468  0.45371  Biso   1.000  N
  N60      1.0000 0.89700  0.71594  0.53786  Biso   1.000  N
  C117     1.0000 0.89141  0.74646  0.49868  Biso   1.000  C
  H146     1.0000 0.88100  0.78090  0.50190  Biso   1.000  H
  C118     1.0000 0.91205  0.67014  0.51659  Biso   1.000  C
  C119     1.0000 0.91442  0.67547  0.46544  Biso   1.000  C
  H147     1.0000 0.92330  0.64960  0.44180  Biso   1.000  H
  C120     1.0000 0.92253  0.62489  0.54974  Biso   1.000  C
  H148     1.0000 0.95220  0.63180  0.57120  Biso   1.000  H
  H149     1.0000 0.92930  0.59510  0.52840  Biso   1.000  H
  H150     1.0000 0.89290  0.61820  0.57130  Biso   1.000  H
  N61      1.0000 0.87234  0.80094  0.40350  Biso   1.000  N
  N62      1.0000 0.81462  0.86293  0.39879  Biso   1.000  N
  C121     1.0000 0.82525  0.81418  0.39059  Biso   1.000  C
  H151     1.0000 0.80140  0.79090  0.37670  Biso   1.000  H
  C122     1.0000 0.85894  0.88368  0.41858  Biso   1.000  C
  C123     1.0000 0.89458  0.84530  0.42207  Biso   1.000  C
  H152     1.0000 0.92820  0.84860  0.43480  Biso   1.000  H
  C124     1.0000 0.86471  0.93819  0.43306  Biso   1.000  C
  H153     1.0000 0.86810  0.95890  0.40230  Biso   1.000  H
  H154     1.0000 0.89510  0.94230  0.45420  Biso   1.000  H
  H155     1.0000 0.83470  0.94920  0.45220  Biso   1.000  H
  N63      1.0000 0.86922  0.71222  0.36573  Biso   1.000  N
  N64      1.0000 0.85439  0.65709  0.30275  Biso   1.000  N
  C125     1.0000 0.88585  0.69029  0.32281  Biso   1.000  C
  H156     1.0000 0.91790  0.69810  0.30810  Biso   1.000  H
  C126     1.0000 0.81324  0.65661  0.33543  Biso   1.000  C
  C127     1.0000 0.82173  0.68908  0.37389  Biso   1.000  C
  H157     1.0000 0.79950  0.69530  0.40170  Biso   1.000  H
  C128     1.0000 0.76907  0.62427  0.32589  Biso   1.000  C
  H158     1.0000 0.74490  0.62770  0.35400  Biso   1.000  H
  H159     1.0000 0.78000  0.58870  0.32320  Biso   1.000  H
  H160     1.0000 0.75270  0.63470  0.29410  Biso   1.000  H
  Li9      1.0000 0.60960  0.89129  0.74464  Biso   1.000  Li
  B9       1.0000 0.59999  0.10198  0.74894  Biso   1.000  B
  N65      1.0000 0.62182  0.04809  0.75752  Biso   1.000  N
  N66      1.0000 0.63373  0.96430  0.75276  Biso   1.000  N
  C129     1.0000 0.60470  0.00334  0.73868  Biso   1.000  C
  H161     1.0000 0.57540  0.00020  0.71780  Biso   1.000  H
  C130     1.0000 0.67209  0.98536  0.78211  Biso   1.000  C
  C131     1.0000 0.66533  0.03631  0.78459  Biso   1.000  C
  H162     1.0000 0.68670  0.05980  0.80190  Biso   1.000  H
  C132     1.0000 0.71301  0.95410  0.80416  Biso   1.000  C
  H163     1.0000 0.72850  0.93330  0.77740  Biso   1.000  H
  H164     1.0000 0.69880  0.93190  0.83050  Biso   1.000  H
  H165     1.0000 0.73890  0.97630  0.81920  Biso   1.000  H
  N67      1.0000 0.54629  0.09824  0.72468  Biso   1.000  N
  N68      1.0000 0.46214  0.10300  0.71594  Biso   1.000  N
  C133     1.0000 0.50132  0.10859  0.74646  Biso   1.000  C
  H166     1.0000 0.49810  0.11900  0.78090  Biso   1.000  H
  C134     1.0000 0.48341  0.08795  0.67014  Biso   1.000  C
  C135     1.0000 0.53456  0.08558  0.67547  Biso   1.000  C
  H167     1.0000 0.55820  0.07670  0.64960  Biso   1.000  H
  C136     1.0000 0.45026  0.07747  0.62489  Biso   1.000  C
  H168     1.0000 0.42880  0.04780  0.63180  Biso   1.000  H
  H169     1.0000 0.47160  0.07070  0.59510  Biso   1.000  H
  H170     1.0000 0.42870  0.10710  0.61820  Biso   1.000  H
  N69      1.0000 0.59650  0.12766  0.80094  Biso   1.000  N
  N70      1.0000 0.60121  0.18538  0.86293  Biso   1.000  N
  C137     1.0000 0.60941  0.17475  0.81418  Biso   1.000  C
  H171     1.0000 0.62330  0.19860  0.79090  Biso   1.000  H
  C138     1.0000 0.58142  0.14106  0.88368  Biso   1.000  C
  C139     1.0000 0.57793  0.10542  0.84530  Biso   1.000  C
  H172     1.0000 0.56520  0.07180  0.84860  Biso   1.000  H
  C140     1.0000 0.56694  0.13529  0.93819  Biso   1.000  C
  H173     1.0000 0.59770  0.13190  0.95890  Biso   1.000  H
  H174     1.0000 0.54580  0.10490  0.94230  Biso   1.000  H
  H175     1.0000 0.54780  0.16530  0.94920  Biso   1.000  H
  N71      1.0000 0.63427  0.13078  0.71222  Biso   1.000  N
  N72      1.0000 0.69725  0.14561  0.65709  Biso   1.000  N
  C141     1.0000 0.67719  0.11415  0.69029  Biso   1.000  C
  H176     1.0000 0.69190  0.08210  0.69810  Biso   1.000  H
  C142     1.0000 0.66457  0.18676  0.65661  Biso   1.000  C
  C143     1.0000 0.62611  0.17827  0.68908  Biso   1.000  C
  H177     1.0000 0.59830  0.20050  0.69530  Biso   1.000  H
  C144     1.0000 0.67411  0.23093  0.62427  Biso   1.000  C
  H178     1.0000 0.64600  0.25510  0.62770  Biso   1.000  H
  H179     1.0000 0.67680  0.22000  0.58870  Biso   1.000  H
  H180     1.0000 0.70590  0.24730  0.63470  Biso   1.000  H
  Li10     1.0000 0.39040  0.89129  0.25536  Biso   1.000  Li
  B10      1.0000 0.40001  0.10198  0.25106  Biso   1.000  B
  N73      1.0000 0.37818  0.04809  0.24248  Biso   1.000  N
  N74      1.0000 0.36627  0.96430  0.24724  Biso   1.000  N
  C145     1.0000 0.39530  0.00334  0.26132  Biso   1.000  C
  H181     1.0000 0.42460  0.00020  0.28220  Biso   1.000  H
  C146     1.0000 0.32791  0.98536  0.21789  Biso   1.000  C
  C147     1.0000 0.33467  0.03631  0.21541  Biso   1.000  C
  H182     1.0000 0.31330  0.05980  0.19810  Biso   1.000  H
  C148     1.0000 0.28699  0.95410  0.19584  Biso   1.000  C
  H183     1.0000 0.27150  0.93330  0.22260  Biso   1.000  H
  H184     1.0000 0.30120  0.93190  0.16950  Biso   1.000  H
  H185     1.0000 0.26110  0.97630  0.18080  Biso   1.000  H
  N75      1.0000 0.45371  0.09824  0.27532  Biso   1.000  N
  N76      1.0000 0.53786  0.10300  0.28406  Biso   1.000  N
  C149     1.0000 0.49868  0.10859  0.25354  Biso   1.000  C
  H186     1.0000 0.50190  0.11900  0.21910  Biso   1.000  H
  C150     1.0000 0.51659  0.08795  0.32986  Biso   1.000  C
  C151     1.0000 0.46544  0.08558  0.32453  Biso   1.000  C
  H187     1.0000 0.44180  0.07670  0.35040  Biso   1.000  H
  C152     1.0000 0.54974  0.07747  0.37511  Biso   1.000  C
  H188     1.0000 0.57120  0.04780  0.36820  Biso   1.000  H
  H189     1.0000 0.52840  0.07070  0.40490  Biso   1.000  H
  H190     1.0000 0.57130  0.10710  0.38180  Biso   1.000  H
  N77      1.0000 0.40350  0.12766  0.19906  Biso   1.000  N
  N78      1.0000 0.39879  0.18538  0.13707  Biso   1.000  N
  C153     1.0000 0.39059  0.17475  0.18582  Biso   1.000  C
  H191     1.0000 0.37670  0.19860  0.20910  Biso   1.000  H
  C154     1.0000 0.41858  0.14106  0.11632  Biso   1.000  C
  C155     1.0000 0.42207  0.10542  0.15470  Biso   1.000  C
  H192     1.0000 0.43480  0.07180  0.15140  Biso   1.000  H
  C156     1.0000 0.43306  0.13529  0.06181  Biso   1.000  C
  H193     1.0000 0.40230  0.13190  0.04110  Biso   1.000  H
  H194     1.0000 0.45420  0.10490  0.05770  Biso   1.000  H
  H195     1.0000 0.45220  0.16530  0.05080  Biso   1.000  H
  N79      1.0000 0.36573  0.13078  0.28778  Biso   1.000  N
  N80      1.0000 0.30275  0.14561  0.34291  Biso   1.000  N
  C157     1.0000 0.32281  0.11415  0.30971  Biso   1.000  C
  H196     1.0000 0.30810  0.08210  0.30190  Biso   1.000  H
  C158     1.0000 0.33543  0.18676  0.34339  Biso   1.000  C
  C159     1.0000 0.37389  0.17827  0.31092  Biso   1.000  C
  H197     1.0000 0.40170  0.20050  0.30470  Biso   1.000  H
  C160     1.0000 0.32589  0.23093  0.37573  Biso   1.000  C
  H198     1.0000 0.35400  0.25510  0.37230  Biso   1.000  H
  H199     1.0000 0.32320  0.22000  0.41130  Biso   1.000  H
  H200     1.0000 0.29410  0.24730  0.36530  Biso   1.000  H
  Li11     1.0000 0.60960  0.10871  0.25536  Biso   1.000  Li
  B11      1.0000 0.59999  0.89802  0.25106  Biso   1.000  B
  N81      1.0000 0.62182  0.95191  0.24248  Biso   1.000  N
  N82      1.0000 0.63373  0.03570  0.24724  Biso   1.000  N
  C161     1.0000 0.60470  0.99666  0.26132  Biso   1.000  C
  H201     1.0000 0.57540  0.99980  0.28220  Biso   1.000  H
  C162     1.0000 0.67209  0.01464  0.21789  Biso   1.000  C
  C163     1.0000 0.66533  0.96369  0.21541  Biso   1.000  C
  H202     1.0000 0.68670  0.94020  0.19810  Biso   1.000  H
  C164     1.0000 0.71301  0.04590  0.19584  Biso   1.000  C
  H203     1.0000 0.72850  0.06670  0.22260  Biso   1.000  H
  H204     1.0000 0.69880  0.06810  0.16950  Biso   1.000  H
  H205     1.0000 0.73890  0.02370  0.18080  Biso   1.000  H
  N83      1.0000 0.54629  0.90176  0.27532  Biso   1.000  N
  N84      1.0000 0.46214  0.89700  0.28406  Biso   1.000  N
  C165     1.0000 0.50132  0.89141  0.25354  Biso   1.000  C
  H206     1.0000 0.49810  0.88100  0.21910  Biso   1.000  H
  C166     1.0000 0.48341  0.91205  0.32986  Biso   1.000  C
  C167     1.0000 0.53456  0.91442  0.32453  Biso   1.000  C
  H207     1.0000 0.55820  0.92330  0.35040  Biso   1.000  H
  C168     1.0000 0.45026  0.92253  0.37511  Biso   1.000  C
  H208     1.0000 0.42880  0.95220  0.36820  Biso   1.000  H
  H209     1.0000 0.47160  0.92930  0.40490  Biso   1.000  H
  H210     1.0000 0.42870  0.89290  0.38180  Biso   1.000  H
  N85      1.0000 0.59650  0.87234  0.19906  Biso   1.000  N
  N86      1.0000 0.60121  0.81462  0.13707  Biso   1.000  N
  C169     1.0000 0.60941  0.82525  0.18582  Biso   1.000  C
  H211     1.0000 0.62330  0.80140  0.20910  Biso   1.000  H
  C170     1.0000 0.58142  0.85894  0.11632  Biso   1.000  C
  C171     1.0000 0.57793  0.89458  0.15470  Biso   1.000  C
  H212     1.0000 0.56520  0.92820  0.15140  Biso   1.000  H
  C172     1.0000 0.56694  0.86471  0.06181  Biso   1.000  C
  H213     1.0000 0.59770  0.86810  0.04110  Biso   1.000  H
  H214     1.0000 0.54580  0.89510  0.05770  Biso   1.000  H
  H215     1.0000 0.54780  0.83470  0.05080  Biso   1.000  H
  N87      1.0000 0.63427  0.86922  0.28778  Biso   1.000  N
  N88      1.0000 0.69725  0.85439  0.34291  Biso   1.000  N
  C173     1.0000 0.67719  0.88585  0.30971  Biso   1.000  C
  H216     1.0000 0.69190  0.91790  0.30190  Biso   1.000  H
  C174     1.0000 0.66457  0.81324  0.34339  Biso   1.000  C
  C175     1.0000 0.62611  0.82173  0.31092  Biso   1.000  C
  H217     1.0000 0.59830  0.79950  0.30470  Biso   1.000  H
  C176     1.0000 0.67411  0.76907  0.37573  Biso   1.000  C
  H218     1.0000 0.64600  0.74490  0.37230  Biso   1.000  H
  H219     1.0000 0.67680  0.78000  0.41130  Biso   1.000  H
  H220     1.0000 0.70590  0.75270  0.36530  Biso   1.000  H
  Li12     1.0000 0.39040  0.10871  0.74464  Biso   1.000  Li
  B12      1.0000 0.40001  0.89802  0.74894  Biso   1.000  B
  N89      1.0000 0.37818  0.95191  0.75752  Biso   1.000  N
  N90      1.0000 0.36627  0.03570  0.75276  Biso   1.000  N
  C177     1.0000 0.39530  0.99666  0.73868  Biso   1.000  C
  H221     1.0000 0.42460  0.99980  0.71780  Biso   1.000  H
  C178     1.0000 0.32791  0.01464  0.78211  Biso   1.000  C
  C179     1.0000 0.33467  0.96369  0.78459  Biso   1.000  C
  H222     1.0000 0.31330  0.94020  0.80190  Biso   1.000  H
  C180     1.0000 0.28699  0.04590  0.80416  Biso   1.000  C
  H223     1.0000 0.27150  0.06670  0.77740  Biso   1.000  H
  H224     1.0000 0.30120  0.06810  0.83050  Biso   1.000  H
  H225     1.0000 0.26110  0.02370  0.81920  Biso   1.000  H
  N91      1.0000 0.45371  0.90176  0.72468  Biso   1.000  N
  N92      1.0000 0.53786  0.89700  0.71594  Biso   1.000  N
  C181     1.0000 0.49868  0.89141  0.74646  Biso   1.000  C
  H226     1.0000 0.50190  0.88100  0.78090  Biso   1.000  H
  C182     1.0000 0.51659  0.91205  0.67014  Biso   1.000  C
  C183     1.0000 0.46544  0.91442  0.67547  Biso   1.000  C
  H227     1.0000 0.44180  0.92330  0.64960  Biso   1.000  H
  C184     1.0000 0.54974  0.92253  0.62489  Biso   1.000  C
  H228     1.0000 0.57120  0.95220  0.63180  Biso   1.000  H
  H229     1.0000 0.52840  0.92930  0.59510  Biso   1.000  H
  H230     1.0000 0.57130  0.89290  0.61820  Biso   1.000  H
  N93      1.0000 0.40350  0.87234  0.80094  Biso   1.000  N
  N94      1.0000 0.39879  0.81462  0.86293  Biso   1.000  N
  C185     1.0000 0.39059  0.82525  0.81418  Biso   1.000  C
  H231     1.0000 0.37670  0.80140  0.79090  Biso   1.000  H
  C186     1.0000 0.41858  0.85894  0.88368  Biso   1.000  C
  C187     1.0000 0.42207  0.89458  0.84530  Biso   1.000  C
  H232     1.0000 0.43480  0.92820  0.84860  Biso   1.000  H
  C188     1.0000 0.43306  0.86471  0.93819  Biso   1.000  C
  H233     1.0000 0.40230  0.86810  0.95890  Biso   1.000  H
  H234     1.0000 0.45420  0.89510  0.94230  Biso   1.000  H
  H235     1.0000 0.45220  0.83470  0.94920  Biso   1.000  H
  N95      1.0000 0.36573  0.86922  0.71222  Biso   1.000  N
  N96      1.0000 0.30275  0.85439  0.65709  Biso   1.000  N
  C189     1.0000 0.32281  0.88585  0.69029  Biso   1.000  C
  H236     1.0000 0.30810  0.91790  0.69810  Biso   1.000  H
  C190     1.0000 0.33543  0.81324  0.65661  Biso   1.000  C
  C191     1.0000 0.37389  0.82173  0.68908  Biso   1.000  C
  H237     1.0000 0.40170  0.79950  0.69530  Biso   1.000  H
  C192     1.0000 0.32589  0.76907  0.62427  Biso   1.000  C
  H238     1.0000 0.35400  0.74490  0.62770  Biso   1.000  H
  H239     1.0000 0.32320  0.78000  0.58870  Biso   1.000  H
  H240     1.0000 0.29410  0.75270  0.63470  Biso   1.000  H
  Li13     1.0000 0.60960  0.74464  0.10871  Biso   1.000  Li
  B13      1.0000 0.59999  0.74894  0.89802  Biso   1.000  B
  N97      1.0000 0.62182  0.75752  0.95191  Biso   1.000  N
  N98      1.0000 0.63373  0.75276  0.03570  Biso   1.000  N
  C193     1.0000 0.60470  0.73868  0.99666  Biso   1.000  C
  H241     1.0000 0.57540  0.71780  0.99980  Biso   1.000  H
  C194     1.0000 0.67209  0.78211  0.01464  Biso   1.000  C
  C195     1.0000 0.66533  0.78459  0.96369  Biso   1.000  C
  H242     1.0000 0.68670  0.80190  0.94020  Biso   1.000  H
  C196     1.0000 0.71301  0.80416  0.04590  Biso   1.000  C
  H243     1.0000 0.72850  0.77740  0.06670  Biso   1.000  H
  H244     1.0000 0.69880  0.83050  0.06810  Biso   1.000  H
  H245     1.0000 0.73890  0.81920  0.02370  Biso   1.000  H
  N99      1.0000 0.54629  0.72468  0.90176  Biso   1.000  N
  N100     1.0000 0.46214  0.71594  0.89700  Biso   1.000  N
  C197     1.0000 0.50132  0.74646  0.89141  Biso   1.000  C
  H246     1.0000 0.49810  0.78090  0.88100  Biso   1.000  H
  C198     1.0000 0.48341  0.67014  0.91205  Biso   1.000  C
  C199     1.0000 0.53456  0.67547  0.91442  Biso   1.000  C
  H247     1.0000 0.55820  0.64960  0.92330  Biso   1.000  H
  C200     1.0000 0.45026  0.62489  0.92253  Biso   1.000  C
  H248     1.0000 0.42880  0.63180  0.95220  Biso   1.000  H
  H249     1.0000 0.47160  0.59510  0.92930  Biso   1.000  H
  H250     1.0000 0.42870  0.61820  0.89290  Biso   1.000  H
  N101     1.0000 0.59650  0.80094  0.87234  Biso   1.000  N
  N102     1.0000 0.60121  0.86293  0.81462  Biso   1.000  N
  C201     1.0000 0.60941  0.81418  0.82525  Biso   1.000  C
  H251     1.0000 0.62330  0.79090  0.80140  Biso   1.000  H
  C202     1.0000 0.58142  0.88368  0.85894  Biso   1.000  C
  C203     1.0000 0.57793  0.84530  0.89458  Biso   1.000  C
  H252     1.0000 0.56520  0.84860  0.92820  Biso   1.000  H
  C204     1.0000 0.56694  0.93819  0.86471  Biso   1.000  C
  H253     1.0000 0.59770  0.95890  0.86810  Biso   1.000  H
  H254     1.0000 0.54580  0.94230  0.89510  Biso   1.000  H
  H255     1.0000 0.54780  0.94920  0.83470  Biso   1.000  H
  N103     1.0000 0.63427  0.71222  0.86922  Biso   1.000  N
  N104     1.0000 0.69725  0.65709  0.85439  Biso   1.000  N
  C205     1.0000 0.67719  0.69029  0.88585  Biso   1.000  C
  H256     1.0000 0.69190  0.69810  0.91790  Biso   1.000  H
  C206     1.0000 0.66457  0.65661  0.81324  Biso   1.000  C
  C207     1.0000 0.62611  0.68908  0.82173  Biso   1.000  C
  H257     1.0000 0.59830  0.69530  0.79950  Biso   1.000  H
  C208     1.0000 0.67411  0.62427  0.76907  Biso   1.000  C
  H258     1.0000 0.64600  0.62770  0.74490  Biso   1.000  H
  H259     1.0000 0.67680  0.58870  0.78000  Biso   1.000  H
  H260     1.0000 0.70590  0.63470  0.75270  Biso   1.000  H
  Li14     1.0000 0.39040  0.25536  0.10871  Biso   1.000  Li
  B14      1.0000 0.40001  0.25106  0.89802  Biso   1.000  B
  N105     1.0000 0.37818  0.24248  0.95191  Biso   1.000  N
  N106     1.0000 0.36627  0.24724  0.03570  Biso   1.000  N
  C209     1.0000 0.39530  0.26132  0.99666  Biso   1.000  C
  H261     1.0000 0.42460  0.28220  0.99980  Biso   1.000  H
  C210     1.0000 0.32791  0.21789  0.01464  Biso   1.000  C
  C211     1.0000 0.33467  0.21541  0.96369  Biso   1.000  C
  H262     1.0000 0.31330  0.19810  0.94020  Biso   1.000  H
  C212     1.0000 0.28699  0.19584  0.04590  Biso   1.000  C
  H263     1.0000 0.27150  0.22260  0.06670  Biso   1.000  H
  H264     1.0000 0.30120  0.16950  0.06810  Biso   1.000  H
  H265     1.0000 0.26110  0.18080  0.02370  Biso   1.000  H
  N107     1.0000 0.45371  0.27532  0.90176  Biso   1.000  N
  N108     1.0000 0.53786  0.28406  0.89700  Biso   1.000  N
  C213     1.0000 0.49868  0.25354  0.89141  Biso   1.000  C
  H266     1.0000 0.50190  0.21910  0.88100  Biso   1.000  H
  C214     1.0000 0.51659  0.32986  0.91205  Biso   1.000  C
  C215     1.0000 0.46544  0.32453  0.91442  Biso   1.000  C
  H267     1.0000 0.44180  0.35040  0.92330  Biso   1.000  H
  C216     1.0000 0.54974  0.37511  0.92253  Biso   1.000  C
  H268     1.0000 0.57120  0.36820  0.95220  Biso   1.000  H
  H269     1.0000 0.52840  0.40490  0.92930  Biso   1.000  H
  H270     1.0000 0.57130  0.38180  0.89290  Biso   1.000  H
  N109     1.0000 0.40350  0.19906  0.87234  Biso   1.000  N
  N110     1.0000 0.39879  0.13707  0.81462  Biso   1.000  N
  C217     1.0000 0.39059  0.18582  0.82525  Biso   1.000  C
  H271     1.0000 0.37670  0.20910  0.80140  Biso   1.000  H
  C218     1.0000 0.41858  0.11632  0.85894  Biso   1.000  C
  C219     1.0000 0.42207  0.15470  0.89458  Biso   1.000  C
  H272     1.0000 0.43480  0.15140  0.92820  Biso   1.000  H
  C220     1.0000 0.43306  0.06181  0.86471  Biso   1.000  C
  H273     1.0000 0.40230  0.04110  0.86810  Biso   1.000  H
  H274     1.0000 0.45420  0.05770  0.89510  Biso   1.000  H
  H275     1.0000 0.45220  0.05080  0.83470  Biso   1.000  H
  N111     1.0000 0.36573  0.28778  0.86922  Biso   1.000  N
  N112     1.0000 0.30275  0.34291  0.85439  Biso   1.000  N
  C221     1.0000 0.32281  0.30971  0.88585  Biso   1.000  C
  H276     1.0000 0.30810  0.30190  0.91790  Biso   1.000  H
  C222     1.0000 0.33543  0.34339  0.81324  Biso   1.000  C
  C223     1.0000 0.37389  0.31092  0.82173  Biso   1.000  C
  H277     1.0000 0.40170  0.30470  0.79950  Biso   1.000  H
  C224     1.0000 0.32589  0.37573  0.76907  Biso   1.000  C
  H278     1.0000 0.35400  0.37230  0.74490  Biso   1.000  H
  H279     1.0000 0.32320  0.41130  0.78000  Biso   1.000  H
  H280     1.0000 0.29410  0.36530  0.75270  Biso   1.000  H
  Li15     1.0000 0.60960  0.25536  0.89129  Biso   1.000  Li
  B15      1.0000 0.59999  0.25106  0.10198  Biso   1.000  B
  N113     1.0000 0.62182  0.24248  0.04809  Biso   1.000  N
  N114     1.0000 0.63373  0.24724  0.96430  Biso   1.000  N
  C225     1.0000 0.60470  0.26132  0.00334  Biso   1.000  C
  H281     1.0000 0.57540  0.28220  0.00020  Biso   1.000  H
  C226     1.0000 0.67209  0.21789  0.98536  Biso   1.000  C
  C227     1.0000 0.66533  0.21541  0.03631  Biso   1.000  C
  H282     1.0000 0.68670  0.19810  0.05980  Biso   1.000  H
  C228     1.0000 0.71301  0.19584  0.95410  Biso   1.000  C
  H283     1.0000 0.72850  0.22260  0.93330  Biso   1.000  H
  H284     1.0000 0.69880  0.16950  0.93190  Biso   1.000  H
  H285     1.0000 0.73890  0.18080  0.97630  Biso   1.000  H
  N115     1.0000 0.54629  0.27532  0.09824  Biso   1.000  N
  N116     1.0000 0.46214  0.28406  0.10300  Biso   1.000  N
  C229     1.0000 0.50132  0.25354  0.10859  Biso   1.000  C
  H286     1.0000 0.49810  0.21910  0.11900  Biso   1.000  H
  C230     1.0000 0.48341  0.32986  0.08795  Biso   1.000  C
  C231     1.0000 0.53456  0.32453  0.08558  Biso   1.000  C
  H287     1.0000 0.55820  0.35040  0.07670  Biso   1.000  H
  C232     1.0000 0.45026  0.37511  0.07747  Biso   1.000  C
  H288     1.0000 0.42880  0.36820  0.04780  Biso   1.000  H
  H289     1.0000 0.47160  0.40490  0.07070  Biso   1.000  H
  H290     1.0000 0.42870  0.38180  0.10710  Biso   1.000  H
  N117     1.0000 0.59650  0.19906  0.12766  Biso   1.000  N
  N118     1.0000 0.60121  0.13707  0.18538  Biso   1.000  N
  C233     1.0000 0.60941  0.18582  0.17475  Biso   1.000  C
  H291     1.0000 0.62330  0.20910  0.19860  Biso   1.000  H
  C234     1.0000 0.58142  0.11632  0.14106  Biso   1.000  C
  C235     1.0000 0.57793  0.15470  0.10542  Biso   1.000  C
  H292     1.0000 0.56520  0.15140  0.07180  Biso   1.000  H
  C236     1.0000 0.56694  0.06181  0.13529  Biso   1.000  C
  H293     1.0000 0.59770  0.04110  0.13190  Biso   1.000  H
  H294     1.0000 0.54580  0.05770  0.10490  Biso   1.000  H
  H295     1.0000 0.54780  0.05080  0.16530  Biso   1.000  H
  N119     1.0000 0.63427  0.28778  0.13078  Biso   1.000  N
  N120     1.0000 0.69725  0.34291  0.14561  Biso   1.000  N
  C237     1.0000 0.67719  0.30971  0.11415  Biso   1.000  C
  H296     1.0000 0.69190  0.30190  0.08210  Biso   1.000  H
  C238     1.0000 0.66457  0.34339  0.18676  Biso   1.000  C
  C239     1.0000 0.62611  0.31092  0.17827  Biso   1.000  C
  H297     1.0000 0.59830  0.30470  0.20050  Biso   1.000  H
  C240     1.0000 0.67411  0.37573  0.23093  Biso   1.000  C
  H298     1.0000 0.64600  0.37230  0.25510  Biso   1.000  H
  H299     1.0000 0.67680  0.41130  0.22000  Biso   1.000  H
  H300     1.0000 0.70590  0.36530  0.24730  Biso   1.000  H
  Li16     1.0000 0.39040  0.74464  0.89129  Biso   1.000  Li
  B16      1.0000 0.40001  0.74894  0.10198  Biso   1.000  B
  N121     1.0000 0.37818  0.75752  0.04809  Biso   1.000  N
  N122     1.0000 0.36627  0.75276  0.96430  Biso   1.000  N
  C241     1.0000 0.39530  0.73868  0.00334  Biso   1.000  C
  H301     1.0000 0.42460  0.71780  0.00020  Biso   1.000  H
  C242     1.0000 0.32791  0.78211  0.98536  Biso   1.000  C
  C243     1.0000 0.33467  0.78459  0.03631  Biso   1.000  C
  H302     1.0000 0.31330  0.80190  0.05980  Biso   1.000  H
  C244     1.0000 0.28699  0.80416  0.95410  Biso   1.000  C
  H303     1.0000 0.27150  0.77740  0.93330  Biso   1.000  H
  H304     1.0000 0.30120  0.83050  0.93190  Biso   1.000  H
  H305     1.0000 0.26110  0.81920  0.97630  Biso   1.000  H
  N123     1.0000 0.45371  0.72468  0.09824  Biso   1.000  N
  N124     1.0000 0.53786  0.71594  0.10300  Biso   1.000  N
  C245     1.0000 0.49868  0.74646  0.10859  Biso   1.000  C
  H306     1.0000 0.50190  0.78090  0.11900  Biso   1.000  H
  C246     1.0000 0.51659  0.67014  0.08795  Biso   1.000  C
  C247     1.0000 0.46544  0.67547  0.08558  Biso   1.000  C
  H307     1.0000 0.44180  0.64960  0.07670  Biso   1.000  H
  C248     1.0000 0.54974  0.62489  0.07747  Biso   1.000  C
  H308     1.0000 0.57120  0.63180  0.04780  Biso   1.000  H
  H309     1.0000 0.52840  0.59510  0.07070  Biso   1.000  H
  H310     1.0000 0.57130  0.61820  0.10710  Biso   1.000  H
  N125     1.0000 0.40350  0.80094  0.12766  Biso   1.000  N
  N126     1.0000 0.39879  0.86293  0.18538  Biso   1.000  N
  C249     1.0000 0.39059  0.81418  0.17475  Biso   1.000  C
  H311     1.0000 0.37670  0.79090  0.19860  Biso   1.000  H
  C250     1.0000 0.41858  0.88368  0.14106  Biso   1.000  C
  C251     1.0000 0.42207  0.84530  0.10542  Biso   1.000  C
  H312     1.0000 0.43480  0.84860  0.07180  Biso   1.000  H
  C252     1.0000 0.43306  0.93819  0.13529  Biso   1.000  C
  H313     1.0000 0.40230  0.95890  0.13190  Biso   1.000  H
  H314     1.0000 0.45420  0.94230  0.10490  Biso   1.000  H
  H315     1.0000 0.45220  0.94920  0.16530  Biso   1.000  H
  N127     1.0000 0.36573  0.71222  0.13078  Biso   1.000  N
  N128     1.0000 0.30275  0.65709  0.14561  Biso   1.000  N
  C253     1.0000 0.32281  0.69029  0.11415  Biso   1.000  C
  H316     1.0000 0.30810  0.69810  0.08210  Biso   1.000  H
  C254     1.0000 0.33543  0.65661  0.18676  Biso   1.000  C
  C255     1.0000 0.37389  0.68908  0.17827  Biso   1.000  C
  H317     1.0000 0.40170  0.69530  0.20050  Biso   1.000  H
  C256     1.0000 0.32589  0.62427  0.23093  Biso   1.000  C
  H318     1.0000 0.35400  0.62770  0.25510  Biso   1.000  H
  H319     1.0000 0.32320  0.58870  0.22000  Biso   1.000  H
  H320     1.0000 0.29410  0.63470  0.24730  Biso   1.000  H
  Li17     1.0000 0.74464  0.89129  0.39040  Biso   1.000  Li
  B17      1.0000 0.74894  0.10198  0.40001  Biso   1.000  B
  N129     1.0000 0.75752  0.04809  0.37818  Biso   1.000  N
  N130     1.0000 0.75276  0.96430  0.36627  Biso   1.000  N
  C257     1.0000 0.73868  0.00334  0.39530  Biso   1.000  C
  H321     1.0000 0.71780  0.00020  0.42460  Biso   1.000  H
  C258     1.0000 0.78211  0.98536  0.32791  Biso   1.000  C
  C259     1.0000 0.78459  0.03631  0.33467  Biso   1.000  C
  H322     1.0000 0.80190  0.05980  0.31330  Biso   1.000  H
  C260     1.0000 0.80416  0.95410  0.28699  Biso   1.000  C
  H323     1.0000 0.77740  0.93330  0.27150  Biso   1.000  H
  H324     1.0000 0.83050  0.93190  0.30120  Biso   1.000  H
  H325     1.0000 0.81920  0.97630  0.26110  Biso   1.000  H
  N131     1.0000 0.72468  0.09824  0.45371  Biso   1.000  N
  N132     1.0000 0.71594  0.10300  0.53786  Biso   1.000  N
  C261     1.0000 0.74646  0.10859  0.49868  Biso   1.000  C
  H326     1.0000 0.78090  0.11900  0.50190  Biso   1.000  H
  C262     1.0000 0.67014  0.08795  0.51659  Biso   1.000  C
  C263     1.0000 0.67547  0.08558  0.46544  Biso   1.000  C
  H327     1.0000 0.64960  0.07670  0.44180  Biso   1.000  H
  C264     1.0000 0.62489  0.07747  0.54974  Biso   1.000  C
  H328     1.0000 0.63180  0.04780  0.57120  Biso   1.000  H
  H329     1.0000 0.59510  0.07070  0.52840  Biso   1.000  H
  H330     1.0000 0.61820  0.10710  0.57130  Biso   1.000  H
  N133     1.0000 0.80094  0.12766  0.40350  Biso   1.000  N
  N134     1.0000 0.86293  0.18538  0.39879  Biso   1.000  N
  C265     1.0000 0.81418  0.17475  0.39059  Biso   1.000  C
  H331     1.0000 0.79090  0.19860  0.37670  Biso   1.000  H
  C266     1.0000 0.88368  0.14106  0.41858  Biso   1.000  C
  C267     1.0000 0.84530  0.10542  0.42207  Biso   1.000  C
  H332     1.0000 0.84860  0.07180  0.43480  Biso   1.000  H
  C268     1.0000 0.93819  0.13529  0.43306  Biso   1.000  C
  H333     1.0000 0.95890  0.13190  0.40230  Biso   1.000  H
  H334     1.0000 0.94230  0.10490  0.45420  Biso   1.000  H
  H335     1.0000 0.94920  0.16530  0.45220  Biso   1.000  H
  N135     1.0000 0.71222  0.13078  0.36573  Biso   1.000  N
  N136     1.0000 0.65709  0.14561  0.30275  Biso   1.000  N
  C269     1.0000 0.69029  0.11415  0.32281  Biso   1.000  C
  H336     1.0000 0.69810  0.08210  0.30810  Biso   1.000  H
  C270     1.0000 0.65661  0.18676  0.33543  Biso   1.000  C
  C271     1.0000 0.68908  0.17827  0.37389  Biso   1.000  C
  H337     1.0000 0.69530  0.20050  0.40170  Biso   1.000  H
  C272     1.0000 0.62427  0.23093  0.32589  Biso   1.000  C
  H338     1.0000 0.62770  0.25510  0.35400  Biso   1.000  H
  H339     1.0000 0.58870  0.22000  0.32320  Biso   1.000  H
  H340     1.0000 0.63470  0.24730  0.29410  Biso   1.000  H
  Li18     1.0000 0.25536  0.89129  0.60960  Biso   1.000  Li
  B18      1.0000 0.25106  0.10198  0.59999  Biso   1.000  B
  N137     1.0000 0.24248  0.04809  0.62182  Biso   1.000  N
  N138     1.0000 0.24724  0.96430  0.63373  Biso   1.000  N
  C273     1.0000 0.26132  0.00334  0.60470  Biso   1.000  C
  H341     1.0000 0.28220  0.00020  0.57540  Biso   1.000  H
  C274     1.0000 0.21789  0.98536  0.67209  Biso   1.000  C
  C275     1.0000 0.21541  0.03631  0.66533  Biso   1.000  C
  H342     1.0000 0.19810  0.05980  0.68670  Biso   1.000  H
  C276     1.0000 0.19584  0.95410  0.71301  Biso   1.000  C
  H343     1.0000 0.22260  0.93330  0.72850  Biso   1.000  H
  H344     1.0000 0.16950  0.93190  0.69880  Biso   1.000  H
  H345     1.0000 0.18080  0.97630  0.73890  Biso   1.000  H
  N139     1.0000 0.27532  0.09824  0.54629  Biso   1.000  N
  N140     1.0000 0.28406  0.10300  0.46214  Biso   1.000  N
  C277     1.0000 0.25354  0.10859  0.50132  Biso   1.000  C
  H346     1.0000 0.21910  0.11900  0.49810  Biso   1.000  H
  C278     1.0000 0.32986  0.08795  0.48341  Biso   1.000  C
  C279     1.0000 0.32453  0.08558  0.53456  Biso   1.000  C
  H347     1.0000 0.35040  0.07670  0.55820  Biso   1.000  H
  C280     1.0000 0.37511  0.07747  0.45026  Biso   1.000  C
  H348     1.0000 0.36820  0.04780  0.42880  Biso   1.000  H
  H349     1.0000 0.40490  0.07070  0.47160  Biso   1.000  H
  H350     1.0000 0.38180  0.10710  0.42870  Biso   1.000  H
  N141     1.0000 0.19906  0.12766  0.59650  Biso   1.000  N
  N142     1.0000 0.13707  0.18538  0.60121  Biso   1.000  N
  C281     1.0000 0.18582  0.17475  0.60941  Biso   1.000  C
  H351     1.0000 0.20910  0.19860  0.62330  Biso   1.000  H
  C282     1.0000 0.11632  0.14106  0.58142  Biso   1.000  C
  C283     1.0000 0.15470  0.10542  0.57793  Biso   1.000  C
  H352     1.0000 0.15140  0.07180  0.56520  Biso   1.000  H
  C284     1.0000 0.06181  0.13529  0.56694  Biso   1.000  C
  H353     1.0000 0.04110  0.13190  0.59770  Biso   1.000  H
  H354     1.0000 0.05770  0.10490  0.54580  Biso   1.000  H
  H355     1.0000 0.05080  0.16530  0.54780  Biso   1.000  H
  N143     1.0000 0.28778  0.13078  0.63427  Biso   1.000  N
  N144     1.0000 0.34291  0.14561  0.69725  Biso   1.000  N
  C285     1.0000 0.30971  0.11415  0.67719  Biso   1.000  C
  H356     1.0000 0.30190  0.08210  0.69190  Biso   1.000  H
  C286     1.0000 0.34339  0.18676  0.66457  Biso   1.000  C
  C287     1.0000 0.31092  0.17827  0.62611  Biso   1.000  C
  H357     1.0000 0.30470  0.20050  0.59830  Biso   1.000  H
  C288     1.0000 0.37573  0.23093  0.67411  Biso   1.000  C
  H358     1.0000 0.37230  0.25510  0.64600  Biso   1.000  H
  H359     1.0000 0.41130  0.22000  0.67680  Biso   1.000  H
  H360     1.0000 0.36530  0.24730  0.70590  Biso   1.000  H
  Li19     1.0000 0.25536  0.10871  0.39040  Biso   1.000  Li
  B19      1.0000 0.25106  0.89802  0.40001  Biso   1.000  B
  N145     1.0000 0.24248  0.95191  0.37818  Biso   1.000  N
  N146     1.0000 0.24724  0.03570  0.36627  Biso   1.000  N
  C289     1.0000 0.26132  0.99666  0.39530  Biso   1.000  C
  H361     1.0000 0.28220  0.99980  0.42460  Biso   1.000  H
  C290     1.0000 0.21789  0.01464  0.32791  Biso   1.000  C
  C291     1.0000 0.21541  0.96369  0.33467  Biso   1.000  C
  H362     1.0000 0.19810  0.94020  0.31330  Biso   1.000  H
  C292     1.0000 0.19584  0.04590  0.28699  Biso   1.000  C
  H363     1.0000 0.22260  0.06670  0.27150  Biso   1.000  H
  H364     1.0000 0.16950  0.06810  0.30120  Biso   1.000  H
  H365     1.0000 0.18080  0.02370  0.26110  Biso   1.000  H
  N147     1.0000 0.27532  0.90176  0.45371  Biso   1.000  N
  N148     1.0000 0.28406  0.89700  0.53786  Biso   1.000  N
  C293     1.0000 0.25354  0.89141  0.49868  Biso   1.000  C
  H366     1.0000 0.21910  0.88100  0.50190  Biso   1.000  H
  C294     1.0000 0.32986  0.91205  0.51659  Biso   1.000  C
  C295     1.0000 0.32453  0.91442  0.46544  Biso   1.000  C
  H367     1.0000 0.35040  0.92330  0.44180  Biso   1.000  H
  C296     1.0000 0.37511  0.92253  0.54974  Biso   1.000  C
  H368     1.0000 0.36820  0.95220  0.57120  Biso   1.000  H
  H369     1.0000 0.40490  0.92930  0.52840  Biso   1.000  H
  H370     1.0000 0.38180  0.89290  0.57130  Biso   1.000  H
  N149     1.0000 0.19906  0.87234  0.40350  Biso   1.000  N
  N150     1.0000 0.13707  0.81462  0.39879  Biso   1.000  N
  C297     1.0000 0.18582  0.82525  0.39059  Biso   1.000  C
  H371     1.0000 0.20910  0.80140  0.37670  Biso   1.000  H
  C298     1.0000 0.11632  0.85894  0.41858  Biso   1.000  C
  C299     1.0000 0.15470  0.89458  0.42207  Biso   1.000  C
  H372     1.0000 0.15140  0.92820  0.43480  Biso   1.000  H
  C300     1.0000 0.06181  0.86471  0.43306  Biso   1.000  C
  H373     1.0000 0.04110  0.86810  0.40230  Biso   1.000  H
  H374     1.0000 0.05770  0.89510  0.45420  Biso   1.000  H
  H375     1.0000 0.05080  0.83470  0.45220  Biso   1.000  H
  N151     1.0000 0.28778  0.86922  0.36573  Biso   1.000  N
  N152     1.0000 0.34291  0.85439  0.30275  Biso   1.000  N
  C301     1.0000 0.30971  0.88585  0.32281  Biso   1.000  C
  H376     1.0000 0.30190  0.91790  0.30810  Biso   1.000  H
  C302     1.0000 0.34339  0.81324  0.33543  Biso   1.000  C
  C303     1.0000 0.31092  0.82173  0.37389  Biso   1.000  C
  H377     1.0000 0.30470  0.79950  0.40170  Biso   1.000  H
  C304     1.0000 0.37573  0.76907  0.32589  Biso   1.000  C
  H378     1.0000 0.37230  0.74490  0.35400  Biso   1.000  H
  H379     1.0000 0.41130  0.78000  0.32320  Biso   1.000  H
  H380     1.0000 0.36530  0.75270  0.29410  Biso   1.000  H
  Li20     1.0000 0.74464  0.10871  0.60960  Biso   1.000  Li
  B20      1.0000 0.74894  0.89802  0.59999  Biso   1.000  B
  N153     1.0000 0.75752  0.95191  0.62182  Biso   1.000  N
  N154     1.0000 0.75276  0.03570  0.63373  Biso   1.000  N
  C305     1.0000 0.73868  0.99666  0.60470  Biso   1.000  C
  H381     1.0000 0.71780  0.99980  0.57540  Biso   1.000  H
  C306     1.0000 0.78211  0.01464  0.67209  Biso   1.000  C
  C307     1.0000 0.78459  0.96369  0.66533  Biso   1.000  C
  H382     1.0000 0.80190  0.94020  0.68670  Biso   1.000  H
  C308     1.0000 0.80416  0.04590  0.71301  Biso   1.000  C
  H383     1.0000 0.77740  0.06670  0.72850  Biso   1.000  H
  H384     1.0000 0.83050  0.06810  0.69880  Biso   1.000  H
  H385     1.0000 0.81920  0.02370  0.73890  Biso   1.000  H
  N155     1.0000 0.72468  0.90176  0.54629  Biso   1.000  N
  N156     1.0000 0.71594  0.89700  0.46214  Biso   1.000  N
  C309     1.0000 0.74646  0.89141  0.50132  Biso   1.000  C
  H386     1.0000 0.78090  0.88100  0.49810  Biso   1.000  H
  C310     1.0000 0.67014  0.91205  0.48341  Biso   1.000  C
  C311     1.0000 0.67547  0.91442  0.53456  Biso   1.000  C
  H387     1.0000 0.64960  0.92330  0.55820  Biso   1.000  H
  C312     1.0000 0.62489  0.92253  0.45026  Biso   1.000  C
  H388     1.0000 0.63180  0.95220  0.42880  Biso   1.000  H
  H389     1.0000 0.59510  0.92930  0.47160  Biso   1.000  H
  H390     1.0000 0.61820  0.89290  0.42870  Biso   1.000  H
  N157     1.0000 0.80094  0.87234  0.59650  Biso   1.000  N
  N158     1.0000 0.86293  0.81462  0.60121  Biso   1.000  N
  C313     1.0000 0.81418  0.82525  0.60941  Biso   1.000  C
  H391     1.0000 0.79090  0.80140  0.62330  Biso   1.000  H
  C314     1.0000 0.88368  0.85894  0.58142  Biso   1.000  C
  C315     1.0000 0.84530  0.89458  0.57793  Biso   1.000  C
  H392     1.0000 0.84860  0.92820  0.56520  Biso   1.000  H
  C316     1.0000 0.93819  0.86471  0.56694  Biso   1.000  C
  H393     1.0000 0.95890  0.86810  0.59770  Biso   1.000  H
  H394     1.0000 0.94230  0.89510  0.54580  Biso   1.000  H
  H395     1.0000 0.94920  0.83470  0.54780  Biso   1.000  H
  N159     1.0000 0.71222  0.86922  0.63427  Biso   1.000  N
  N160     1.0000 0.65709  0.85439  0.69725  Biso   1.000  N
  C317     1.0000 0.69029  0.88585  0.67719  Biso   1.000  C
  H396     1.0000 0.69810  0.91790  0.69190  Biso   1.000  H
  C318     1.0000 0.65661  0.81324  0.66457  Biso   1.000  C
  C319     1.0000 0.68908  0.82173  0.62611  Biso   1.000  C
  H397     1.0000 0.69530  0.79950  0.59830  Biso   1.000  H
  C320     1.0000 0.62427  0.76907  0.67411  Biso   1.000  C
  H398     1.0000 0.62770  0.74490  0.64600  Biso   1.000  H
  H399     1.0000 0.58870  0.78000  0.67680  Biso   1.000  H
  H400     1.0000 0.63470  0.75270  0.70590  Biso   1.000  H
  Li21     1.0000 0.89129  0.60960  0.25536  Biso   1.000  Li
  B21      1.0000 0.10198  0.59999  0.25106  Biso   1.000  B
  N161     1.0000 0.04809  0.62182  0.24248  Biso   1.000  N
  N162     1.0000 0.96430  0.63373  0.24724  Biso   1.000  N
  C321     1.0000 0.00334  0.60470  0.26132  Biso   1.000  C
  H401     1.0000 0.00020  0.57540  0.28220  Biso   1.000  H
  C322     1.0000 0.98536  0.67209  0.21789  Biso   1.000  C
  C323     1.0000 0.03631  0.66533  0.21541  Biso   1.000  C
  H402     1.0000 0.05980  0.68670  0.19810  Biso   1.000  H
  C324     1.0000 0.95410  0.71301  0.19584  Biso   1.000  C
  H403     1.0000 0.93330  0.72850  0.22260  Biso   1.000  H
  H404     1.0000 0.93190  0.69880  0.16950  Biso   1.000  H
  H405     1.0000 0.97630  0.73890  0.18080  Biso   1.000  H
  N163     1.0000 0.09824  0.54629  0.27532  Biso   1.000  N
  N164     1.0000 0.10300  0.46214  0.28406  Biso   1.000  N
  C325     1.0000 0.10859  0.50132  0.25354  Biso   1.000  C
  H406     1.0000 0.11900  0.49810  0.21910  Biso   1.000  H
  C326     1.0000 0.08795  0.48341  0.32986  Biso   1.000  C
  C327     1.0000 0.08558  0.53456  0.32453  Biso   1.000  C
  H407     1.0000 0.07670  0.55820  0.35040  Biso   1.000  H
  C328     1.0000 0.07747  0.45026  0.37511  Biso   1.000  C
  H408     1.0000 0.04780  0.42880  0.36820  Biso   1.000  H
  H409     1.0000 0.07070  0.47160  0.40490  Biso   1.000  H
  H410     1.0000 0.10710  0.42870  0.38180  Biso   1.000  H
  N165     1.0000 0.12766  0.59650  0.19906  Biso   1.000  N
  N166     1.0000 0.18538  0.60121  0.13707  Biso   1.000  N
  C329     1.0000 0.17475  0.60941  0.18582  Biso   1.000  C
  H411     1.0000 0.19860  0.62330  0.20910  Biso   1.000  H
  C330     1.0000 0.14106  0.58142  0.11632  Biso   1.000  C
  C331     1.0000 0.10542  0.57793  0.15470  Biso   1.000  C
  H412     1.0000 0.07180  0.56520  0.15140  Biso   1.000  H
  C332     1.0000 0.13529  0.56694  0.06181  Biso   1.000  C
  H413     1.0000 0.13190  0.59770  0.04110  Biso   1.000  H
  H414     1.0000 0.10490  0.54580  0.05770  Biso   1.000  H
  H415     1.0000 0.16530  0.54780  0.05080  Biso   1.000  H
  N167     1.0000 0.13078  0.63427  0.28778  Biso   1.000  N
  N168     1.0000 0.14561  0.69725  0.34291  Biso   1.000  N
  C333     1.0000 0.11415  0.67719  0.30971  Biso   1.000  C
  H416     1.0000 0.08210  0.69190  0.30190  Biso   1.000  H
  C334     1.0000 0.18676  0.66457  0.34339  Biso   1.000  C
  C335     1.0000 0.17827  0.62611  0.31092  Biso   1.000  C
  H417     1.0000 0.20050  0.59830  0.30470  Biso   1.000  H
  C336     1.0000 0.23093  0.67411  0.37573  Biso   1.000  C
  H418     1.0000 0.25510  0.64600  0.37230  Biso   1.000  H
  H419     1.0000 0.22000  0.67680  0.41130  Biso   1.000  H
  H420     1.0000 0.24730  0.70590  0.36530  Biso   1.000  H
  Li22     1.0000 0.89129  0.39040  0.74464  Biso   1.000  Li
  B22      1.0000 0.10198  0.40001  0.74894  Biso   1.000  B
  N169     1.0000 0.04809  0.37818  0.75752  Biso   1.000  N
  N170     1.0000 0.96430  0.36627  0.75276  Biso   1.000  N
  C337     1.0000 0.00334  0.39530  0.73868  Biso   1.000  C
  H421     1.0000 0.00020  0.42460  0.71780  Biso   1.000  H
  C338     1.0000 0.98536  0.32791  0.78211  Biso   1.000  C
  C339     1.0000 0.03631  0.33467  0.78459  Biso   1.000  C
  H422     1.0000 0.05980  0.31330  0.80190  Biso   1.000  H
  C340     1.0000 0.95410  0.28699  0.80416  Biso   1.000  C
  H423     1.0000 0.93330  0.27150  0.77740  Biso   1.000  H
  H424     1.0000 0.93190  0.30120  0.83050  Biso   1.000  H
  H425     1.0000 0.97630  0.26110  0.81920  Biso   1.000  H
  N171     1.0000 0.09824  0.45371  0.72468  Biso   1.000  N
  N172     1.0000 0.10300  0.53786  0.71594  Biso   1.000  N
  C341     1.0000 0.10859  0.49868  0.74646  Biso   1.000  C
  H426     1.0000 0.11900  0.50190  0.78090  Biso   1.000  H
  C342     1.0000 0.08795  0.51659  0.67014  Biso   1.000  C
  C343     1.0000 0.08558  0.46544  0.67547  Biso   1.000  C
  H427     1.0000 0.07670  0.44180  0.64960  Biso   1.000  H
  C344     1.0000 0.07747  0.54974  0.62489  Biso   1.000  C
  H428     1.0000 0.04780  0.57120  0.63180  Biso   1.000  H
  H429     1.0000 0.07070  0.52840  0.59510  Biso   1.000  H
  H430     1.0000 0.10710  0.57130  0.61820  Biso   1.000  H
  N173     1.0000 0.12766  0.40350  0.80094  Biso   1.000  N
  N174     1.0000 0.18538  0.39879  0.86293  Biso   1.000  N
  C345     1.0000 0.17475  0.39059  0.81418  Biso   1.000  C
  H431     1.0000 0.19860  0.37670  0.79090  Biso   1.000  H
  C346     1.0000 0.14106  0.41858  0.88368  Biso   1.000  C
  C347     1.0000 0.10542  0.42207  0.84530  Biso   1.000  C
  H432     1.0000 0.07180  0.43480  0.84860  Biso   1.000  H
  C348     1.0000 0.13529  0.43306  0.93819  Biso   1.000  C
  H433     1.0000 0.13190  0.40230  0.95890  Biso   1.000  H
  H434     1.0000 0.10490  0.45420  0.94230  Biso   1.000  H
  H435     1.0000 0.16530  0.45220  0.94920  Biso   1.000  H
  N175     1.0000 0.13078  0.36573  0.71222  Biso   1.000  N
  N176     1.0000 0.14561  0.30275  0.65709  Biso   1.000  N
  C349     1.0000 0.11415  0.32281  0.69029  Biso   1.000  C
  H436     1.0000 0.08210  0.30810  0.69810  Biso   1.000  H
  C350     1.0000 0.18676  0.33543  0.65661  Biso   1.000  C
  C351     1.0000 0.17827  0.37389  0.68908  Biso   1.000  C
  H437     1.0000 0.20050  0.40170  0.69530  Biso   1.000  H
  C352     1.0000 0.23093  0.32589  0.62427  Biso   1.000  C
  H438     1.0000 0.25510  0.35400  0.62770  Biso   1.000  H
  H439     1.0000 0.22000  0.32320  0.58870  Biso   1.000  H
  H440     1.0000 0.24730  0.29410  0.63470  Biso   1.000  H
  Li23     1.0000 0.10871  0.60960  0.74464  Biso   1.000  Li
  B23      1.0000 0.89802  0.59999  0.74894  Biso   1.000  B
  N177     1.0000 0.95191  0.62182  0.75752  Biso   1.000  N
  N178     1.0000 0.03570  0.63373  0.75276  Biso   1.000  N
  C353     1.0000 0.99666  0.60470  0.73868  Biso   1.000  C
  H441     1.0000 0.99980  0.57540  0.71780  Biso   1.000  H
  C354     1.0000 0.01464  0.67209  0.78211  Biso   1.000  C
  C355     1.0000 0.96369  0.66533  0.78459  Biso   1.000  C
  H442     1.0000 0.94020  0.68670  0.80190  Biso   1.000  H
  C356     1.0000 0.04590  0.71301  0.80416  Biso   1.000  C
  H443     1.0000 0.06670  0.72850  0.77740  Biso   1.000  H
  H444     1.0000 0.06810  0.69880  0.83050  Biso   1.000  H
  H445     1.0000 0.02370  0.73890  0.81920  Biso   1.000  H
  N179     1.0000 0.90176  0.54629  0.72468  Biso   1.000  N
  N180     1.0000 0.89700  0.46214  0.71594  Biso   1.000  N
  C357     1.0000 0.89141  0.50132  0.74646  Biso   1.000  C
  H446     1.0000 0.88100  0.49810  0.78090  Biso   1.000  H
  C358     1.0000 0.91205  0.48341  0.67014  Biso   1.000  C
  C359     1.0000 0.91442  0.53456  0.67547  Biso   1.000  C
  H447     1.0000 0.92330  0.55820  0.64960  Biso   1.000  H
  C360     1.0000 0.92253  0.45026  0.62489  Biso   1.000  C
  H448     1.0000 0.95220  0.42880  0.63180  Biso   1.000  H
  H449     1.0000 0.92930  0.47160  0.59510  Biso   1.000  H
  H450     1.0000 0.89290  0.42870  0.61820  Biso   1.000  H
  N181     1.0000 0.87234  0.59650  0.80094  Biso   1.000  N
  N182     1.0000 0.81462  0.60121  0.86293  Biso   1.000  N
  C361     1.0000 0.82525  0.60941  0.81418  Biso   1.000  C
  H451     1.0000 0.80140  0.62330  0.79090  Biso   1.000  H
  C362     1.0000 0.85894  0.58142  0.88368  Biso   1.000  C
  C363     1.0000 0.89458  0.57793  0.84530  Biso   1.000  C
  H452     1.0000 0.92820  0.56520  0.84860  Biso   1.000  H
  C364     1.0000 0.86471  0.56694  0.93819  Biso   1.000  C
  H453     1.0000 0.86810  0.59770  0.95890  Biso   1.000  H
  H454     1.0000 0.89510  0.54580  0.94230  Biso   1.000  H
  H455     1.0000 0.83470  0.54780  0.94920  Biso   1.000  H
  N183     1.0000 0.86922  0.63427  0.71222  Biso   1.000  N
  N184     1.0000 0.85439  0.69725  0.65709  Biso   1.000  N
  C365     1.0000 0.88585  0.67719  0.69029  Biso   1.000  C
  H456     1.0000 0.91790  0.69190  0.69810  Biso   1.000  H
  C366     1.0000 0.81324  0.66457  0.65661  Biso   1.000  C
  C367     1.0000 0.82173  0.62611  0.68908  Biso   1.000  C
  H457     1.0000 0.79950  0.59830  0.69530  Biso   1.000  H
  C368     1.0000 0.76907  0.67411  0.62427  Biso   1.000  C
  H458     1.0000 0.74490  0.64600  0.62770  Biso   1.000  H
  H459     1.0000 0.78000  0.67680  0.58870  Biso   1.000  H
  H460     1.0000 0.75270  0.70590  0.63470  Biso   1.000  H
  Li24     1.0000 0.10871  0.39040  0.25536  Biso   1.000  Li
  B24      1.0000 0.89802  0.40001  0.25106  Biso   1.000  B
  N185     1.0000 0.95191  0.37818  0.24248  Biso   1.000  N
  N186     1.0000 0.03570  0.36627  0.24724  Biso   1.000  N
  C369     1.0000 0.99666  0.39530  0.26132  Biso   1.000  C
  H461     1.0000 0.99980  0.42460  0.28220  Biso   1.000  H
  C370     1.0000 0.01464  0.32791  0.21789  Biso   1.000  C
  C371     1.0000 0.96369  0.33467  0.21541  Biso   1.000  C
  H462     1.0000 0.94020  0.31330  0.19810  Biso   1.000  H
  C372     1.0000 0.04590  0.28699  0.19584  Biso   1.000  C
  H463     1.0000 0.06670  0.27150  0.22260  Biso   1.000  H
  H464     1.0000 0.06810  0.30120  0.16950  Biso   1.000  H
  H465     1.0000 0.02370  0.26110  0.18080  Biso   1.000  H
  N187     1.0000 0.90176  0.45371  0.27532  Biso   1.000  N
  N188     1.0000 0.89700  0.53786  0.28406  Biso   1.000  N
  C373     1.0000 0.89141  0.49868  0.25354  Biso   1.000  C
  H466     1.0000 0.88100  0.50190  0.21910  Biso   1.000  H
  C374     1.0000 0.91205  0.51659  0.32986  Biso   1.000  C
  C375     1.0000 0.91442  0.46544  0.32453  Biso   1.000  C
  H467     1.0000 0.92330  0.44180  0.35040  Biso   1.000  H
  C376     1.0000 0.92253  0.54974  0.37511  Biso   1.000  C
  H468     1.0000 0.95220  0.57120  0.36820  Biso   1.000  H
  H469     1.0000 0.92930  0.52840  0.40490  Biso   1.000  H
  H470     1.0000 0.89290  0.57130  0.38180  Biso   1.000  H
  N189     1.0000 0.87234  0.40350  0.19906  Biso   1.000  N
  N190     1.0000 0.81462  0.39879  0.13707  Biso   1.000  N
  C377     1.0000 0.82525  0.39059  0.18582  Biso   1.000  C
  H471     1.0000 0.80140  0.37670  0.20910  Biso   1.000  H
  C378     1.0000 0.85894  0.41858  0.11632  Biso   1.000  C
  C379     1.0000 0.89458  0.42207  0.15470  Biso   1.000  C
  H472     1.0000 0.92820  0.43480  0.15140  Biso   1.000  H
  C380     1.0000 0.86471  0.43306  0.06181  Biso   1.000  C
  H473     1.0000 0.86810  0.40230  0.04110  Biso   1.000  H
  H474     1.0000 0.89510  0.45420  0.05770  Biso   1.000  H
  H475     1.0000 0.83470  0.45220  0.05080  Biso   1.000  H
  N191     1.0000 0.86922  0.36573  0.28778  Biso   1.000  N
  N192     1.0000 0.85439  0.30275  0.34291  Biso   1.000  N
  C381     1.0000 0.88585  0.32281  0.30971  Biso   1.000  C
  H476     1.0000 0.91790  0.30810  0.30190  Biso   1.000  H
  C382     1.0000 0.81324  0.33543  0.34339  Biso   1.000  C
  C383     1.0000 0.82173  0.37389  0.31092  Biso   1.000  C
  H477     1.0000 0.79950  0.40170  0.30470  Biso   1.000  H
  C384     1.0000 0.76907  0.32589  0.37573  Biso   1.000  C
  H478     1.0000 0.74490  0.35400  0.37230  Biso   1.000  H
  H479     1.0000 0.78000  0.32320  0.41130  Biso   1.000  H
  H480     1.0000 0.75270  0.29410  0.36530  Biso   1.000  H
