data_image0
_cell_length_a       28.4727
_cell_length_b       28.4727
_cell_length_c       28.4727
_cell_angle_alpha    96.5294
_cell_angle_beta     116.305
_cell_angle_gamma    116.305

_symmetry_space_group_name_H-M    P 1
_symmetry_int_tables_number       1

loop_
  _symmetry_equiv_pos_as_xyz
  'x, y, z'

loop_
  _atom_site_label
  _atom_site_occupancy
  _atom_site_fract_x
  _atom_site_fract_y
  _atom_site_fract_z
  _atom_site_thermal_displace_type
  _atom_site_B_iso_or_equiv
  _atom_site_type_symbol
  Zn1      1.0000 0.60550  0.53934  0.31662  Biso   1.000  Zn
  Zn2      1.0000 0.52778  0.38824  0.27626  Biso   1.000  Zn
  Zn3      1.0000 0.48843  0.57332  0.27829  Biso   1.000  Zn
  Zn4      1.0000 0.71545  0.60652  0.46773  Biso   1.000  Zn
  Zn5      1.0000 0.68452  0.58336  0.24296  Biso   1.000  Zn
  Zn6      1.0000 0.10550  0.78888  0.06616  Biso   1.000  Zn
  Zn7      1.0000 0.02778  0.75152  0.13954  Biso   1.000  Zn
  Zn8      1.0000 0.98843  0.71014  0.91511  Biso   1.000  Zn
  Zn9      1.0000 0.21545  0.74772  0.10893  Biso   1.000  Zn
  Zn10     1.0000 0.18452  0.94156  0.10116  Biso   1.000  Zn
  H1       1.0000 0.38580  0.20500  0.11900  Biso   1.000  H
  H2       1.0000 0.41340  0.22080  0.27140  Biso   1.000  H
  H3       1.0000 0.34020  0.12490  0.23710  Biso   1.000  H
  H4       1.0000 0.24650  0.60270  0.08960  Biso   1.000  H
  H5       1.0000 0.37620  0.73500  0.23800  Biso   1.000  H
  H6       1.0000 0.42920  0.69140  0.26760  Biso   1.000  H
  H7       1.0000 0.86830  0.69010  0.51200  Biso   1.000  H
  H8       1.0000 0.95580  0.74330  0.51010  Biso   1.000  H
  H9       1.0000 0.94530  0.74060  0.42470  Biso   1.000  H
  H10      1.0000 0.84720  0.68480  0.34120  Biso   1.000  H
  H11      1.0000 0.33980  0.46200  0.21920  Biso   1.000  H
  H12      1.0000 0.25570  0.36970  0.18320  Biso   1.000  H
  H13      1.0000 0.27140  0.29680  0.18320  Biso   1.000  H
  H14      1.0000 0.37130  0.31630  0.21940  Biso   1.000  H
  H15      1.0000 0.52530  0.68120  0.38150  Biso   1.000  H
  H16      1.0000 0.57850  0.75080  0.47010  Biso   1.000  H
  H17      1.0000 0.66920  0.76540  0.54580  Biso   1.000  H
  H18      1.0000 0.70660  0.71060  0.53300  Biso   1.000  H
  H19      1.0000 0.56650  0.32640  0.20410  Biso   1.000  H
  H20      1.0000 0.60900  0.31530  0.15390  Biso   1.000  H
  H21      1.0000 0.67190  0.39260  0.14190  Biso   1.000  H
  H22      1.0000 0.69210  0.48110  0.18000  Biso   1.000  H
  H23      1.0000 0.48770  0.64740  0.18730  Biso   1.000  H
  H24      1.0000 0.51640  0.69580  0.13620  Biso   1.000  H
  H25      1.0000 0.59460  0.70210  0.12750  Biso   1.000  H
  H26      1.0000 0.64410  0.66000  0.16990  Biso   1.000  H
  H27      1.0000 0.57300  0.34590  0.38850  Biso   1.000  H
  H28      1.0000 0.62660  0.34820  0.47740  Biso   1.000  H
  H29      1.0000 0.70310  0.43320  0.55250  Biso   1.000  H
  H30      1.0000 0.72600  0.51580  0.53860  Biso   1.000  H
  H31      1.0000 0.29400  0.06870  0.05810  Biso   1.000  H
  H32      1.0000 0.32690  0.12400  0.05350  Biso   1.000  H
  H33      1.0000 0.31140  0.52950  0.12490  Biso   1.000  H
  H34      1.0000 0.25870  0.53000  0.07970  Biso   1.000  H
  H35      1.0000 0.88580  0.76680  0.18080  Biso   1.000  H
  H36      1.0000 0.91340  0.64200  0.19260  Biso   1.000  H
  H37      1.0000 0.84020  0.60310  0.21530  Biso   1.000  H
  H38      1.0000 0.74650  0.65690  0.64380  Biso   1.000  H
  H39      1.0000 0.87620  0.63820  0.64120  Biso   1.000  H
  H40      1.0000 0.92920  0.66160  0.73780  Biso   1.000  H
  H41      1.0000 0.36830  0.85630  0.17820  Biso   1.000  H
  H42      1.0000 0.45580  0.94570  0.21250  Biso   1.000  H
  H43      1.0000 0.44530  0.02060  0.20470  Biso   1.000  H
  H44      1.0000 0.34720  0.00600  0.16240  Biso   1.000  H
  H45      1.0000 0.83980  0.62060  0.87780  Biso   1.000  H
  H46      1.0000 0.75570  0.57250  0.88600  Biso   1.000  H
  H47      1.0000 0.77140  0.58820  0.97460  Biso   1.000  H
  H48      1.0000 0.87130  0.65190  0.05500  Biso   1.000  H
  H49      1.0000 0.02530  0.64380  0.84410  Biso   1.000  H
  H50      1.0000 0.07850  0.60840  0.82770  Biso   1.000  H
  H51      1.0000 0.16920  0.62340  0.90380  Biso   1.000  H
  H52      1.0000 0.20660  0.67360  0.99600  Biso   1.000  H
  H53      1.0000 0.06650  0.86240  0.24010  Biso   1.000  H
  H54      1.0000 0.10900  0.95510  0.29370  Biso   1.000  H
  H55      1.0000 0.17190  0.03000  0.27930  Biso   1.000  H
  H56      1.0000 0.19210  0.01210  0.21100  Biso   1.000  H
  H57      1.0000 0.98770  0.80040  0.84030  Biso   1.000  H
  H58      1.0000 0.01640  0.88020  0.82060  Biso   1.000  H
  H59      1.0000 0.09460  0.96710  0.89250  Biso   1.000  H
  H60      1.0000 0.14410  0.97420  0.98410  Biso   1.000  H
  H61      1.0000 0.07300  0.68450  0.22710  Biso   1.000  H
  H62      1.0000 0.12660  0.64920  0.27840  Biso   1.000  H
  H63      1.0000 0.20310  0.65060  0.26990  Biso   1.000  H
  H64      1.0000 0.22600  0.68740  0.21020  Biso   1.000  H
  H65      1.0000 0.79400  0.73590  0.22530  Biso   1.000  H
  H66      1.0000 0.82690  0.77340  0.20290  Biso   1.000  H
  H67      1.0000 0.81140  0.68650  0.78190  Biso   1.000  H
  H68      1.0000 0.75870  0.67900  0.72870  Biso   1.000  H
  C1       1.0000 0.31940  0.10780  0.15760  Biso   1.000  C
  C2       1.0000 0.33290  0.13170  0.12240  Biso   1.000  C
  C3       1.0000 0.37660  0.18890  0.14290  Biso   1.000  C
  C4       1.0000 0.40660  0.22210  0.19850  Biso   1.000  C
  C5       1.0000 0.39310  0.19830  0.23380  Biso   1.000  C
  C6       1.0000 0.34940  0.14110  0.21330  Biso   1.000  C
  C7       1.0000 0.45350  0.28270  0.22260  Biso   1.000  C
  C8       1.0000 0.26910  0.04200  0.13390  Biso   1.000  C
  C9       1.0000 0.36950  0.62100  0.19630  Biso   1.000  C
  C10      1.0000 0.31500  0.59460  0.14320  Biso   1.000  C
  C11      1.0000 0.28340  0.62060  0.12560  Biso   1.000  C
  C12      1.0000 0.30630  0.67310  0.16100  Biso   1.000  C
  C13      1.0000 0.36070  0.69950  0.21400  Biso   1.000  C
  C14      1.0000 0.39240  0.67350  0.23170  Biso   1.000  C
  C15      1.0000 0.40640  0.59360  0.22000  Biso   1.000  C
  C16      1.0000 0.26920  0.69510  0.13430  Biso   1.000  C
  C17      1.0000 0.79930  0.65420  0.37690  Biso   1.000  C
  C18      1.0000 0.80560  0.65580  0.42780  Biso   1.000  C
  C19      1.0000 0.86410  0.68910  0.47760  Biso   1.000  C
  C20      1.0000 0.91620  0.72080  0.47640  Biso   1.000  C
  C21      1.0000 0.90990  0.71920  0.42550  Biso   1.000  C
  C22      1.0000 0.85150  0.68590  0.37580  Biso   1.000  C
  C23      1.0000 0.41520  0.40090  0.24090  Biso   1.000  C
  C24      1.0000 0.40570  0.44430  0.24080  Biso   1.000  C
  C25      1.0000 0.34610  0.43270  0.21920  Biso   1.000  C
  C26      1.0000 0.29590  0.37760  0.19770  Biso   1.000  C
  C27      1.0000 0.30530  0.33410  0.19780  Biso   1.000  C
  C28      1.0000 0.36490  0.34570  0.21940  Biso   1.000  C
  C29      1.0000 0.63840  0.66310  0.44950  Biso   1.000  C
  C30      1.0000 0.58400  0.65429  0.40409  Biso   1.000  C
  C31      1.0000 0.56160  0.68710  0.41190  Biso   1.000  C
  C32      1.0000 0.59350  0.72880  0.46490  Biso   1.000  C
  C33      1.0000 0.64780  0.73750  0.51030  Biso   1.000  C
  C34      1.0000 0.67030  0.70480  0.50270  Biso   1.000  C
  C35      1.0000 0.64140  0.45673  0.21493  Biso   1.000  C
  C36      1.0000 0.60370  0.41040  0.22210  Biso   1.000  C
  C37      1.0000 0.59170  0.35740  0.19930  Biso   1.000  C
  C38      1.0000 0.61721  0.35079  0.16920  Biso   1.000  C
  C39      1.0000 0.65490  0.39712  0.16202  Biso   1.000  C
  C40      1.0000 0.66695  0.45010  0.18485  Biso   1.000  C
  C41      1.0000 0.59520  0.62870  0.20370  Biso   1.000  C
  C42      1.0000 0.54890  0.62500  0.20890  Biso   1.000  C
  C43      1.0000 0.51960  0.65000  0.18380  Biso   1.000  C
  C44      1.0000 0.53660  0.67870  0.15350  Biso   1.000  C
  C45      1.0000 0.58300  0.68240  0.14840  Biso   1.000  C
  C46      1.0000 0.61220  0.65740  0.17340  Biso   1.000  C
  C47      1.0000 0.66300  0.47970  0.45530  Biso   1.000  C
  C48      1.0000 0.61770  0.42940  0.41090  Biso   1.000  C
  C49      1.0000 0.60420  0.38050  0.41910  Biso   1.000  C
  C50      1.0000 0.63600  0.38200  0.47180  Biso   1.000  C
  C51      1.0000 0.68120  0.43220  0.51620  Biso   1.000  C
  C52      1.0000 0.69480  0.48120  0.50800  Biso   1.000  C
  C53      1.0000 0.81940  0.66180  0.21160  Biso   1.000  C
  C54      1.0000 0.83290  0.71050  0.20120  Biso   1.000  C
  C55      1.0000 0.87660  0.73370  0.18770  Biso   1.000  C
  C56      1.0000 0.90660  0.70810  0.18450  Biso   1.000  C
  C57      1.0000 0.89310  0.65930  0.19480  Biso   1.000  C
  C58      1.0000 0.84940  0.63610  0.20830  Biso   1.000  C
  C59      1.0000 0.95350  0.73090  0.17080  Biso   1.000  C
  C60      1.0000 0.76910  0.63520  0.22710  Biso   1.000  C
  C61      1.0000 0.86950  0.67320  0.74850  Biso   1.000  C
  C62      1.0000 0.81500  0.67180  0.72040  Biso   1.000  C
  C63      1.0000 0.78340  0.65780  0.66280  Biso   1.000  C
  C64      1.0000 0.80630  0.64530  0.63320  Biso   1.000  C
  C65      1.0000 0.86070  0.64670  0.66120  Biso   1.000  C
  C66      1.0000 0.89240  0.66070  0.71890  Biso   1.000  C
  C67      1.0000 0.90640  0.68640  0.81280  Biso   1.000  C
  C68      1.0000 0.76920  0.63490  0.57410  Biso   1.000  C
  C69      1.0000 0.29930  0.92240  0.14510  Biso   1.000  C
  C70      1.0000 0.30560  0.87780  0.14980  Biso   1.000  C
  C71      1.0000 0.36410  0.88650  0.17500  Biso   1.000  C
  C72      1.0000 0.41620  0.93980  0.19540  Biso   1.000  C
  C73      1.0000 0.40990  0.98440  0.19070  Biso   1.000  C
  C74      1.0000 0.35150  0.97570  0.16560  Biso   1.000  C
  C75      1.0000 0.91520  0.67430  0.01430  Biso   1.000  C
  C76      1.0000 0.90570  0.66490  0.96140  Biso   1.000  C
  C77      1.0000 0.84610  0.62690  0.91340  Biso   1.000  C
  C78      1.0000 0.79590  0.59820  0.91830  Biso   1.000  C
  C79      1.0000 0.80530  0.60750  0.97120  Biso   1.000  C
  C80      1.0000 0.86490  0.64550  0.01920  Biso   1.000  C
  C81      1.0000 0.13840  0.68890  0.97530  Biso   1.000  C
  C82      1.0000 0.08400  0.67991  0.92971  Biso   1.000  C
  C83      1.0000 0.06160  0.64970  0.87450  Biso   1.000  C
  C84      1.0000 0.09350  0.62860  0.86470  Biso   1.000  C
  C85      1.0000 0.14780  0.63750  0.91030  Biso   1.000  C
  C86      1.0000 0.17030  0.66760  0.96550  Biso   1.000  C
  C87      1.0000 0.14140  0.92647  0.18467  Biso   1.000  C
  C88      1.0000 0.10370  0.88160  0.19330  Biso   1.000  C
  C89      1.0000 0.09170  0.89240  0.23430  Biso   1.000  C
  C90      1.0000 0.11721  0.94801  0.26642  Biso   1.000  C
  C91      1.0000 0.15490  0.99288  0.25778  Biso   1.000  C
  C92      1.0000 0.16695  0.98210  0.21685  Biso   1.000  C
  C93      1.0000 0.09520  0.89150  0.96650  Biso   1.000  C
  C94      1.0000 0.04890  0.84000  0.92390  Biso   1.000  C
  C95      1.0000 0.01960  0.83580  0.86960  Biso   1.000  C
  C96      1.0000 0.03660  0.88310  0.85790  Biso   1.000  C
  C97      1.0000 0.08300  0.93460  0.90060  Biso   1.000  C
  C98      1.0000 0.11220  0.93880  0.95480  Biso   1.000  C
  C99      1.0000 0.16300  0.70770  0.18330  Biso   1.000  C
  C100     1.0000 0.11770  0.70680  0.18830  Biso   1.000  C
  C101     1.0000 0.10420  0.68510  0.22370  Biso   1.000  C
  C102     1.0000 0.13600  0.66420  0.25400  Biso   1.000  C
  C103     1.0000 0.18120  0.66500  0.24900  Biso   1.000  C
  C104     1.0000 0.19480  0.68680  0.21360  Biso   1.000  C
  N1       1.0000 0.73680  0.61760  0.33460  Biso   1.000  N
  N2       1.0000 0.70770  0.59990  0.35980  Biso   1.000  N
  N3       1.0000 0.74840  0.62290  0.41690  Biso   1.000  N
  N4       1.0000 0.47590  0.42090  0.26040  Biso   1.000  N
  N5       1.0000 0.50390  0.47650  0.27500  Biso   1.000  N
  N6       1.0000 0.46330  0.49110  0.26300  Biso   1.000  N
  N7       1.0000 0.65110  0.62540  0.43170  Biso   1.000  N
  N8       1.0000 0.60600  0.59660  0.37620  Biso   1.000  N
  N9       1.0000 0.56670  0.61390  0.35980  Biso   1.000  N
  N10      1.0000 0.64270  0.50160  0.24050  Biso   1.000  N
  N11      1.0000 0.60860  0.48130  0.26230  Biso   1.000  N
  N12      1.0000 0.58430  0.42640  0.25130  Biso   1.000  N
  N13      1.0000 0.61870  0.60160  0.23350  Biso   1.000  N
  N14      1.0000 0.58690  0.58070  0.25740  Biso   1.000  N
  N15      1.0000 0.54310  0.59250  0.24240  Biso   1.000  N
  N16      1.0000 0.66450  0.51990  0.43420  Biso   1.000  N
  N17      1.0000 0.62130  0.49360  0.37770  Biso   1.000  N
  N18      1.0000 0.59110  0.43760  0.36130  Biso   1.000  N
  N19      1.0000 0.31610  0.10520  0.07250  Biso   1.000  N
  N20      1.0000 0.29290  0.54660  0.11290  Biso   1.000  N
  N21      1.0000 0.23680  0.90220  0.11920  Biso   1.000  N
  N22      1.0000 0.20770  0.84790  0.10780  Biso   1.000  N
  N23      1.0000 0.24840  0.83150  0.12550  Biso   1.000  N
  N24      1.0000 0.97590  0.71550  0.05500  Biso   1.000  N
  N25      1.0000 0.00390  0.72890  0.02740  Biso   1.000  N
  N26      1.0000 0.96330  0.70030  0.97220  Biso   1.000  N
  N27      1.0000 0.15110  0.71940  0.02570  Biso   1.000  N
  N28      1.0000 0.10600  0.72980  0.00940  Biso   1.000  N
  N29      1.0000 0.06670  0.70690  0.95280  Biso   1.000  N
  N30      1.0000 0.14270  0.90220  0.14110  Biso   1.000  N
  N31      1.0000 0.10860  0.84630  0.12730  Biso   1.000  N
  N32      1.0000 0.08430  0.83300  0.15790  Biso   1.000  N
  N33      1.0000 0.11870  0.88520  0.01710  Biso   1.000  N
  N34      1.0000 0.08690  0.82950  0.00620  Biso   1.000  N
  N35      1.0000 0.04310  0.80070  0.95060  Biso   1.000  N
  N36      1.0000 0.16450  0.73030  0.14460  Biso   1.000  N
  N37      1.0000 0.12130  0.74360  0.12770  Biso   1.000  N
  N38      1.0000 0.09110  0.72980  0.15350  Biso   1.000  N
  N39      1.0000 0.81610  0.74360  0.21090  Biso   1.000  N
  N40      1.0000 0.79290  0.68000  0.74630  Biso   1.000  N
  O1       1.0000 0.48310  0.31030  0.27640  Biso   1.000  O
  O2       1.0000 0.45960  0.30900  0.19380  Biso   1.000  O
  O3       1.0000 0.25580  0.02250  0.16650  Biso   1.000  O
  O4       1.0000 0.24280  0.01020  0.08400  Biso   1.000  O
  O5       1.0000 0.45940  0.62610  0.26950  Biso   1.000  O
  O6       1.0000 0.38990  0.54620  0.19310  Biso   1.000  O
  O7       1.0000 0.29370  0.74740  0.16170  Biso   1.000  O
  O8       1.0000 0.21480  0.66910  0.09370  Biso   1.000  O
  O9       1.0000 0.98310  0.70670  0.17280  Biso   1.000  O
  O10      1.0000 0.95960  0.76580  0.15060  Biso   1.000  O
  O11      1.0000 0.75580  0.58930  0.23330  Biso   1.000  O
  O12      1.0000 0.74280  0.65880  0.23260  Biso   1.000  O
  O13      1.0000 0.95940  0.68990  0.83330  Biso   1.000  O
  O14      1.0000 0.88990  0.69680  0.84370  Biso   1.000  O
  O15      1.0000 0.79370  0.63200  0.54630  Biso   1.000  O
  O16      1.0000 0.71480  0.62110  0.54570  Biso   1.000  O
  Zn11     1.0000 0.89450  0.21112  0.93384  Biso   1.000  Zn
  Zn12     1.0000 0.97222  0.24848  0.86046  Biso   1.000  Zn
  Zn13     1.0000 0.01157  0.28986  0.08489  Biso   1.000  Zn
  Zn14     1.0000 0.78455  0.25228  0.89107  Biso   1.000  Zn
  Zn15     1.0000 0.81548  0.05844  0.89884  Biso   1.000  Zn
  Zn16     1.0000 0.39450  0.46066  0.68338  Biso   1.000  Zn
  Zn17     1.0000 0.47222  0.61176  0.72374  Biso   1.000  Zn
  Zn18     1.0000 0.51157  0.42668  0.72171  Biso   1.000  Zn
  Zn19     1.0000 0.28455  0.39348  0.53227  Biso   1.000  Zn
  Zn20     1.0000 0.31548  0.41664  0.75704  Biso   1.000  Zn
  H69      1.0000 0.11420  0.23320  0.81920  Biso   1.000  H
  H70      1.0000 0.08660  0.35800  0.80740  Biso   1.000  H
  H71      1.0000 0.15980  0.39690  0.78470  Biso   1.000  H
  H72      1.0000 0.25350  0.34310  0.35620  Biso   1.000  H
  H73      1.0000 0.12380  0.36180  0.35880  Biso   1.000  H
  H74      1.0000 0.07080  0.33840  0.26220  Biso   1.000  H
  H75      1.0000 0.63170  0.14370  0.82180  Biso   1.000  H
  H76      1.0000 0.54420  0.05430  0.78750  Biso   1.000  H
  H77      1.0000 0.55470  0.97940  0.79530  Biso   1.000  H
  H78      1.0000 0.65280  0.99400  0.83760  Biso   1.000  H
  H79      1.0000 0.16020  0.37940  0.12220  Biso   1.000  H
  H80      1.0000 0.24430  0.42750  0.11400  Biso   1.000  H
  H81      1.0000 0.22860  0.41180  0.02540  Biso   1.000  H
  H82      1.0000 0.12870  0.34810  0.94500  Biso   1.000  H
  H83      1.0000 0.97470  0.35620  0.15590  Biso   1.000  H
  H84      1.0000 0.92150  0.39160  0.17230  Biso   1.000  H
  H85      1.0000 0.83080  0.37660  0.09620  Biso   1.000  H
  H86      1.0000 0.79340  0.32640  0.00400  Biso   1.000  H
  H87      1.0000 0.93350  0.13760  0.75990  Biso   1.000  H
  H88      1.0000 0.89100  0.04490  0.70630  Biso   1.000  H
  H89      1.0000 0.82810  0.97000  0.72070  Biso   1.000  H
  H90      1.0000 0.80790  0.98790  0.78900  Biso   1.000  H
  H91      1.0000 0.01230  0.19960  0.15970  Biso   1.000  H
  H92      1.0000 0.98360  0.11980  0.17940  Biso   1.000  H
  H93      1.0000 0.90540  0.03290  0.10750  Biso   1.000  H
  H94      1.0000 0.85590  0.02580  0.01590  Biso   1.000  H
  H95      1.0000 0.92700  0.31550  0.77290  Biso   1.000  H
  H96      1.0000 0.87340  0.35080  0.72160  Biso   1.000  H
  H97      1.0000 0.79690  0.34940  0.73010  Biso   1.000  H
  H98      1.0000 0.77400  0.31260  0.78980  Biso   1.000  H
  H99      1.0000 0.20600  0.26410  0.77470  Biso   1.000  H
  H100     1.0000 0.17310  0.22660  0.79710  Biso   1.000  H
  H101     1.0000 0.18860  0.31350  0.21810  Biso   1.000  H
  H102     1.0000 0.24130  0.32100  0.27130  Biso   1.000  H
  H103     1.0000 0.61420  0.79500  0.88100  Biso   1.000  H
  H104     1.0000 0.58660  0.77920  0.72860  Biso   1.000  H
  H105     1.0000 0.65980  0.87510  0.76290  Biso   1.000  H
  H106     1.0000 0.75350  0.39730  0.91040  Biso   1.000  H
  H107     1.0000 0.62380  0.26500  0.76200  Biso   1.000  H
  H108     1.0000 0.57080  0.30860  0.73240  Biso   1.000  H
  H109     1.0000 0.13170  0.30990  0.48800  Biso   1.000  H
  H110     1.0000 0.04420  0.25670  0.48990  Biso   1.000  H
  H111     1.0000 0.05470  0.25940  0.57530  Biso   1.000  H
  H112     1.0000 0.15280  0.31520  0.65880  Biso   1.000  H
  H113     1.0000 0.66020  0.53800  0.78080  Biso   1.000  H
  H114     1.0000 0.74430  0.63030  0.81680  Biso   1.000  H
  H115     1.0000 0.72860  0.70320  0.81680  Biso   1.000  H
  H116     1.0000 0.62870  0.68370  0.78060  Biso   1.000  H
  H117     1.0000 0.47470  0.31880  0.61850  Biso   1.000  H
  H118     1.0000 0.42150  0.24920  0.52990  Biso   1.000  H
  H119     1.0000 0.33080  0.23460  0.45420  Biso   1.000  H
  H120     1.0000 0.29340  0.28940  0.46700  Biso   1.000  H
  H121     1.0000 0.43350  0.67360  0.79590  Biso   1.000  H
  H122     1.0000 0.39100  0.68470  0.84610  Biso   1.000  H
  H123     1.0000 0.32810  0.60740  0.85810  Biso   1.000  H
  H124     1.0000 0.30790  0.51890  0.82000  Biso   1.000  H
  H125     1.0000 0.51230  0.35260  0.81270  Biso   1.000  H
  H126     1.0000 0.48360  0.30420  0.86380  Biso   1.000  H
  H127     1.0000 0.40540  0.29790  0.87250  Biso   1.000  H
  H128     1.0000 0.35590  0.34000  0.83010  Biso   1.000  H
  H129     1.0000 0.42700  0.65410  0.61150  Biso   1.000  H
  H130     1.0000 0.37340  0.65180  0.52260  Biso   1.000  H
  H131     1.0000 0.29690  0.56680  0.44750  Biso   1.000  H
  H132     1.0000 0.27400  0.48420  0.46140  Biso   1.000  H
  H133     1.0000 0.70600  0.93130  0.94190  Biso   1.000  H
  H134     1.0000 0.67310  0.87600  0.94650  Biso   1.000  H
  H135     1.0000 0.68860  0.47050  0.87510  Biso   1.000  H
  H136     1.0000 0.74130  0.47000  0.92030  Biso   1.000  H
  C105     1.0000 0.18060  0.33820  0.78840  Biso   1.000  C
  C106     1.0000 0.16710  0.28950  0.79880  Biso   1.000  C
  C107     1.0000 0.12340  0.26630  0.81230  Biso   1.000  C
  C108     1.0000 0.09340  0.29190  0.81550  Biso   1.000  C
  C109     1.0000 0.10690  0.34070  0.80520  Biso   1.000  C
  C110     1.0000 0.15060  0.36390  0.79170  Biso   1.000  C
  C111     1.0000 0.04650  0.26910  0.82920  Biso   1.000  C
  C112     1.0000 0.23090  0.36480  0.77290  Biso   1.000  C
  C113     1.0000 0.13050  0.32680  0.25150  Biso   1.000  C
  C114     1.0000 0.18500  0.32820  0.27960  Biso   1.000  C
  C115     1.0000 0.21660  0.34220  0.33720  Biso   1.000  C
  C116     1.0000 0.19370  0.35470  0.36680  Biso   1.000  C
  C117     1.0000 0.13930  0.35330  0.33880  Biso   1.000  C
  C118     1.0000 0.10760  0.33930  0.28110  Biso   1.000  C
  C119     1.0000 0.09360  0.31360  0.18720  Biso   1.000  C
  C120     1.0000 0.23080  0.36510  0.42590  Biso   1.000  C
  C121     1.0000 0.70070  0.07760  0.85490  Biso   1.000  C
  C122     1.0000 0.69440  0.12220  0.85020  Biso   1.000  C
  C123     1.0000 0.63590  0.11350  0.82500  Biso   1.000  C
  C124     1.0000 0.58380  0.06020  0.80460  Biso   1.000  C
  C125     1.0000 0.59010  0.01560  0.80930  Biso   1.000  C
  C126     1.0000 0.64850  0.02430  0.83440  Biso   1.000  C
  C127     1.0000 0.08480  0.32570  0.98570  Biso   1.000  C
  C128     1.0000 0.09430  0.33510  0.03860  Biso   1.000  C
  C129     1.0000 0.15390  0.37310  0.08660  Biso   1.000  C
  C130     1.0000 0.20410  0.40180  0.08170  Biso   1.000  C
  C131     1.0000 0.19470  0.39250  0.02880  Biso   1.000  C
  C132     1.0000 0.13510  0.35450  0.98080  Biso   1.000  C
  C133     1.0000 0.86160  0.31110  0.02470  Biso   1.000  C
  C134     1.0000 0.91600  0.32009  0.07029  Biso   1.000  C
  C135     1.0000 0.93840  0.35030  0.12550  Biso   1.000  C
  C136     1.0000 0.90650  0.37140  0.13530  Biso   1.000  C
  C137     1.0000 0.85220  0.36250  0.08970  Biso   1.000  C
  C138     1.0000 0.82970  0.33240  0.03450  Biso   1.000  C
  C139     1.0000 0.85860  0.07353  0.81533  Biso   1.000  C
  C140     1.0000 0.89630  0.11840  0.80670  Biso   1.000  C
  C141     1.0000 0.90830  0.10760  0.76570  Biso   1.000  C
  C142     1.0000 0.88279  0.05199  0.73358  Biso   1.000  C
  C143     1.0000 0.84510  0.00712  0.74222  Biso   1.000  C
  C144     1.0000 0.83305  0.01790  0.78315  Biso   1.000  C
  C145     1.0000 0.90480  0.10850  0.03350  Biso   1.000  C
  C146     1.0000 0.95110  0.16000  0.07610  Biso   1.000  C
  C147     1.0000 0.98040  0.16420  0.13040  Biso   1.000  C
  C148     1.0000 0.96340  0.11690  0.14210  Biso   1.000  C
  C149     1.0000 0.91700  0.06540  0.09940  Biso   1.000  C
  C150     1.0000 0.88780  0.06120  0.04520  Biso   1.000  C
  C151     1.0000 0.83700  0.29230  0.81670  Biso   1.000  C
  C152     1.0000 0.88230  0.29320  0.81170  Biso   1.000  C
  C153     1.0000 0.89580  0.31490  0.77630  Biso   1.000  C
  C154     1.0000 0.86400  0.33580  0.74600  Biso   1.000  C
  C155     1.0000 0.81880  0.33500  0.75100  Biso   1.000  C
  C156     1.0000 0.80520  0.31320  0.78640  Biso   1.000  C
  C157     1.0000 0.68060  0.89220  0.84240  Biso   1.000  C
  C158     1.0000 0.66710  0.86830  0.87760  Biso   1.000  C
  C159     1.0000 0.62340  0.81110  0.85710  Biso   1.000  C
  C160     1.0000 0.59340  0.77790  0.80150  Biso   1.000  C
  C161     1.0000 0.60690  0.80170  0.76620  Biso   1.000  C
  C162     1.0000 0.65060  0.85890  0.78670  Biso   1.000  C
  C163     1.0000 0.54650  0.71730  0.77740  Biso   1.000  C
  C164     1.0000 0.73090  0.95800  0.86610  Biso   1.000  C
  C165     1.0000 0.63050  0.37900  0.80370  Biso   1.000  C
  C166     1.0000 0.68500  0.40540  0.85680  Biso   1.000  C
  C167     1.0000 0.71660  0.37940  0.87440  Biso   1.000  C
  C168     1.0000 0.69370  0.32690  0.83900  Biso   1.000  C
  C169     1.0000 0.63930  0.30050  0.78600  Biso   1.000  C
  C170     1.0000 0.60760  0.32650  0.76830  Biso   1.000  C
  C171     1.0000 0.59360  0.40640  0.78000  Biso   1.000  C
  C172     1.0000 0.73080  0.30490  0.86570  Biso   1.000  C
  C173     1.0000 0.20070  0.34580  0.62310  Biso   1.000  C
  C174     1.0000 0.19440  0.34420  0.57220  Biso   1.000  C
  C175     1.0000 0.13590  0.31090  0.52240  Biso   1.000  C
  C176     1.0000 0.08380  0.27920  0.52360  Biso   1.000  C
  C177     1.0000 0.09010  0.28080  0.57450  Biso   1.000  C
  C178     1.0000 0.14850  0.31410  0.62420  Biso   1.000  C
  C179     1.0000 0.58480  0.59910  0.75910  Biso   1.000  C
  C180     1.0000 0.59430  0.55570  0.75920  Biso   1.000  C
  C181     1.0000 0.65390  0.56730  0.78080  Biso   1.000  C
  C182     1.0000 0.70410  0.62240  0.80230  Biso   1.000  C
  C183     1.0000 0.69470  0.66590  0.80220  Biso   1.000  C
  C184     1.0000 0.63510  0.65430  0.78060  Biso   1.000  C
  C185     1.0000 0.36160  0.33690  0.55050  Biso   1.000  C
  C186     1.0000 0.41600  0.34571  0.59591  Biso   1.000  C
  C187     1.0000 0.43840  0.31290  0.58810  Biso   1.000  C
  C188     1.0000 0.40650  0.27120  0.53510  Biso   1.000  C
  C189     1.0000 0.35220  0.26250  0.48970  Biso   1.000  C
  C190     1.0000 0.32970  0.29520  0.49730  Biso   1.000  C
  C191     1.0000 0.35860  0.54327  0.78507  Biso   1.000  C
  C192     1.0000 0.39630  0.58960  0.77790  Biso   1.000  C
  C193     1.0000 0.40830  0.64260  0.80070  Biso   1.000  C
  C194     1.0000 0.38279  0.64921  0.83080  Biso   1.000  C
  C195     1.0000 0.34510  0.60288  0.83798  Biso   1.000  C
  C196     1.0000 0.33305  0.54990  0.81515  Biso   1.000  C
  C197     1.0000 0.40480  0.37130  0.79630  Biso   1.000  C
  C198     1.0000 0.45110  0.37500  0.79110  Biso   1.000  C
  C199     1.0000 0.48040  0.35000  0.81620  Biso   1.000  C
  C200     1.0000 0.46340  0.32130  0.84650  Biso   1.000  C
  C201     1.0000 0.41700  0.31760  0.85160  Biso   1.000  C
  C202     1.0000 0.38780  0.34260  0.82660  Biso   1.000  C
  C203     1.0000 0.33700  0.52030  0.54470  Biso   1.000  C
  C204     1.0000 0.38230  0.57060  0.58910  Biso   1.000  C
  C205     1.0000 0.39580  0.61950  0.58090  Biso   1.000  C
  C206     1.0000 0.36400  0.61800  0.52820  Biso   1.000  C
  C207     1.0000 0.31880  0.56780  0.48380  Biso   1.000  C
  C208     1.0000 0.30520  0.51880  0.49200  Biso   1.000  C
  N41      1.0000 0.76320  0.09780  0.88080  Biso   1.000  N
  N42      1.0000 0.79230  0.15210  0.89220  Biso   1.000  N
  N43      1.0000 0.75160  0.16850  0.87450  Biso   1.000  N
  N44      1.0000 0.02410  0.28450  0.94500  Biso   1.000  N
  N45      1.0000 0.99610  0.27110  0.97260  Biso   1.000  N
  N46      1.0000 0.03670  0.29970  0.02780  Biso   1.000  N
  N47      1.0000 0.84890  0.28060  0.97430  Biso   1.000  N
  N48      1.0000 0.89400  0.27020  0.99060  Biso   1.000  N
  N49      1.0000 0.93330  0.29310  0.04720  Biso   1.000  N
  N50      1.0000 0.85730  0.09780  0.85890  Biso   1.000  N
  N51      1.0000 0.89140  0.15370  0.87270  Biso   1.000  N
  N52      1.0000 0.91570  0.16700  0.84210  Biso   1.000  N
  N53      1.0000 0.88130  0.11480  0.98290  Biso   1.000  N
  N54      1.0000 0.91310  0.17050  0.99380  Biso   1.000  N
  N55      1.0000 0.95690  0.19930  0.04940  Biso   1.000  N
  N56      1.0000 0.83550  0.26970  0.85540  Biso   1.000  N
  N57      1.0000 0.87870  0.25640  0.87230  Biso   1.000  N
  N58      1.0000 0.90890  0.27020  0.84650  Biso   1.000  N
  N59      1.0000 0.18390  0.25640  0.78910  Biso   1.000  N
  N60      1.0000 0.20710  0.32000  0.25370  Biso   1.000  N
  N61      1.0000 0.26320  0.38240  0.66540  Biso   1.000  N
  N62      1.0000 0.29230  0.40010  0.64020  Biso   1.000  N
  N63      1.0000 0.25160  0.37710  0.58310  Biso   1.000  N
  N64      1.0000 0.52410  0.57910  0.73960  Biso   1.000  N
  N65      1.0000 0.49610  0.52350  0.72500  Biso   1.000  N
  N66      1.0000 0.53670  0.50890  0.73700  Biso   1.000  N
  N67      1.0000 0.34890  0.37460  0.56830  Biso   1.000  N
  N68      1.0000 0.39400  0.40340  0.62380  Biso   1.000  N
  N69      1.0000 0.43330  0.38610  0.64020  Biso   1.000  N
  N70      1.0000 0.35730  0.49840  0.75950  Biso   1.000  N
  N71      1.0000 0.39140  0.51870  0.73770  Biso   1.000  N
  N72      1.0000 0.41570  0.57360  0.74870  Biso   1.000  N
  N73      1.0000 0.38130  0.39840  0.76650  Biso   1.000  N
  N74      1.0000 0.41310  0.41930  0.74260  Biso   1.000  N
  N75      1.0000 0.45690  0.40750  0.75760  Biso   1.000  N
  N76      1.0000 0.33550  0.48010  0.56580  Biso   1.000  N
  N77      1.0000 0.37870  0.50640  0.62230  Biso   1.000  N
  N78      1.0000 0.40890  0.56240  0.63870  Biso   1.000  N
  N79      1.0000 0.68390  0.89480  0.92750  Biso   1.000  N
  N80      1.0000 0.70710  0.45340  0.88710  Biso   1.000  N
  O17      1.0000 0.01690  0.29330  0.82720  Biso   1.000  O
  O18      1.0000 0.04040  0.23420  0.84940  Biso   1.000  O
  O19      1.0000 0.24420  0.41070  0.76670  Biso   1.000  O
  O20      1.0000 0.25720  0.34120  0.76740  Biso   1.000  O
  O21      1.0000 0.04060  0.31010  0.16670  Biso   1.000  O
  O22      1.0000 0.11010  0.30320  0.15630  Biso   1.000  O
  O23      1.0000 0.20630  0.36800  0.45370  Biso   1.000  O
  O24      1.0000 0.28520  0.37890  0.45430  Biso   1.000  O
  O25      1.0000 0.51690  0.68970  0.72360  Biso   1.000  O
  O26      1.0000 0.54040  0.69100  0.80620  Biso   1.000  O
  O27      1.0000 0.74420  0.97750  0.83350  Biso   1.000  O
  O28      1.0000 0.75720  0.98980  0.91600  Biso   1.000  O
  O29      1.0000 0.54060  0.37390  0.73050  Biso   1.000  O
  O30      1.0000 0.61010  0.45380  0.80690  Biso   1.000  O
  O31      1.0000 0.70630  0.25260  0.83830  Biso   1.000  O
  O32      1.0000 0.78520  0.33090  0.90630  Biso   1.000  O
  Zn21     1.0000 0.77728  0.31662  0.21112  Biso   1.000  Zn
  Zn22     1.0000 0.88802  0.27626  0.24848  Biso   1.000  Zn
  Zn23     1.0000 0.70497  0.27829  0.28986  Biso   1.000  Zn
  Zn24     1.0000 0.86121  0.46773  0.25228  Biso   1.000  Zn
  Zn25     1.0000 0.65960  0.24296  0.05844  Biso   1.000  Zn
  Zn26     1.0000 0.27728  0.06616  0.46066  Biso   1.000  Zn
  Zn27     1.0000 0.38802  0.13954  0.61176  Biso   1.000  Zn
  Zn28     1.0000 0.20497  0.91511  0.42668  Biso   1.000  Zn
  Zn29     1.0000 0.36121  0.10893  0.39348  Biso   1.000  Zn
  Zn30     1.0000 0.15960  0.10116  0.41664  Biso   1.000  Zn
  H137     1.0000 0.91400  0.11900  0.23320  Biso   1.000  H
  H138     1.0000 0.05060  0.27140  0.35800  Biso   1.000  H
  H139     1.0000 0.11220  0.23710  0.39690  Biso   1.000  H
  H140     1.0000 0.48690  0.08960  0.34310  Biso   1.000  H
  H141     1.0000 0.50300  0.23800  0.36180  Biso   1.000  H
  H142     1.0000 0.57620  0.26760  0.33840  Biso   1.000  H
  H143     1.0000 0.82190  0.51200  0.14370  Biso   1.000  H
  H144     1.0000 0.76680  0.51010  0.05430  Biso   1.000  H
  H145     1.0000 0.68410  0.42470  0.97940  Biso   1.000  H
  H146     1.0000 0.65640  0.34120  0.99400  Biso   1.000  H
  H147     1.0000 0.75720  0.21920  0.37940  Biso   1.000  H
  H148     1.0000 0.81350  0.18320  0.42750  Biso   1.000  H
  H149     1.0000 0.88640  0.18320  0.41180  Biso   1.000  H
  H150     1.0000 0.90310  0.21940  0.34810  Biso   1.000  H
  H151     1.0000 0.70030  0.38150  0.35620  Biso   1.000  H
  H152     1.0000 0.71930  0.47010  0.39160  Biso   1.000  H
  H153     1.0000 0.78040  0.54580  0.37660  Biso   1.000  H
  H154     1.0000 0.82240  0.53300  0.32640  Biso   1.000  H
  H155     1.0000 0.87770  0.20410  0.13760  Biso   1.000  H
  H156     1.0000 0.83860  0.15390  0.04490  Biso   1.000  H
  H157     1.0000 0.74930  0.14190  0.97000  Biso   1.000  H
  H158     1.0000 0.69890  0.18000  0.98790  Biso   1.000  H
  H159     1.0000 0.53990  0.18730  0.19960  Biso   1.000  H
  H160     1.0000 0.44040  0.13620  0.11980  Biso   1.000  H
  H161     1.0000 0.42540  0.12750  0.03290  Biso   1.000  H
  H162     1.0000 0.50990  0.16990  0.02580  Biso   1.000  H
  H163     1.0000 0.04260  0.38850  0.31550  Biso   1.000  H
  H164     1.0000 0.12920  0.47740  0.35080  Biso   1.000  H
  H165     1.0000 0.11930  0.55250  0.34940  Biso   1.000  H
  H166     1.0000 0.02280  0.53860  0.31260  Biso   1.000  H
  H167     1.0000 0.98940  0.05810  0.26410  Biso   1.000  H
  H168     1.0000 0.92950  0.05350  0.22660  Biso   1.000  H
  H169     1.0000 0.59540  0.12490  0.31350  Biso   1.000  H
  H170     1.0000 0.54970  0.07970  0.32100  Biso   1.000  H
  H171     1.0000 0.41400  0.18080  0.79500  Biso   1.000  H
  H172     1.0000 0.55060  0.19260  0.77920  Biso   1.000  H
  H173     1.0000 0.61220  0.21530  0.87510  Biso   1.000  H
  H174     1.0000 0.98690  0.64380  0.39730  Biso   1.000  H
  H175     1.0000 0.00300  0.64120  0.26500  Biso   1.000  H
  H176     1.0000 0.07620  0.73780  0.30860  Biso   1.000  H
  H177     1.0000 0.32190  0.17820  0.30990  Biso   1.000  H
  H178     1.0000 0.26680  0.21250  0.25670  Biso   1.000  H
  H179     1.0000 0.18410  0.20470  0.25940  Biso   1.000  H
  H180     1.0000 0.15640  0.16240  0.31520  Biso   1.000  H
  H181     1.0000 0.25720  0.87780  0.53800  Biso   1.000  H
  H182     1.0000 0.31350  0.88600  0.63030  Biso   1.000  H
  H183     1.0000 0.38640  0.97460  0.70320  Biso   1.000  H
  H184     1.0000 0.40310  0.05500  0.68370  Biso   1.000  H
  H185     1.0000 0.20030  0.84410  0.31880  Biso   1.000  H
  H186     1.0000 0.21930  0.82770  0.24920  Biso   1.000  H
  H187     1.0000 0.28040  0.90380  0.23460  Biso   1.000  H
  H188     1.0000 0.32240  0.99600  0.28940  Biso   1.000  H
  H189     1.0000 0.37770  0.24010  0.67360  Biso   1.000  H
  H190     1.0000 0.33860  0.29370  0.68470  Biso   1.000  H
  H191     1.0000 0.24930  0.27930  0.60740  Biso   1.000  H
  H192     1.0000 0.19890  0.21100  0.51890  Biso   1.000  H
  H193     1.0000 0.03990  0.84030  0.35260  Biso   1.000  H
  H194     1.0000 0.94040  0.82060  0.30420  Biso   1.000  H
  H195     1.0000 0.92540  0.89250  0.29790  Biso   1.000  H
  H196     1.0000 0.00990  0.98410  0.34000  Biso   1.000  H
  H197     1.0000 0.54260  0.22710  0.65410  Biso   1.000  H
  H198     1.0000 0.62920  0.27840  0.65180  Biso   1.000  H
  H199     1.0000 0.61930  0.26990  0.56680  Biso   1.000  H
  H200     1.0000 0.52280  0.21020  0.48420  Biso   1.000  H
  H201     1.0000 0.48940  0.22530  0.93130  Biso   1.000  H
  H202     1.0000 0.42950  0.20290  0.87600  Biso   1.000  H
  H203     1.0000 0.09540  0.78190  0.47050  Biso   1.000  H
  H204     1.0000 0.04970  0.72870  0.47000  Biso   1.000  H
  C209     1.0000 0.04980  0.15760  0.33820  Biso   1.000  C
  C210     1.0000 0.99070  0.12240  0.28950  Biso   1.000  C
  C211     1.0000 0.95400  0.14290  0.26630  Biso   1.000  C
  C212     1.0000 0.97640  0.19850  0.29190  Biso   1.000  C
  C213     1.0000 0.03550  0.23380  0.34070  Biso   1.000  C
  C214     1.0000 0.07220  0.21330  0.36390  Biso   1.000  C
  C215     1.0000 0.93990  0.22260  0.26910  Biso   1.000  C
  C216     1.0000 0.09190  0.13390  0.36480  Biso   1.000  C
  C217     1.0000 0.57530  0.19630  0.32680  Biso   1.000  C
  C218     1.0000 0.54860  0.14320  0.32820  Biso   1.000  C
  C219     1.0000 0.50500  0.12560  0.34220  Biso   1.000  C
  C220     1.0000 0.48790  0.16100  0.35470  Biso   1.000  C
  C221     1.0000 0.51450  0.21400  0.35330  Biso   1.000  C
  C222     1.0000 0.55820  0.23170  0.33930  Biso   1.000  C
  C223     1.0000 0.62640  0.22000  0.31360  Biso   1.000  C
  C224     1.0000 0.43920  0.13430  0.36510  Biso   1.000  C
  C225     1.0000 0.72270  0.37690  0.07760  Biso   1.000  C
  C226     1.0000 0.77200  0.42780  0.12220  Biso   1.000  C
  C227     1.0000 0.78850  0.47760  0.11350  Biso   1.000  C
  C228     1.0000 0.75560  0.47640  0.06020  Biso   1.000  C
  C229     1.0000 0.70630  0.42550  0.01560  Biso   1.000  C
  C230     1.0000 0.68990  0.37580  0.02430  Biso   1.000  C
  C231     1.0000 0.84000  0.24090  0.32570  Biso   1.000  C
  C232     1.0000 0.79650  0.24080  0.33510  Biso   1.000  C
  C233     1.0000 0.78650  0.21920  0.37310  Biso   1.000  C
  C234     1.0000 0.82010  0.19770  0.40180  Biso   1.000  C
  C235     1.0000 0.86370  0.19780  0.39250  Biso   1.000  C
  C236     1.0000 0.87370  0.21940  0.35450  Biso   1.000  C
  C237     1.0000 0.78640  0.44950  0.31110  Biso   1.000  C
  C238     1.0000 0.74980  0.40409  0.32009  Biso   1.000  C
  C239     1.0000 0.72480  0.41190  0.35030  Biso   1.000  C
  C240     1.0000 0.73610  0.46490  0.37140  Biso   1.000  C
  C241     1.0000 0.77280  0.51030  0.36250  Biso   1.000  C
  C242     1.0000 0.79790  0.50270  0.33240  Biso   1.000  C
  C243     1.0000 0.75820  0.21493  0.07353  Biso   1.000  C
  C244     1.0000 0.81170  0.22210  0.11840  Biso   1.000  C
  C245     1.0000 0.84190  0.19930  0.10760  Biso   1.000  C
  C246     1.0000 0.81841  0.16920  0.05199  Biso   1.000  C
  C247     1.0000 0.76490  0.16202  0.00712  Biso   1.000  C
  C248     1.0000 0.73475  0.18485  0.01790  Biso   1.000  C
  C249     1.0000 0.57500  0.20370  0.10850  Biso   1.000  C
  C250     1.0000 0.58390  0.20890  0.16000  Biso   1.000  C
  C251     1.0000 0.53380  0.18380  0.16420  Biso   1.000  C
  C252     1.0000 0.47480  0.15350  0.11690  Biso   1.000  C
  C253     1.0000 0.46600  0.14840  0.06540  Biso   1.000  C
  C254     1.0000 0.51600  0.17340  0.06120  Biso   1.000  C
  C255     1.0000 0.97560  0.45530  0.29230  Biso   1.000  C
  C256     1.0000 0.98150  0.41090  0.29320  Biso   1.000  C
  C257     1.0000 0.03860  0.41910  0.31490  Biso   1.000  C
  C258     1.0000 0.08980  0.47180  0.33580  Biso   1.000  C
  C259     1.0000 0.08400  0.51620  0.33500  Biso   1.000  C
  C260     1.0000 0.02680  0.50800  0.31320  Biso   1.000  C
  C261     1.0000 0.54980  0.21160  0.89220  Biso   1.000  C
  C262     1.0000 0.49070  0.20120  0.86830  Biso   1.000  C
  C263     1.0000 0.45400  0.18770  0.81110  Biso   1.000  C
  C264     1.0000 0.47640  0.18450  0.77790  Biso   1.000  C
  C265     1.0000 0.53550  0.19480  0.80170  Biso   1.000  C
  C266     1.0000 0.57220  0.20830  0.85890  Biso   1.000  C
  C267     1.0000 0.43990  0.17080  0.71730  Biso   1.000  C
  C268     1.0000 0.59190  0.22710  0.95800  Biso   1.000  C
  C269     1.0000 0.07530  0.74850  0.37900  Biso   1.000  C
  C270     1.0000 0.04860  0.72040  0.40540  Biso   1.000  C
  C271     1.0000 0.00500  0.66280  0.37940  Biso   1.000  C
  C272     1.0000 0.98790  0.63320  0.32690  Biso   1.000  C
  C273     1.0000 0.01450  0.66120  0.30050  Biso   1.000  C
  C274     1.0000 0.05820  0.71890  0.32650  Biso   1.000  C
  C275     1.0000 0.12640  0.81280  0.40640  Biso   1.000  C
  C276     1.0000 0.93920  0.57410  0.30490  Biso   1.000  C
  C277     1.0000 0.22270  0.14510  0.34580  Biso   1.000  C
  C278     1.0000 0.27200  0.14980  0.34420  Biso   1.000  C
  C279     1.0000 0.28850  0.17500  0.31090  Biso   1.000  C
  C280     1.0000 0.25560  0.19540  0.27920  Biso   1.000  C
  C281     1.0000 0.20630  0.19070  0.28080  Biso   1.000  C
  C282     1.0000 0.18990  0.16560  0.31410  Biso   1.000  C
  C283     1.0000 0.34000  0.01430  0.59910  Biso   1.000  C
  C284     1.0000 0.29650  0.96140  0.55570  Biso   1.000  C
  C285     1.0000 0.28650  0.91340  0.56730  Biso   1.000  C
  C286     1.0000 0.32010  0.91830  0.62240  Biso   1.000  C
  C287     1.0000 0.36370  0.97120  0.66590  Biso   1.000  C
  C288     1.0000 0.37370  0.01920  0.65430  Biso   1.000  C
  C289     1.0000 0.28640  0.97530  0.33690  Biso   1.000  C
  C290     1.0000 0.24980  0.92971  0.34571  Biso   1.000  C
  C291     1.0000 0.22480  0.87450  0.31290  Biso   1.000  C
  C292     1.0000 0.23610  0.86470  0.27120  Biso   1.000  C
  C293     1.0000 0.27280  0.91030  0.26250  Biso   1.000  C
  C294     1.0000 0.29790  0.96550  0.29520  Biso   1.000  C
  C295     1.0000 0.25820  0.18467  0.54327  Biso   1.000  C
  C296     1.0000 0.31170  0.19330  0.58960  Biso   1.000  C
  C297     1.0000 0.34190  0.23430  0.64260  Biso   1.000  C
  C298     1.0000 0.31841  0.26642  0.64921  Biso   1.000  C
  C299     1.0000 0.26490  0.25778  0.60288  Biso   1.000  C
  C300     1.0000 0.23475  0.21685  0.54990  Biso   1.000  C
  C301     1.0000 0.07500  0.96650  0.37130  Biso   1.000  C
  C302     1.0000 0.08390  0.92390  0.37500  Biso   1.000  C
  C303     1.0000 0.03380  0.86960  0.35000  Biso   1.000  C
  C304     1.0000 0.97480  0.85790  0.32130  Biso   1.000  C
  C305     1.0000 0.96600  0.90060  0.31760  Biso   1.000  C
  C306     1.0000 0.01600  0.95480  0.34260  Biso   1.000  C
  C307     1.0000 0.47560  0.18330  0.52030  Biso   1.000  C
  C308     1.0000 0.48150  0.18830  0.57060  Biso   1.000  C
  C309     1.0000 0.53860  0.22370  0.61950  Biso   1.000  C
  C310     1.0000 0.58980  0.25400  0.61800  Biso   1.000  C
  C311     1.0000 0.58400  0.24900  0.56780  Biso   1.000  C
  C312     1.0000 0.52680  0.21360  0.51880  Biso   1.000  C
  N81      1.0000 0.71700  0.33460  0.09780  Biso   1.000  N
  N82      1.0000 0.75990  0.35980  0.15210  Biso   1.000  N
  N83      1.0000 0.79400  0.41690  0.16850  Biso   1.000  N
  N84      1.0000 0.83950  0.26040  0.28450  Biso   1.000  N
  N85      1.0000 0.79850  0.27500  0.27110  Biso   1.000  N
  N86      1.0000 0.77190  0.26300  0.29970  Biso   1.000  N
  N87      1.0000 0.80630  0.43170  0.28060  Biso   1.000  N
  N88      1.0000 0.77960  0.37620  0.27020  Biso   1.000  N
  N89      1.0000 0.74590  0.35980  0.29310  Biso   1.000  N
  N90      1.0000 0.73890  0.24050  0.09780  Biso   1.000  N
  N91      1.0000 0.78100  0.26230  0.15370  Biso   1.000  N
  N92      1.0000 0.82490  0.25130  0.16700  Biso   1.000  N
  N93      1.0000 0.63190  0.23350  0.11480  Biso   1.000  N
  N94      1.0000 0.67670  0.25740  0.17050  Biso   1.000  N
  N95      1.0000 0.64990  0.24240  0.19930  Biso   1.000  N
  N96      1.0000 0.91430  0.43420  0.26970  Biso   1.000  N
  N97      1.0000 0.88410  0.37770  0.25640  Biso   1.000  N
  N98      1.0000 0.92370  0.36130  0.27020  Biso   1.000  N
  N99      1.0000 0.96730  0.07250  0.25640  Biso   1.000  N
  N100     1.0000 0.56630  0.11290  0.32000  Biso   1.000  N
  N101     1.0000 0.21700  0.11920  0.38240  Biso   1.000  N
  N102     1.0000 0.25990  0.10780  0.40010  Biso   1.000  N
  N103     1.0000 0.29400  0.12550  0.37710  Biso   1.000  N
  N104     1.0000 0.33950  0.05500  0.57910  Biso   1.000  N
  N105     1.0000 0.29850  0.02740  0.52350  Biso   1.000  N
  N106     1.0000 0.27190  0.97220  0.50890  Biso   1.000  N
  N107     1.0000 0.30630  0.02570  0.37460  Biso   1.000  N
  N108     1.0000 0.27960  0.00940  0.40340  Biso   1.000  N
  N109     1.0000 0.24590  0.95280  0.38610  Biso   1.000  N
  N110     1.0000 0.23890  0.14110  0.49840  Biso   1.000  N
  N111     1.0000 0.28100  0.12730  0.51870  Biso   1.000  N
  N112     1.0000 0.32490  0.15790  0.57360  Biso   1.000  N
  N113     1.0000 0.13190  0.01710  0.39840  Biso   1.000  N
  N114     1.0000 0.17670  0.00620  0.41930  Biso   1.000  N
  N115     1.0000 0.14990  0.95060  0.40750  Biso   1.000  N
  N116     1.0000 0.41430  0.14460  0.48010  Biso   1.000  N
  N117     1.0000 0.38410  0.12770  0.50640  Biso   1.000  N
  N118     1.0000 0.42370  0.15350  0.56240  Biso   1.000  N
  N119     1.0000 0.46730  0.21090  0.89480  Biso   1.000  N
  N120     1.0000 0.06630  0.74630  0.45340  Biso   1.000  N
  O33      1.0000 0.96610  0.27640  0.29330  Biso   1.000  O
  O34      1.0000 0.88480  0.19380  0.23420  Biso   1.000  O
  O35      1.0000 0.14400  0.16650  0.41070  Biso   1.000  O
  O36      1.0000 0.07380  0.08400  0.34120  Biso   1.000  O
  O37      1.0000 0.64340  0.26950  0.31010  Biso   1.000  O
  O38      1.0000 0.64690  0.19310  0.30320  Biso   1.000  O
  O39      1.0000 0.41430  0.16170  0.36800  Biso   1.000  O
  O40      1.0000 0.42460  0.09370  0.37890  Biso   1.000  O
  O41      1.0000 0.46610  0.17280  0.68970  Biso   1.000  O
  O42      1.0000 0.38480  0.15060  0.69100  Biso   1.000  O
  O43      1.0000 0.64400  0.23330  0.97750  Biso   1.000  O
  O44      1.0000 0.57380  0.23260  0.98980  Biso   1.000  O
  O45      1.0000 0.14340  0.83330  0.37390  Biso   1.000  O
  O46      1.0000 0.14690  0.84370  0.45380  Biso   1.000  O
  O47      1.0000 0.91430  0.54630  0.25260  Biso   1.000  O
  O48      1.0000 0.92460  0.54570  0.33090  Biso   1.000  O
  Zn31     1.0000 0.72272  0.93384  0.53934  Biso   1.000  Zn
  Zn32     1.0000 0.61198  0.86046  0.38824  Biso   1.000  Zn
  Zn33     1.0000 0.79503  0.08489  0.57332  Biso   1.000  Zn
  Zn34     1.0000 0.63879  0.89107  0.60652  Biso   1.000  Zn
  Zn35     1.0000 0.84040  0.89884  0.58336  Biso   1.000  Zn
  Zn36     1.0000 0.22272  0.68338  0.78888  Biso   1.000  Zn
  Zn37     1.0000 0.11198  0.72374  0.75152  Biso   1.000  Zn
  Zn38     1.0000 0.29503  0.72171  0.71014  Biso   1.000  Zn
  Zn39     1.0000 0.13879  0.53227  0.74772  Biso   1.000  Zn
  Zn40     1.0000 0.34040  0.75704  0.94156  Biso   1.000  Zn
  H205     1.0000 0.58600  0.81920  0.20500  Biso   1.000  H
  H206     1.0000 0.44940  0.80740  0.22080  Biso   1.000  H
  H207     1.0000 0.38780  0.78470  0.12490  Biso   1.000  H
  H208     1.0000 0.01310  0.35620  0.60270  Biso   1.000  H
  H209     1.0000 0.99700  0.35880  0.73500  Biso   1.000  H
  H210     1.0000 0.92380  0.26220  0.69140  Biso   1.000  H
  H211     1.0000 0.67810  0.82180  0.69010  Biso   1.000  H
  H212     1.0000 0.73320  0.78750  0.74330  Biso   1.000  H
  H213     1.0000 0.81590  0.79530  0.74060  Biso   1.000  H
  H214     1.0000 0.84360  0.83760  0.68480  Biso   1.000  H
  H215     1.0000 0.74280  0.12220  0.46200  Biso   1.000  H
  H216     1.0000 0.68650  0.11400  0.36970  Biso   1.000  H
  H217     1.0000 0.61360  0.02540  0.29680  Biso   1.000  H
  H218     1.0000 0.59690  0.94500  0.31630  Biso   1.000  H
  H219     1.0000 0.79970  0.15590  0.68120  Biso   1.000  H
  H220     1.0000 0.78070  0.17230  0.75080  Biso   1.000  H
  H221     1.0000 0.71960  0.09620  0.76540  Biso   1.000  H
  H222     1.0000 0.67760  0.00400  0.71060  Biso   1.000  H
  H223     1.0000 0.62230  0.75990  0.32640  Biso   1.000  H
  H224     1.0000 0.66140  0.70630  0.31530  Biso   1.000  H
  H225     1.0000 0.75070  0.72070  0.39260  Biso   1.000  H
  H226     1.0000 0.80110  0.78900  0.48110  Biso   1.000  H
  H227     1.0000 0.96010  0.15970  0.64740  Biso   1.000  H
  H228     1.0000 0.05960  0.17940  0.69580  Biso   1.000  H
  H229     1.0000 0.07460  0.10750  0.70210  Biso   1.000  H
  H230     1.0000 0.99010  0.01590  0.66000  Biso   1.000  H
  H231     1.0000 0.45740  0.77290  0.34590  Biso   1.000  H
  H232     1.0000 0.37080  0.72160  0.34820  Biso   1.000  H
  H233     1.0000 0.38070  0.73010  0.43320  Biso   1.000  H
  H234     1.0000 0.47720  0.78980  0.51580  Biso   1.000  H
  H235     1.0000 0.51060  0.77470  0.06870  Biso   1.000  H
  H236     1.0000 0.57050  0.79710  0.12400  Biso   1.000  H
  H237     1.0000 0.90460  0.21810  0.52950  Biso   1.000  H
  H238     1.0000 0.95030  0.27130  0.53000  Biso   1.000  H
  H239     1.0000 0.08600  0.88100  0.76680  Biso   1.000  H
  H240     1.0000 0.94940  0.72860  0.64200  Biso   1.000  H
  H241     1.0000 0.88780  0.76290  0.60310  Biso   1.000  H
  H242     1.0000 0.51310  0.91040  0.65690  Biso   1.000  H
  H243     1.0000 0.49700  0.76200  0.63820  Biso   1.000  H
  H244     1.0000 0.42380  0.73240  0.66160  Biso   1.000  H
  H245     1.0000 0.17810  0.48800  0.85630  Biso   1.000  H
  H246     1.0000 0.23320  0.48990  0.94570  Biso   1.000  H
  H247     1.0000 0.31590  0.57530  0.02060  Biso   1.000  H
  H248     1.0000 0.34360  0.65880  0.00600  Biso   1.000  H
  H249     1.0000 0.24280  0.78080  0.62060  Biso   1.000  H
  H250     1.0000 0.18650  0.81680  0.57250  Biso   1.000  H
  H251     1.0000 0.11360  0.81680  0.58820  Biso   1.000  H
  H252     1.0000 0.09690  0.78060  0.65190  Biso   1.000  H
  H253     1.0000 0.29970  0.61850  0.64380  Biso   1.000  H
  H254     1.0000 0.28070  0.52990  0.60840  Biso   1.000  H
  H255     1.0000 0.21960  0.45420  0.62340  Biso   1.000  H
  H256     1.0000 0.17760  0.46700  0.67360  Biso   1.000  H
  H257     1.0000 0.12230  0.79590  0.86240  Biso   1.000  H
  H258     1.0000 0.16140  0.84610  0.95510  Biso   1.000  H
  H259     1.0000 0.25070  0.85810  0.03000  Biso   1.000  H
  H260     1.0000 0.30110  0.82000  0.01210  Biso   1.000  H
  H261     1.0000 0.46010  0.81270  0.80040  Biso   1.000  H
  H262     1.0000 0.55960  0.86380  0.88020  Biso   1.000  H
  H263     1.0000 0.57460  0.87250  0.96710  Biso   1.000  H
  H264     1.0000 0.49010  0.83010  0.97420  Biso   1.000  H
  H265     1.0000 0.95740  0.61150  0.68450  Biso   1.000  H
  H266     1.0000 0.87080  0.52260  0.64920  Biso   1.000  H
  H267     1.0000 0.88070  0.44750  0.65060  Biso   1.000  H
  H268     1.0000 0.97720  0.46140  0.68740  Biso   1.000  H
  H269     1.0000 0.01060  0.94190  0.73590  Biso   1.000  H
  H270     1.0000 0.07050  0.94650  0.77340  Biso   1.000  H
  H271     1.0000 0.40460  0.87510  0.68650  Biso   1.000  H
  H272     1.0000 0.45030  0.92030  0.67900  Biso   1.000  H
  C313     1.0000 0.45020  0.78840  0.10780  Biso   1.000  C
  C314     1.0000 0.50930  0.79880  0.13170  Biso   1.000  C
  C315     1.0000 0.54600  0.81230  0.18890  Biso   1.000  C
  C316     1.0000 0.52360  0.81550  0.22210  Biso   1.000  C
  C317     1.0000 0.46450  0.80520  0.19830  Biso   1.000  C
  C318     1.0000 0.42780  0.79170  0.14110  Biso   1.000  C
  C319     1.0000 0.56010  0.82920  0.28270  Biso   1.000  C
  C320     1.0000 0.40810  0.77290  0.04200  Biso   1.000  C
  C321     1.0000 0.92470  0.25150  0.62100  Biso   1.000  C
  C322     1.0000 0.95140  0.27960  0.59460  Biso   1.000  C
  C323     1.0000 0.99500  0.33720  0.62060  Biso   1.000  C
  C324     1.0000 0.01210  0.36680  0.67310  Biso   1.000  C
  C325     1.0000 0.98550  0.33880  0.69950  Biso   1.000  C
  C326     1.0000 0.94180  0.28110  0.67350  Biso   1.000  C
  C327     1.0000 0.87360  0.18720  0.59360  Biso   1.000  C
  C328     1.0000 0.06080  0.42590  0.69510  Biso   1.000  C
  C329     1.0000 0.77730  0.85490  0.65420  Biso   1.000  C
  C330     1.0000 0.72800  0.85020  0.65580  Biso   1.000  C
  C331     1.0000 0.71150  0.82500  0.68910  Biso   1.000  C
  C332     1.0000 0.74440  0.80460  0.72080  Biso   1.000  C
  C333     1.0000 0.79370  0.80930  0.71920  Biso   1.000  C
  C334     1.0000 0.81010  0.83440  0.68590  Biso   1.000  C
  C335     1.0000 0.66000  0.98570  0.40090  Biso   1.000  C
  C336     1.0000 0.70350  0.03860  0.44430  Biso   1.000  C
  C337     1.0000 0.71350  0.08660  0.43270  Biso   1.000  C
  C338     1.0000 0.67990  0.08170  0.37760  Biso   1.000  C
  C339     1.0000 0.63630  0.02880  0.33410  Biso   1.000  C
  C340     1.0000 0.62630  0.98080  0.34570  Biso   1.000  C
  C341     1.0000 0.71360  0.02470  0.66310  Biso   1.000  C
  C342     1.0000 0.75020  0.07029  0.65429  Biso   1.000  C
  C343     1.0000 0.77520  0.12550  0.68710  Biso   1.000  C
  C344     1.0000 0.76390  0.13530  0.72880  Biso   1.000  C
  C345     1.0000 0.72720  0.08970  0.73750  Biso   1.000  C
  C346     1.0000 0.70210  0.03450  0.70480  Biso   1.000  C
  C347     1.0000 0.74180  0.81533  0.45673  Biso   1.000  C
  C348     1.0000 0.68830  0.80670  0.41040  Biso   1.000  C
  C349     1.0000 0.65810  0.76570  0.35740  Biso   1.000  C
  C350     1.0000 0.68159  0.73358  0.35079  Biso   1.000  C
  C351     1.0000 0.73510  0.74222  0.39712  Biso   1.000  C
  C352     1.0000 0.76525  0.78315  0.45010  Biso   1.000  C
  C353     1.0000 0.92500  0.03350  0.62870  Biso   1.000  C
  C354     1.0000 0.91610  0.07610  0.62500  Biso   1.000  C
  C355     1.0000 0.96620  0.13040  0.65000  Biso   1.000  C
  C356     1.0000 0.02520  0.14210  0.67870  Biso   1.000  C
  C357     1.0000 0.03400  0.09940  0.68240  Biso   1.000  C
  C358     1.0000 0.98400  0.04520  0.65740  Biso   1.000  C
  C359     1.0000 0.52440  0.81670  0.47970  Biso   1.000  C
  C360     1.0000 0.51850  0.81170  0.42940  Biso   1.000  C
  C361     1.0000 0.46140  0.77630  0.38050  Biso   1.000  C
  C362     1.0000 0.41020  0.74600  0.38200  Biso   1.000  C
  C363     1.0000 0.41600  0.75100  0.43220  Biso   1.000  C
  C364     1.0000 0.47320  0.78640  0.48120  Biso   1.000  C
  C365     1.0000 0.95020  0.84240  0.66180  Biso   1.000  C
  C366     1.0000 0.00930  0.87760  0.71050  Biso   1.000  C
  C367     1.0000 0.04600  0.85710  0.73370  Biso   1.000  C
  C368     1.0000 0.02360  0.80150  0.70810  Biso   1.000  C
  C369     1.0000 0.96450  0.76620  0.65930  Biso   1.000  C
  C370     1.0000 0.92780  0.78670  0.63610  Biso   1.000  C
  C371     1.0000 0.06010  0.77740  0.73090  Biso   1.000  C
  C372     1.0000 0.90810  0.86610  0.63520  Biso   1.000  C
  C373     1.0000 0.42470  0.80370  0.67320  Biso   1.000  C
  C374     1.0000 0.45140  0.85680  0.67180  Biso   1.000  C
  C375     1.0000 0.49500  0.87440  0.65780  Biso   1.000  C
  C376     1.0000 0.51210  0.83900  0.64530  Biso   1.000  C
  C377     1.0000 0.48550  0.78600  0.64670  Biso   1.000  C
  C378     1.0000 0.44180  0.76830  0.66070  Biso   1.000  C
  C379     1.0000 0.37360  0.78000  0.68640  Biso   1.000  C
  C380     1.0000 0.56080  0.86570  0.63490  Biso   1.000  C
  C381     1.0000 0.27730  0.62310  0.92240  Biso   1.000  C
  C382     1.0000 0.22800  0.57220  0.87780  Biso   1.000  C
  C383     1.0000 0.21150  0.52240  0.88650  Biso   1.000  C
  C384     1.0000 0.24440  0.52360  0.93980  Biso   1.000  C
  C385     1.0000 0.29370  0.57450  0.98440  Biso   1.000  C
  C386     1.0000 0.31010  0.62420  0.97570  Biso   1.000  C
  C387     1.0000 0.16000  0.75910  0.67430  Biso   1.000  C
  C388     1.0000 0.20350  0.75920  0.66490  Biso   1.000  C
  C389     1.0000 0.21350  0.78080  0.62690  Biso   1.000  C
  C390     1.0000 0.17990  0.80230  0.59820  Biso   1.000  C
  C391     1.0000 0.13630  0.80220  0.60750  Biso   1.000  C
  C392     1.0000 0.12630  0.78060  0.64550  Biso   1.000  C
  C393     1.0000 0.21360  0.55050  0.68890  Biso   1.000  C
  C394     1.0000 0.25020  0.59591  0.67991  Biso   1.000  C
  C395     1.0000 0.27520  0.58810  0.64970  Biso   1.000  C
  C396     1.0000 0.26390  0.53510  0.62860  Biso   1.000  C
  C397     1.0000 0.22720  0.48970  0.63750  Biso   1.000  C
  C398     1.0000 0.20210  0.49730  0.66760  Biso   1.000  C
  C399     1.0000 0.24180  0.78507  0.92647  Biso   1.000  C
  C400     1.0000 0.18830  0.77790  0.88160  Biso   1.000  C
  C401     1.0000 0.15810  0.80070  0.89240  Biso   1.000  C
  C402     1.0000 0.18159  0.83080  0.94801  Biso   1.000  C
  C403     1.0000 0.23510  0.83798  0.99288  Biso   1.000  C
  C404     1.0000 0.26525  0.81515  0.98210  Biso   1.000  C
  C405     1.0000 0.42500  0.79630  0.89150  Biso   1.000  C
  C406     1.0000 0.41610  0.79110  0.84000  Biso   1.000  C
  C407     1.0000 0.46620  0.81620  0.83580  Biso   1.000  C
  C408     1.0000 0.52520  0.84650  0.88310  Biso   1.000  C
  C409     1.0000 0.53400  0.85160  0.93460  Biso   1.000  C
  C410     1.0000 0.48400  0.82660  0.93880  Biso   1.000  C
  C411     1.0000 0.02440  0.54470  0.70770  Biso   1.000  C
  C412     1.0000 0.01850  0.58910  0.70680  Biso   1.000  C
  C413     1.0000 0.96140  0.58090  0.68510  Biso   1.000  C
  C414     1.0000 0.91020  0.52820  0.66420  Biso   1.000  C
  C415     1.0000 0.91600  0.48380  0.66500  Biso   1.000  C
  C416     1.0000 0.97320  0.49200  0.68680  Biso   1.000  C
  N121     1.0000 0.78300  0.88080  0.61760  Biso   1.000  N
  N122     1.0000 0.74010  0.89220  0.59990  Biso   1.000  N
  N123     1.0000 0.70600  0.87450  0.62290  Biso   1.000  N
  N124     1.0000 0.66050  0.94500  0.42090  Biso   1.000  N
  N125     1.0000 0.70150  0.97260  0.47650  Biso   1.000  N
  N126     1.0000 0.72810  0.02780  0.49110  Biso   1.000  N
  N127     1.0000 0.69370  0.97430  0.62540  Biso   1.000  N
  N128     1.0000 0.72040  0.99060  0.59660  Biso   1.000  N
  N129     1.0000 0.75410  0.04720  0.61390  Biso   1.000  N
  N130     1.0000 0.76110  0.85890  0.50160  Biso   1.000  N
  N131     1.0000 0.71900  0.87270  0.48130  Biso   1.000  N
  N132     1.0000 0.67510  0.84210  0.42640  Biso   1.000  N
  N133     1.0000 0.86810  0.98290  0.60160  Biso   1.000  N
  N134     1.0000 0.82330  0.99380  0.58070  Biso   1.000  N
  N135     1.0000 0.85010  0.04940  0.59250  Biso   1.000  N
  N136     1.0000 0.58570  0.85540  0.51990  Biso   1.000  N
  N137     1.0000 0.61590  0.87230  0.49360  Biso   1.000  N
  N138     1.0000 0.57630  0.84650  0.43760  Biso   1.000  N
  N139     1.0000 0.53270  0.78910  0.10520  Biso   1.000  N
  N140     1.0000 0.93370  0.25370  0.54660  Biso   1.000  N
  N141     1.0000 0.28300  0.66540  0.90220  Biso   1.000  N
  N142     1.0000 0.24010  0.64020  0.84790  Biso   1.000  N
  N143     1.0000 0.20600  0.58310  0.83150  Biso   1.000  N
  N144     1.0000 0.16050  0.73960  0.71550  Biso   1.000  N
  N145     1.0000 0.20150  0.72500  0.72890  Biso   1.000  N
  N146     1.0000 0.22810  0.73700  0.70030  Biso   1.000  N
  N147     1.0000 0.19370  0.56830  0.71940  Biso   1.000  N
  N148     1.0000 0.22040  0.62380  0.72980  Biso   1.000  N
  N149     1.0000 0.25410  0.64020  0.70690  Biso   1.000  N
  N150     1.0000 0.26110  0.75950  0.90220  Biso   1.000  N
  N151     1.0000 0.21900  0.73770  0.84630  Biso   1.000  N
  N152     1.0000 0.17510  0.74870  0.83300  Biso   1.000  N
  N153     1.0000 0.36810  0.76650  0.88520  Biso   1.000  N
  N154     1.0000 0.32330  0.74260  0.82950  Biso   1.000  N
  N155     1.0000 0.35010  0.75760  0.80070  Biso   1.000  N
  N156     1.0000 0.08570  0.56580  0.73030  Biso   1.000  N
  N157     1.0000 0.11590  0.62230  0.74360  Biso   1.000  N
  N158     1.0000 0.07630  0.63870  0.72980  Biso   1.000  N
  N159     1.0000 0.03270  0.92750  0.74360  Biso   1.000  N
  N160     1.0000 0.43370  0.88710  0.68000  Biso   1.000  N
  O49      1.0000 0.53390  0.82720  0.31030  Biso   1.000  O
  O50      1.0000 0.61520  0.84940  0.30900  Biso   1.000  O
  O51      1.0000 0.35600  0.76670  0.02250  Biso   1.000  O
  O52      1.0000 0.42620  0.76740  0.01020  Biso   1.000  O
  O53      1.0000 0.85660  0.16670  0.62610  Biso   1.000  O
  O54      1.0000 0.85310  0.15630  0.54620  Biso   1.000  O
  O55      1.0000 0.08570  0.45370  0.74740  Biso   1.000  O
  O56      1.0000 0.07540  0.45430  0.66910  Biso   1.000  O
  O57      1.0000 0.03390  0.72360  0.70670  Biso   1.000  O
  O58      1.0000 0.11520  0.80620  0.76580  Biso   1.000  O
  O59      1.0000 0.85600  0.83350  0.58930  Biso   1.000  O
  O60      1.0000 0.92620  0.91600  0.65880  Biso   1.000  O
  O61      1.0000 0.35660  0.73050  0.68990  Biso   1.000  O
  O62      1.0000 0.35310  0.80690  0.69680  Biso   1.000  O
  O63      1.0000 0.58570  0.83830  0.63200  Biso   1.000  O
  O64      1.0000 0.57540  0.90630  0.62110  Biso   1.000  O
