data_image0
_cell_length_a       28.4727
_cell_length_b       28.4727
_cell_length_c       28.4727
_cell_angle_alpha    96.5294
_cell_angle_beta     116.305
_cell_angle_gamma    116.305

_symmetry_space_group_name_H-M    P 1
_symmetry_int_tables_number       1

loop_
  _symmetry_equiv_pos_as_xyz
  'x, y, z'

loop_
  _atom_site_label
  _atom_site_occupancy
  _atom_site_fract_x
  _atom_site_fract_y
  _atom_site_fract_z
  _atom_site_thermal_displace_type
  _atom_site_B_iso_or_equiv
  _atom_site_type_symbol
  Zn1      1.0000 0.28133  0.07016  0.46156  Biso   1.000  Zn
  Zn2      1.0000 0.36618  0.10926  0.39496  Biso   1.000  Zn
  Zn3      1.0000 0.39047  0.14227  0.61238  Biso   1.000  Zn
  Zn4      1.0000 0.20303  0.91933  0.42664  Biso   1.000  Zn
  Zn5      1.0000 0.16857  0.11005  0.41637  Biso   1.000  Zn
  Zn6      1.0000 0.78133  0.31977  0.21116  Biso   1.000  Zn
  Zn7      1.0000 0.86618  0.47122  0.25692  Biso   1.000  Zn
  Zn8      1.0000 0.89047  0.27808  0.24820  Biso   1.000  Zn
  Zn9      1.0000 0.70303  0.27639  0.28370  Biso   1.000  Zn
  Zn10     1.0000 0.66856  0.25219  0.05852  Biso   1.000  Zn
  H1       1.0000 0.58700  0.27350  0.34770  Biso   1.000  H
  H2       1.0000 0.51420  0.24250  0.37090  Biso   1.000  H
  H3       1.0000 0.47540  0.08680  0.32120  Biso   1.000  H
  H4       1.0000 0.54810  0.11780  0.29790  Biso   1.000  H
  H5       1.0000 0.43470  0.20570  0.79900  Biso   1.000  H
  H6       1.0000 0.49470  0.22950  0.89460  Biso   1.000  H
  H7       1.0000 0.61620  0.20940  0.87740  Biso   1.000  H
  H8       1.0000 0.55610  0.18550  0.78160  Biso   1.000  H
  H9       1.0000 0.01970  0.00140  0.34910  Biso   1.000  H
  H10      1.0000 0.93160  0.91100  0.31040  Biso   1.000  H
  H11      1.0000 0.94200  0.83560  0.31600  Biso   1.000  H
  H12      1.0000 0.04040  0.85060  0.36020  Biso   1.000  H
  H13      1.0000 0.52380  0.20770  0.48390  Biso   1.000  H
  H14      1.0000 0.62190  0.27090  0.56760  Biso   1.000  H
  H15      1.0000 0.63240  0.28210  0.65450  Biso   1.000  H
  H16      1.0000 0.54480  0.23000  0.65760  Biso   1.000  H
  H17      1.0000 0.40730  0.05790  0.68560  Biso   1.000  H
  H18      1.0000 0.39300  0.97680  0.70260  Biso   1.000  H
  H19      1.0000 0.31790  0.88870  0.62900  Biso   1.000  H
  H20      1.0000 0.25710  0.88180  0.53830  Biso   1.000  H
  H21      1.0000 0.33090  0.18060  0.31070  Biso   1.000  H
  H22      1.0000 0.27930  0.21810  0.25880  Biso   1.000  H
  H23      1.0000 0.19820  0.21400  0.26220  Biso   1.000  H
  H24      1.0000 0.16870  0.17240  0.31750  Biso   1.000  H
  H25      1.0000 0.20460  0.21700  0.51660  Biso   1.000  H
  H26      1.0000 0.25100  0.28330  0.60430  Biso   1.000  H
  H27      1.0000 0.33700  0.29610  0.68330  Biso   1.000  H
  H28      1.0000 0.37640  0.24240  0.67440  Biso   1.000  H
  H29      1.0000 0.19860  0.84780  0.31980  Biso   1.000  H
  H30      1.0000 0.22120  0.82940  0.25400  Biso   1.000  H
  H31      1.0000 0.28730  0.90370  0.24200  Biso   1.000  H
  H32      1.0000 0.33090  0.99640  0.29590  Biso   1.000  H
  H33      1.0000 0.08700  0.73930  0.31350  Biso   1.000  H
  H34      1.0000 0.01420  0.64330  0.27170  Biso   1.000  H
  H35      1.0000 0.97540  0.65420  0.38860  Biso   1.000  H
  H36      1.0000 0.04810  0.75020  0.43030  Biso   1.000  H
  H37      1.0000 0.93470  0.13570  0.22900  Biso   1.000  H
  H38      1.0000 0.99470  0.10010  0.26520  Biso   1.000  H
  H39      1.0000 0.11620  0.23880  0.40680  Biso   1.000  H
  H40      1.0000 0.05610  0.27450  0.37060  Biso   1.000  H
  H41      1.0000 0.51970  0.17060  0.01830  Biso   1.000  H
  H42      1.0000 0.43160  0.12120  0.02060  Biso   1.000  H
  H43      1.0000 0.44200  0.12600  0.10640  Biso   1.000  H
  H44      1.0000 0.54040  0.18020  0.18980  Biso   1.000  H
  H45      1.0000 0.02380  0.53990  0.31610  Biso   1.000  H
  H46      1.0000 0.12190  0.55430  0.35100  Biso   1.000  H
  H47      1.0000 0.13240  0.47790  0.35030  Biso   1.000  H
  H48      1.0000 0.04480  0.38720  0.31480  Biso   1.000  H
  H49      1.0000 0.90730  0.22170  0.34940  Biso   1.000  H
  H50      1.0000 0.89300  0.19040  0.41620  Biso   1.000  H
  H51      1.0000 0.81790  0.18890  0.42920  Biso   1.000  H
  H52      1.0000 0.75710  0.21880  0.37530  Biso   1.000  H
  H53      1.0000 0.83090  0.52020  0.15030  Biso   1.000  H
  H54      1.0000 0.77930  0.52050  0.06120  Biso   1.000  H
  H55      1.0000 0.69820  0.43600  0.98420  Biso   1.000  H
  H56      1.0000 0.66870  0.35120  0.99630  Biso   1.000  H
  H57      1.0000 0.70460  0.18800  0.98760  Biso   1.000  H
  H58      1.0000 0.75100  0.14670  0.96770  Biso   1.000  H
  H59      1.0000 0.83700  0.15370  0.04090  Biso   1.000  H
  H60      1.0000 0.87640  0.20200  0.13400  Biso   1.000  H
  H61      1.0000 0.69860  0.37880  0.35080  Biso   1.000  H
  H62      1.0000 0.72120  0.46720  0.39180  Biso   1.000  H
  H63      1.0000 0.78730  0.54530  0.38360  Biso   1.000  H
  H64      1.0000 0.83090  0.53500  0.33450  Biso   1.000  H
  C1       1.0000 0.57426  0.19851  0.32059  Biso   1.000  C
  C2       1.0000 0.56423  0.23555  0.34232  Biso   1.000  C
  C3       1.0000 0.52110  0.21716  0.35612  Biso   1.000  C
  C4       1.0000 0.48807  0.16181  0.34828  Biso   1.000  C
  C5       1.0000 0.49812  0.12478  0.32656  Biso   1.000  C
  C6       1.0000 0.54122  0.14315  0.31273  Biso   1.000  C
  C7       1.0000 0.62250  0.21980  0.30550  Biso   1.000  C
  C8       1.0000 0.43830  0.14080  0.36310  Biso   1.000  C
  C9       1.0000 0.48976  0.19335  0.78129  Biso   1.000  C
  C10      1.0000 0.47156  0.20642  0.81490  Biso   1.000  C
  C11      1.0000 0.50718  0.22059  0.87173  Biso   1.000  C
  C12      1.0000 0.56104  0.22169  0.89495  Biso   1.000  C
  C13      1.0000 0.57926  0.20862  0.86136  Biso   1.000  C
  C14      1.0000 0.54364  0.19447  0.80453  Biso   1.000  C
  C15      1.0000 0.45020  0.17580  0.71760  Biso   1.000  C
  C16      1.0000 0.60010  0.23614  0.95844  Biso   1.000  C
  C17      1.0000 0.08873  0.93490  0.38103  Biso   1.000  C
  C18      1.0000 0.08255  0.97991  0.37768  Biso   1.000  C
  C19      1.0000 0.02386  0.97098  0.35132  Biso   1.000  C
  C20      1.0000 0.97135  0.91708  0.32829  Biso   1.000  C
  C21      1.0000 0.97754  0.87209  0.33163  Biso   1.000  C
  C22      1.0000 0.03623  0.88100  0.35801  Biso   1.000  C
  C23      1.0000 0.48193  0.18775  0.57280  Biso   1.000  C
  C24      1.0000 0.47566  0.18106  0.52072  Biso   1.000  C
  C25      1.0000 0.52808  0.21221  0.51875  Biso   1.000  C
  C26      1.0000 0.58679  0.25003  0.56884  Biso   1.000  C
  C27      1.0000 0.59308  0.25674  0.62092  Biso   1.000  C
  C28      1.0000 0.54064  0.22559  0.62287  Biso   1.000  C
  C29      1.0000 0.29583  0.96559  0.55772  Biso   1.000  C
  C30      1.0000 0.34071  0.01823  0.60170  Biso   1.000  C
  C31      1.0000 0.37702  0.02243  0.65587  Biso   1.000  C
  C32      1.0000 0.36847  0.97400  0.66607  Biso   1.000  C
  C33      1.0000 0.32358  0.92141  0.62203  Biso   1.000  C
  C34      1.0000 0.28729  0.91719  0.56790  Biso   1.000  C
  C35      1.0000 0.23208  0.15164  0.34706  Biso   1.000  C
  C36      1.0000 0.28047  0.15410  0.34505  Biso   1.000  C
  C37      1.0000 0.29812  0.17893  0.31209  Biso   1.000  C
  C38      1.0000 0.26740  0.20131  0.28115  Biso   1.000  C
  C39      1.0000 0.21902  0.19885  0.28317  Biso   1.000  C
  C40      1.0000 0.20135  0.17402  0.31611  Biso   1.000  C
  C41      1.0000 0.31400  0.19760  0.59022  Biso   1.000  C
  C42      1.0000 0.26271  0.19003  0.54310  Biso   1.000  C
  C43      1.0000 0.23925  0.22214  0.54845  Biso   1.000  C
  C44      1.0000 0.26700  0.26182  0.60088  Biso   1.000  C
  C45      1.0000 0.31828  0.26938  0.64796  Biso   1.000  C
  C46      1.0000 0.34177  0.23725  0.64262  Biso   1.000  C
  C47      1.0000 0.29067  0.97736  0.33997  Biso   1.000  C
  C48      1.0000 0.25115  0.93295  0.34708  Biso   1.000  C
  C49      1.0000 0.22517  0.87764  0.31493  Biso   1.000  C
  C50      1.0000 0.23872  0.86672  0.27564  Biso   1.000  C
  C51      1.0000 0.27822  0.91112  0.26852  Biso   1.000  C
  C52      1.0000 0.30420  0.96643  0.30067  Biso   1.000  C
  C53      1.0000 0.07426  0.75367  0.37575  Biso   1.000  C
  C54      1.0000 0.06423  0.72191  0.32868  Biso   1.000  C
  C55      1.0000 0.02110  0.66498  0.30394  Biso   1.000  C
  C56      1.0000 0.98807  0.63979  0.32626  Biso   1.000  C
  C57      1.0000 0.99812  0.67156  0.37334  Biso   1.000  C
  C58      1.0000 0.04122  0.72849  0.39807  Biso   1.000  C
  C59      1.0000 0.12250  0.81700  0.40270  Biso   1.000  C
  C60      1.0000 0.93830  0.57520  0.29750  Biso   1.000  C
  C61      1.0000 0.98976  0.20847  0.29641  Biso   1.000  C
  C62      1.0000 0.97156  0.15666  0.26514  Biso   1.000  C
  C63      1.0000 0.00718  0.13545  0.28659  Biso   1.000  C
  C64      1.0000 0.06104  0.16609  0.33935  Biso   1.000  C
  C65      1.0000 0.07926  0.21790  0.37064  Biso   1.000  C
  C66      1.0000 0.04364  0.23911  0.34917  Biso   1.000  C
  C67      1.0000 0.95020  0.23260  0.27440  Biso   1.000  C
  C68      1.0000 0.10010  0.14166  0.36396  Biso   1.000  C
  C69      1.0000 0.58873  0.20770  0.15383  Biso   1.000  C
  C70      1.0000 0.58255  0.20487  0.10264  Biso   1.000  C
  C71      1.0000 0.52386  0.17254  0.05288  Biso   1.000  C
  C72      1.0000 0.47135  0.14306  0.05427  Biso   1.000  C
  C73      1.0000 0.47754  0.14591  0.10545  Biso   1.000  C
  C74      1.0000 0.53623  0.17822  0.15523  Biso   1.000  C
  C75      1.0000 0.98193  0.40913  0.29418  Biso   1.000  C
  C76      1.0000 0.97566  0.45494  0.29460  Biso   1.000  C
  C77      1.0000 0.02808  0.50933  0.31587  Biso   1.000  C
  C78      1.0000 0.08679  0.51795  0.33676  Biso   1.000  C
  C79      1.0000 0.09308  0.47216  0.33634  Biso   1.000  C
  C80      1.0000 0.04064  0.41777  0.31505  Biso   1.000  C
  C81      1.0000 0.79583  0.23811  0.33024  Biso   1.000  C
  C82      1.0000 0.84071  0.23901  0.32248  Biso   1.000  C
  C83      1.0000 0.87702  0.22115  0.35459  Biso   1.000  C
  C84      1.0000 0.86847  0.20240  0.39447  Biso   1.000  C
  C85      1.0000 0.82358  0.20155  0.40217  Biso   1.000  C
  C86      1.0000 0.78729  0.21939  0.37010  Biso   1.000  C
  C87      1.0000 0.73208  0.38502  0.08044  Biso   1.000  C
  C88      1.0000 0.78047  0.43542  0.12637  Biso   1.000  C
  C89      1.0000 0.79812  0.48603  0.11919  Biso   1.000  C
  C90      1.0000 0.76740  0.48625  0.06609  Biso   1.000  C
  C91      1.0000 0.71902  0.43585  0.02017  Biso   1.000  C
  C92      1.0000 0.70135  0.38524  0.02733  Biso   1.000  C
  C93      1.0000 0.81400  0.22378  0.11640  Biso   1.000  C
  C94      1.0000 0.76271  0.21961  0.07268  Biso   1.000  C
  C95      1.0000 0.73925  0.19080  0.01711  Biso   1.000  C
  C96      1.0000 0.76700  0.16612  0.00518  Biso   1.000  C
  C97      1.0000 0.81828  0.17032  0.04890  Biso   1.000  C
  C98      1.0000 0.84177  0.19915  0.10452  Biso   1.000  C
  C99      1.0000 0.79067  0.45070  0.31331  Biso   1.000  C
  C100     1.0000 0.75115  0.40407  0.31820  Biso   1.000  C
  C101     1.0000 0.72517  0.41024  0.34753  Biso   1.000  C
  C102     1.0000 0.73872  0.46308  0.37200  Biso   1.000  C
  C103     1.0000 0.77822  0.50970  0.36710  Biso   1.000  C
  C104     1.0000 0.80420  0.50353  0.33777  Biso   1.000  C
  N1       1.0000 0.14047  0.02796  0.40141  Biso   1.000  N
  N2       1.0000 0.18073  0.01265  0.41958  Biso   1.000  N
  N3       1.0000 0.42451  0.15514  0.56185  Biso   1.000  N
  N4       1.0000 0.15124  0.95672  0.40786  Biso   1.000  N
  N5       1.0000 0.38473  0.12851  0.50572  Biso   1.000  N
  N6       1.0000 0.41531  0.14278  0.48033  Biso   1.000  N
  N7       1.0000 0.34021  0.05760  0.57917  Biso   1.000  N
  N8       1.0000 0.29811  0.02941  0.52424  Biso   1.000  N
  N9       1.0000 0.26930  0.97365  0.50949  Biso   1.000  N
  N10      1.0000 0.30181  0.12956  0.37881  Biso   1.000  N
  N11      1.0000 0.26679  0.11248  0.40043  Biso   1.000  N
  N12      1.0000 0.22423  0.12532  0.38215  Biso   1.000  N
  N13      1.0000 0.32667  0.16097  0.57332  Biso   1.000  N
  N14      1.0000 0.28396  0.13228  0.51708  Biso   1.000  N
  N15      1.0000 0.24527  0.14932  0.49845  Biso   1.000  N
  N16      1.0000 0.30856  0.02585  0.37655  Biso   1.000  N
  N17      1.0000 0.28072  0.01150  0.40426  Biso   1.000  N
  N18      1.0000 0.24643  0.95549  0.38776  Biso   1.000  N
  N19      1.0000 0.64047  0.23906  0.11251  Biso   1.000  N
  N20      1.0000 0.68073  0.26115  0.16808  Biso   1.000  N
  N21      1.0000 0.92451  0.36266  0.26937  Biso   1.000  N
  N22      1.0000 0.65124  0.24338  0.19452  Biso   1.000  N
  N23      1.0000 0.88473  0.37901  0.25622  Biso   1.000  N
  N24      1.0000 0.91531  0.43498  0.27253  Biso   1.000  N
  N25      1.0000 0.84021  0.26104  0.28261  Biso   1.000  N
  N26      1.0000 0.79811  0.27387  0.26870  Biso   1.000  N
  N27      1.0000 0.76930  0.25981  0.29565  Biso   1.000  N
  N28      1.0000 0.80181  0.42300  0.17225  Biso   1.000  N
  N29      1.0000 0.76679  0.36636  0.15431  Biso   1.000  N
  N30      1.0000 0.72423  0.34208  0.09891  Biso   1.000  N
  N31      1.0000 0.82667  0.25335  0.16570  Biso   1.000  N
  N32      1.0000 0.78396  0.26688  0.15168  Biso   1.000  N
  N33      1.0000 0.74527  0.24682  0.09595  Biso   1.000  N
  N34      1.0000 0.80856  0.43201  0.28271  Biso   1.000  N
  N35      1.0000 0.78072  0.37646  0.26922  Biso   1.000  N
  N36      1.0000 0.74643  0.35867  0.29094  Biso   1.000  N
  O1       1.0000 0.63810  0.18928  0.29218  Biso   1.000  O
  O2       1.0000 0.64463  0.26906  0.30599  Biso   1.000  O
  O3       1.0000 0.41758  0.09563  0.36625  Biso   1.000  O
  O4       1.0000 0.42496  0.17208  0.37672  Biso   1.000  O
  O5       1.0000 0.47031  0.17210  0.68881  Biso   1.000  O
  O6       1.0000 0.39516  0.16277  0.69413  Biso   1.000  O
  O7       1.0000 0.65108  0.24022  0.97912  Biso   1.000  O
  O8       1.0000 0.58249  0.24340  0.98801  Biso   1.000  O
  O9       1.0000 0.13810  0.84592  0.44882  Biso   1.000  O
  O10      1.0000 0.14463  0.83864  0.37557  Biso   1.000  O
  O11      1.0000 0.91758  0.55133  0.32195  Biso   1.000  O
  O12      1.0000 0.92496  0.54824  0.25288  Biso   1.000  O
  O13      1.0000 0.97031  0.28150  0.29821  Biso   1.000  O
  O14      1.0000 0.89516  0.20103  0.23239  Biso   1.000  O
  O15      1.0000 0.15108  0.17196  0.41086  Biso   1.000  O
  O16      1.0000 0.08249  0.09448  0.33909  Biso   1.000  O
  Zn11     1.0000 0.21867  0.68023  0.78884  Biso   1.000  Zn
  Zn12     1.0000 0.13382  0.52878  0.74308  Biso   1.000  Zn
  Zn13     1.0000 0.10953  0.72192  0.75180  Biso   1.000  Zn
  Zn14     1.0000 0.29697  0.72361  0.71630  Biso   1.000  Zn
  Zn15     1.0000 0.33144  0.74781  0.94148  Biso   1.000  Zn
  Zn16     1.0000 0.71867  0.92984  0.53844  Biso   1.000  Zn
  Zn17     1.0000 0.63382  0.89074  0.60504  Biso   1.000  Zn
  Zn18     1.0000 0.60953  0.85773  0.38762  Biso   1.000  Zn
  Zn19     1.0000 0.79697  0.08067  0.57336  Biso   1.000  Zn
  Zn20     1.0000 0.83144  0.88996  0.58364  Biso   1.000  Zn
  H65      1.0000 0.91300  0.26070  0.68650  Biso   1.000  H
  H66      1.0000 0.98580  0.35670  0.72830  Biso   1.000  H
  H67      1.0000 0.02460  0.34580  0.61140  Biso   1.000  H
  H68      1.0000 0.95190  0.24980  0.56970  Biso   1.000  H
  H69      1.0000 0.06530  0.86430  0.77100  Biso   1.000  H
  H70      1.0000 0.00530  0.89990  0.73480  Biso   1.000  H
  H71      1.0000 0.88380  0.76120  0.59320  Biso   1.000  H
  H72      1.0000 0.94390  0.72550  0.62940  Biso   1.000  H
  H73      1.0000 0.48030  0.82940  0.98170  Biso   1.000  H
  H74      1.0000 0.56840  0.87880  0.97940  Biso   1.000  H
  H75      1.0000 0.55800  0.87400  0.89360  Biso   1.000  H
  H76      1.0000 0.45960  0.81980  0.81020  Biso   1.000  H
  H77      1.0000 0.97620  0.46010  0.68390  Biso   1.000  H
  H78      1.0000 0.87810  0.44570  0.64900  Biso   1.000  H
  H79      1.0000 0.86760  0.52210  0.64970  Biso   1.000  H
  H80      1.0000 0.95520  0.61280  0.68520  Biso   1.000  H
  H81      1.0000 0.09270  0.77830  0.65060  Biso   1.000  H
  H82      1.0000 0.10700  0.80960  0.58380  Biso   1.000  H
  H83      1.0000 0.18210  0.81110  0.57080  Biso   1.000  H
  H84      1.0000 0.24290  0.78120  0.62470  Biso   1.000  H
  H85      1.0000 0.16910  0.47980  0.84970  Biso   1.000  H
  H86      1.0000 0.22070  0.47950  0.93880  Biso   1.000  H
  H87      1.0000 0.30180  0.56400  0.01580  Biso   1.000  H
  H88      1.0000 0.33130  0.64880  0.00370  Biso   1.000  H
  H89      1.0000 0.29540  0.81200  0.01240  Biso   1.000  H
  H90      1.0000 0.24900  0.85330  0.03230  Biso   1.000  H
  H91      1.0000 0.16300  0.84630  0.95910  Biso   1.000  H
  H92      1.0000 0.12360  0.79800  0.86600  Biso   1.000  H
  H93      1.0000 0.30140  0.62120  0.64920  Biso   1.000  H
  H94      1.0000 0.27880  0.53280  0.60820  Biso   1.000  H
  H95      1.0000 0.21270  0.45470  0.61640  Biso   1.000  H
  H96      1.0000 0.16910  0.46500  0.66550  Biso   1.000  H
  H97      1.0000 0.41300  0.72650  0.65230  Biso   1.000  H
  H98      1.0000 0.48580  0.75750  0.62910  Biso   1.000  H
  H99      1.0000 0.52460  0.91320  0.67880  Biso   1.000  H
  H100     1.0000 0.45190  0.88220  0.70210  Biso   1.000  H
  H101     1.0000 0.56530  0.79430  0.20100  Biso   1.000  H
  H102     1.0000 0.50530  0.77050  0.10540  Biso   1.000  H
  H103     1.0000 0.38380  0.79060  0.12260  Biso   1.000  H
  H104     1.0000 0.44390  0.81450  0.21840  Biso   1.000  H
  H105     1.0000 0.98030  0.99860  0.65090  Biso   1.000  H
  H106     1.0000 0.06840  0.08900  0.68960  Biso   1.000  H
  H107     1.0000 0.05800  0.16440  0.68400  Biso   1.000  H
  H108     1.0000 0.95960  0.14940  0.63980  Biso   1.000  H
  H109     1.0000 0.47620  0.79230  0.51610  Biso   1.000  H
  H110     1.0000 0.37810  0.72910  0.43240  Biso   1.000  H
  H111     1.0000 0.36760  0.71790  0.34550  Biso   1.000  H
  H112     1.0000 0.45520  0.77000  0.34240  Biso   1.000  H
  H113     1.0000 0.59270  0.94210  0.31440  Biso   1.000  H
  H114     1.0000 0.60700  0.02320  0.29740  Biso   1.000  H
  H115     1.0000 0.68210  0.11130  0.37100  Biso   1.000  H
  H116     1.0000 0.74290  0.11820  0.46170  Biso   1.000  H
  H117     1.0000 0.66910  0.81940  0.68930  Biso   1.000  H
  H118     1.0000 0.72070  0.78190  0.74120  Biso   1.000  H
  H119     1.0000 0.80180  0.78600  0.73780  Biso   1.000  H
  H120     1.0000 0.83130  0.82760  0.68250  Biso   1.000  H
  H121     1.0000 0.79540  0.78300  0.48340  Biso   1.000  H
  H122     1.0000 0.74900  0.71670  0.39570  Biso   1.000  H
  H123     1.0000 0.66300  0.70390  0.31670  Biso   1.000  H
  H124     1.0000 0.62360  0.75760  0.32560  Biso   1.000  H
  H125     1.0000 0.80140  0.15220  0.68020  Biso   1.000  H
  H126     1.0000 0.77880  0.17060  0.74600  Biso   1.000  H
  H127     1.0000 0.71270  0.09630  0.75800  Biso   1.000  H
  H128     1.0000 0.66910  0.00360  0.70410  Biso   1.000  H
  C105     1.0000 0.92574  0.24633  0.62425  Biso   1.000  C
  C106     1.0000 0.93577  0.27809  0.67132  Biso   1.000  C
  C107     1.0000 0.97890  0.33502  0.69606  Biso   1.000  C
  C108     1.0000 0.01193  0.36021  0.67374  Biso   1.000  C
  C109     1.0000 0.00188  0.32844  0.62666  Biso   1.000  C
  C110     1.0000 0.95878  0.27151  0.60193  Biso   1.000  C
  C111     1.0000 0.87750  0.18300  0.59730  Biso   1.000  C
  C112     1.0000 0.06170  0.42480  0.70250  Biso   1.000  C
  C113     1.0000 0.01024  0.79153  0.70359  Biso   1.000  C
  C114     1.0000 0.02844  0.84334  0.73486  Biso   1.000  C
  C115     1.0000 0.99282  0.86455  0.71341  Biso   1.000  C
  C116     1.0000 0.93896  0.83391  0.66065  Biso   1.000  C
  C117     1.0000 0.92074  0.78210  0.62936  Biso   1.000  C
  C118     1.0000 0.95636  0.76089  0.65083  Biso   1.000  C
  C119     1.0000 0.04980  0.76740  0.72560  Biso   1.000  C
  C120     1.0000 0.89990  0.85834  0.63604  Biso   1.000  C
  C121     1.0000 0.41127  0.79230  0.84617  Biso   1.000  C
  C122     1.0000 0.41745  0.79513  0.89736  Biso   1.000  C
  C123     1.0000 0.47614  0.82746  0.94712  Biso   1.000  C
  C124     1.0000 0.52865  0.85694  0.94573  Biso   1.000  C
  C125     1.0000 0.52246  0.85409  0.89455  Biso   1.000  C
  C126     1.0000 0.46377  0.82178  0.84477  Biso   1.000  C
  C127     1.0000 0.01807  0.59087  0.70582  Biso   1.000  C
  C128     1.0000 0.02434  0.54506  0.70540  Biso   1.000  C
  C129     1.0000 0.97192  0.49067  0.68413  Biso   1.000  C
  C130     1.0000 0.91321  0.48205  0.66324  Biso   1.000  C
  C131     1.0000 0.90692  0.52784  0.66366  Biso   1.000  C
  C132     1.0000 0.95936  0.58223  0.68495  Biso   1.000  C
  C133     1.0000 0.20417  0.76189  0.66976  Biso   1.000  C
  C134     1.0000 0.15929  0.76099  0.67752  Biso   1.000  C
  C135     1.0000 0.12298  0.77885  0.64541  Biso   1.000  C
  C136     1.0000 0.13153  0.79760  0.60553  Biso   1.000  C
  C137     1.0000 0.17642  0.79845  0.59783  Biso   1.000  C
  C138     1.0000 0.21271  0.78061  0.62990  Biso   1.000  C
  C139     1.0000 0.26792  0.61498  0.91956  Biso   1.000  C
  C140     1.0000 0.21953  0.56458  0.87363  Biso   1.000  C
  C141     1.0000 0.20188  0.51397  0.88081  Biso   1.000  C
  C142     1.0000 0.23260  0.51375  0.93391  Biso   1.000  C
  C143     1.0000 0.28098  0.56415  0.97983  Biso   1.000  C
  C144     1.0000 0.29865  0.61476  0.97267  Biso   1.000  C
  C145     1.0000 0.18600  0.77622  0.88360  Biso   1.000  C
  C146     1.0000 0.23729  0.78039  0.92732  Biso   1.000  C
  C147     1.0000 0.26075  0.80920  0.98289  Biso   1.000  C
  C148     1.0000 0.23300  0.83388  0.99482  Biso   1.000  C
  C149     1.0000 0.18172  0.82968  0.95110  Biso   1.000  C
  C150     1.0000 0.15823  0.80085  0.89548  Biso   1.000  C
  C151     1.0000 0.20933  0.54930  0.68669  Biso   1.000  C
  C152     1.0000 0.24885  0.59593  0.68180  Biso   1.000  C
  C153     1.0000 0.27483  0.58976  0.65247  Biso   1.000  C
  C154     1.0000 0.26128  0.53692  0.62800  Biso   1.000  C
  C155     1.0000 0.22178  0.49030  0.63290  Biso   1.000  C
  C156     1.0000 0.19580  0.49647  0.66223  Biso   1.000  C
  C157     1.0000 0.42574  0.80149  0.67941  Biso   1.000  C
  C158     1.0000 0.43577  0.76445  0.65768  Biso   1.000  C
  C159     1.0000 0.47890  0.78284  0.64388  Biso   1.000  C
  C160     1.0000 0.51193  0.83819  0.65172  Biso   1.000  C
  C161     1.0000 0.50188  0.87522  0.67344  Biso   1.000  C
  C162     1.0000 0.45878  0.85685  0.68727  Biso   1.000  C
  C163     1.0000 0.37750  0.78020  0.69450  Biso   1.000  C
  C164     1.0000 0.56170  0.85920  0.63690  Biso   1.000  C
  C165     1.0000 0.51024  0.80665  0.21871  Biso   1.000  C
  C166     1.0000 0.52844  0.79358  0.18510  Biso   1.000  C
  C167     1.0000 0.49282  0.77941  0.12827  Biso   1.000  C
  C168     1.0000 0.43896  0.77831  0.10505  Biso   1.000  C
  C169     1.0000 0.42074  0.79138  0.13864  Biso   1.000  C
  C170     1.0000 0.45636  0.80553  0.19547  Biso   1.000  C
  C171     1.0000 0.54980  0.82420  0.28240  Biso   1.000  C
  C172     1.0000 0.39990  0.76386  0.04156  Biso   1.000  C
  C173     1.0000 0.91127  0.06510  0.61897  Biso   1.000  C
  C174     1.0000 0.91745  0.02009  0.62232  Biso   1.000  C
  C175     1.0000 0.97614  0.02902  0.64868  Biso   1.000  C
  C176     1.0000 0.02865  0.08292  0.67171  Biso   1.000  C
  C177     1.0000 0.02246  0.12791  0.66837  Biso   1.000  C
  C178     1.0000 0.96377  0.11900  0.64199  Biso   1.000  C
  C179     1.0000 0.51807  0.81225  0.42720  Biso   1.000  C
  C180     1.0000 0.52434  0.81894  0.47928  Biso   1.000  C
  C181     1.0000 0.47192  0.78779  0.48125  Biso   1.000  C
  C182     1.0000 0.41321  0.74997  0.43116  Biso   1.000  C
  C183     1.0000 0.40692  0.74326  0.37908  Biso   1.000  C
  C184     1.0000 0.45936  0.77441  0.37713  Biso   1.000  C
  C185     1.0000 0.70417  0.03441  0.44228  Biso   1.000  C
  C186     1.0000 0.65929  0.98177  0.39830  Biso   1.000  C
  C187     1.0000 0.62298  0.97757  0.34413  Biso   1.000  C
  C188     1.0000 0.63153  0.02600  0.33393  Biso   1.000  C
  C189     1.0000 0.67642  0.07859  0.37797  Biso   1.000  C
  C190     1.0000 0.71271  0.08281  0.43210  Biso   1.000  C
  C191     1.0000 0.76792  0.84836  0.65294  Biso   1.000  C
  C192     1.0000 0.71953  0.84590  0.65495  Biso   1.000  C
  C193     1.0000 0.70188  0.82107  0.68791  Biso   1.000  C
  C194     1.0000 0.73260  0.79869  0.71885  Biso   1.000  C
  C195     1.0000 0.78098  0.80115  0.71683  Biso   1.000  C
  C196     1.0000 0.79865  0.82598  0.68389  Biso   1.000  C
  C197     1.0000 0.68600  0.80240  0.40978  Biso   1.000  C
  C198     1.0000 0.73729  0.80997  0.45690  Biso   1.000  C
  C199     1.0000 0.76075  0.77786  0.45155  Biso   1.000  C
  C200     1.0000 0.73300  0.73818  0.39912  Biso   1.000  C
  C201     1.0000 0.68172  0.73062  0.35204  Biso   1.000  C
  C202     1.0000 0.65823  0.76275  0.35738  Biso   1.000  C
  C203     1.0000 0.70933  0.02264  0.66003  Biso   1.000  C
  C204     1.0000 0.74885  0.06705  0.65292  Biso   1.000  C
  C205     1.0000 0.77483  0.12236  0.68507  Biso   1.000  C
  C206     1.0000 0.76128  0.13328  0.72436  Biso   1.000  C
  C207     1.0000 0.72178  0.08888  0.73148  Biso   1.000  C
  C208     1.0000 0.69580  0.03357  0.69933  Biso   1.000  C
  N37      1.0000 0.35953  0.76094  0.88749  Biso   1.000  N
  N38      1.0000 0.31927  0.73885  0.83192  Biso   1.000  N
  N39      1.0000 0.07549  0.63734  0.73063  Biso   1.000  N
  N40      1.0000 0.34876  0.75662  0.80548  Biso   1.000  N
  N41      1.0000 0.11527  0.62099  0.74378  Biso   1.000  N
  N42      1.0000 0.08469  0.56502  0.72747  Biso   1.000  N
  N43      1.0000 0.15979  0.73896  0.71739  Biso   1.000  N
  N44      1.0000 0.20189  0.72613  0.73130  Biso   1.000  N
  N45      1.0000 0.23070  0.74019  0.70435  Biso   1.000  N
  N46      1.0000 0.19819  0.57700  0.82775  Biso   1.000  N
  N47      1.0000 0.23321  0.63364  0.84569  Biso   1.000  N
  N48      1.0000 0.27577  0.65792  0.90109  Biso   1.000  N
  N49      1.0000 0.17333  0.74665  0.83430  Biso   1.000  N
  N50      1.0000 0.21604  0.73312  0.84832  Biso   1.000  N
  N51      1.0000 0.25473  0.75318  0.90405  Biso   1.000  N
  N52      1.0000 0.19144  0.56799  0.71729  Biso   1.000  N
  N53      1.0000 0.21928  0.62354  0.73078  Biso   1.000  N
  N54      1.0000 0.25357  0.64133  0.70906  Biso   1.000  N
  N55      1.0000 0.85953  0.97204  0.59859  Biso   1.000  N
  N56      1.0000 0.81927  0.98735  0.58042  Biso   1.000  N
  N57      1.0000 0.57549  0.84486  0.43815  Biso   1.000  N
  N58      1.0000 0.84876  0.04328  0.59214  Biso   1.000  N
  N59      1.0000 0.61527  0.87149  0.49428  Biso   1.000  N
  N60      1.0000 0.58469  0.85722  0.51967  Biso   1.000  N
  N61      1.0000 0.65979  0.94240  0.42083  Biso   1.000  N
  N62      1.0000 0.70189  0.97059  0.47576  Biso   1.000  N
  N63      1.0000 0.73070  0.02635  0.49051  Biso   1.000  N
  N64      1.0000 0.69819  0.87044  0.62119  Biso   1.000  N
  N65      1.0000 0.73321  0.88752  0.59957  Biso   1.000  N
  N66      1.0000 0.77577  0.87468  0.61785  Biso   1.000  N
  N67      1.0000 0.67333  0.83903  0.42668  Biso   1.000  N
  N68      1.0000 0.71604  0.86772  0.48292  Biso   1.000  N
  N69      1.0000 0.75473  0.85068  0.50155  Biso   1.000  N
  N70      1.0000 0.69144  0.97415  0.62345  Biso   1.000  N
  N71      1.0000 0.71928  0.98850  0.59574  Biso   1.000  N
  N72      1.0000 0.75357  0.04451  0.61224  Biso   1.000  N
  O17      1.0000 0.86190  0.15408  0.55118  Biso   1.000  O
  O18      1.0000 0.85537  0.16136  0.62443  Biso   1.000  O
  O19      1.0000 0.08242  0.44867  0.67805  Biso   1.000  O
  O20      1.0000 0.07504  0.45176  0.74712  Biso   1.000  O
  O21      1.0000 0.02969  0.71850  0.70179  Biso   1.000  O
  O22      1.0000 0.10484  0.79897  0.76761  Biso   1.000  O
  O23      1.0000 0.84892  0.82804  0.58914  Biso   1.000  O
  O24      1.0000 0.91751  0.90552  0.66091  Biso   1.000  O
  O25      1.0000 0.36190  0.81072  0.70782  Biso   1.000  O
  O26      1.0000 0.35537  0.73094  0.69401  Biso   1.000  O
  O27      1.0000 0.58242  0.90437  0.63375  Biso   1.000  O
  O28      1.0000 0.57504  0.82792  0.62328  Biso   1.000  O
  O29      1.0000 0.52969  0.82790  0.31119  Biso   1.000  O
  O30      1.0000 0.60484  0.83723  0.30587  Biso   1.000  O
  O31      1.0000 0.34892  0.75978  0.02088  Biso   1.000  O
  O32      1.0000 0.41751  0.75660  0.01199  Biso   1.000  O
  Zn21     1.0000 0.39139  0.46156  0.68022  Biso   1.000  Zn
  Zn22     1.0000 0.28570  0.39496  0.52878  Biso   1.000  Zn
  Zn23     1.0000 0.47011  0.61238  0.72191  Biso   1.000  Zn
  Zn24     1.0000 0.50731  0.42664  0.72361  Biso   1.000  Zn
  Zn25     1.0000 0.30633  0.41637  0.74781  Biso   1.000  Zn
  Zn26     1.0000 0.89139  0.21116  0.92983  Biso   1.000  Zn
  Zn27     1.0000 0.78570  0.25692  0.89074  Biso   1.000  Zn
  Zn28     1.0000 0.97011  0.24820  0.85772  Biso   1.000  Zn
  Zn29     1.0000 0.00731  0.28370  0.08067  Biso   1.000  Zn
  Zn30     1.0000 0.80633  0.05853  0.88996  Biso   1.000  Zn
  H129     1.0000 0.07420  0.34770  0.26070  Biso   1.000  H
  H130     1.0000 0.12840  0.37090  0.35670  Biso   1.000  H
  H131     1.0000 0.23440  0.32120  0.34580  Biso   1.000  H
  H132     1.0000 0.18010  0.29790  0.24980  Biso   1.000  H
  H133     1.0000 0.59330  0.79900  0.86430  Biso   1.000  H
  H134     1.0000 0.66510  0.89460  0.89990  Biso   1.000  H
  H135     1.0000 0.66800  0.87740  0.76120  Biso   1.000  H
  H136     1.0000 0.59610  0.78160  0.72550  Biso   1.000  H
  H137     1.0000 0.34770  0.34910  0.82940  Biso   1.000  H
  H138     1.0000 0.39940  0.31040  0.87880  Biso   1.000  H
  H139     1.0000 0.48040  0.31600  0.87400  Biso   1.000  H
  H140     1.0000 0.50960  0.36020  0.81980  Biso   1.000  H
  H141     1.0000 0.27620  0.48390  0.46010  Biso   1.000  H
  H142     1.0000 0.29670  0.56760  0.44570  Biso   1.000  H
  H143     1.0000 0.37240  0.65450  0.52210  Biso   1.000  H
  H144     1.0000 0.42760  0.65760  0.61280  Biso   1.000  H
  H145     1.0000 0.62770  0.68560  0.77830  Biso   1.000  H
  H146     1.0000 0.72580  0.70260  0.80960  Biso   1.000  H
  H147     1.0000 0.74030  0.62900  0.81110  Biso   1.000  H
  H148     1.0000 0.65650  0.53830  0.78120  Biso   1.000  H
  H149     1.0000 0.13010  0.31070  0.47980  Biso   1.000  H
  H150     1.0000 0.04070  0.25880  0.47950  Biso   1.000  H
  H151     1.0000 0.04820  0.26220  0.56400  Biso   1.000  H
  H152     1.0000 0.14510  0.31750  0.64880  Biso   1.000  H
  H153     1.0000 0.29960  0.51660  0.81200  Biso   1.000  H
  H154     1.0000 0.32100  0.60430  0.85330  Biso   1.000  H
  H155     1.0000 0.38720  0.68330  0.84630  Biso   1.000  H
  H156     1.0000 0.43200  0.67440  0.79800  Biso   1.000  H
  H157     1.0000 0.47200  0.31980  0.62120  Biso   1.000  H
  H158     1.0000 0.42460  0.25400  0.53280  Biso   1.000  H
  H159     1.0000 0.33830  0.24200  0.45470  Biso   1.000  H
  H160     1.0000 0.29950  0.29590  0.46500  Biso   1.000  H
  H161     1.0000 0.57420  0.31350  0.72650  Biso   1.000  H
  H162     1.0000 0.62840  0.27170  0.75750  Biso   1.000  H
  H163     1.0000 0.73440  0.38860  0.91320  Biso   1.000  H
  H164     1.0000 0.68010  0.43030  0.88220  Biso   1.000  H
  H165     1.0000 0.09330  0.22900  0.79430  Biso   1.000  H
  H166     1.0000 0.16510  0.26520  0.77050  Biso   1.000  H
  H167     1.0000 0.16800  0.40680  0.79060  Biso   1.000  H
  H168     1.0000 0.09610  0.37060  0.81450  Biso   1.000  H
  H169     1.0000 0.84770  0.01830  0.99860  Biso   1.000  H
  H170     1.0000 0.89940  0.02060  0.08900  Biso   1.000  H
  H171     1.0000 0.98040  0.10640  0.16440  Biso   1.000  H
  H172     1.0000 0.00960  0.18980  0.14940  Biso   1.000  H
  H173     1.0000 0.77620  0.31610  0.79230  Biso   1.000  H
  H174     1.0000 0.79670  0.35100  0.72910  Biso   1.000  H
  H175     1.0000 0.87240  0.35030  0.71790  Biso   1.000  H
  H176     1.0000 0.92760  0.31480  0.77000  Biso   1.000  H
  H177     1.0000 0.12770  0.34940  0.94210  Biso   1.000  H
  H178     1.0000 0.22580  0.41620  0.02320  Biso   1.000  H
  H179     1.0000 0.24030  0.42920  0.11130  Biso   1.000  H
  H180     1.0000 0.15650  0.37530  0.11820  Biso   1.000  H
  H181     1.0000 0.63010  0.15030  0.81940  Biso   1.000  H
  H182     1.0000 0.54070  0.06120  0.78190  Biso   1.000  H
  H183     1.0000 0.54820  0.98420  0.78600  Biso   1.000  H
  H184     1.0000 0.64510  0.99630  0.82760  Biso   1.000  H
  H185     1.0000 0.79960  0.98760  0.78300  Biso   1.000  H
  H186     1.0000 0.82100  0.96770  0.71670  Biso   1.000  H
  H187     1.0000 0.88720  0.04090  0.70390  Biso   1.000  H
  H188     1.0000 0.93200  0.13400  0.75760  Biso   1.000  H
  H189     1.0000 0.97200  0.35080  0.15220  Biso   1.000  H
  H190     1.0000 0.92460  0.39180  0.17060  Biso   1.000  H
  H191     1.0000 0.83830  0.38360  0.09630  Biso   1.000  H
  H192     1.0000 0.79950  0.33450  0.00360  Biso   1.000  H
  C209     1.0000 0.12208  0.32059  0.24633  Biso   1.000  C
  C210     1.0000 0.10677  0.34232  0.27809  Biso   1.000  C
  C211     1.0000 0.13896  0.35612  0.33502  Biso   1.000  C
  C212     1.0000 0.18647  0.34828  0.36021  Biso   1.000  C
  C213     1.0000 0.20178  0.32656  0.32844  Biso   1.000  C
  C214     1.0000 0.16958  0.31273  0.27151  Biso   1.000  C
  C215     1.0000 0.08570  0.30550  0.18300  Biso   1.000  C
  C216     1.0000 0.22230  0.36310  0.42480  Biso   1.000  C
  C217     1.0000 0.58794  0.78129  0.79153  Biso   1.000  C
  C218     1.0000 0.60848  0.81490  0.84334  Biso   1.000  C
  C219     1.0000 0.65114  0.87173  0.86455  Biso   1.000  C
  C220     1.0000 0.67326  0.89495  0.83391  Biso   1.000  C
  C221     1.0000 0.65274  0.86136  0.78210  Biso   1.000  C
  C222     1.0000 0.61006  0.80453  0.76089  Biso   1.000  C
  C223     1.0000 0.54180  0.71760  0.76740  Biso   1.000  C
  C224     1.0000 0.72230  0.95844  0.85834  Biso   1.000  C
  C225     1.0000 0.44613  0.38103  0.79230  Biso   1.000  C
  C226     1.0000 0.39777  0.37768  0.79513  Biso   1.000  C
  C227     1.0000 0.38034  0.35132  0.82746  Biso   1.000  C
  C228     1.0000 0.41121  0.32829  0.85694  Biso   1.000  C
  C229     1.0000 0.45954  0.33163  0.85409  Biso   1.000  C
  C230     1.0000 0.47701  0.35801  0.82178  Biso   1.000  C
  C231     1.0000 0.38505  0.57280  0.59087  Biso   1.000  C
  C232     1.0000 0.33966  0.52072  0.54506  Biso   1.000  C
  C233     1.0000 0.30654  0.51875  0.49067  Biso   1.000  C
  C234     1.0000 0.31881  0.56884  0.48205  Biso   1.000  C
  C235     1.0000 0.36418  0.62092  0.52784  Biso   1.000  C
  C236     1.0000 0.39728  0.62287  0.58223  Biso   1.000  C
  C237     1.0000 0.59213  0.55772  0.76189  Biso   1.000  C
  C238     1.0000 0.58347  0.60170  0.76099  Biso   1.000  C
  C239     1.0000 0.63344  0.65587  0.77885  Biso   1.000  C
  C240     1.0000 0.69207  0.66607  0.79760  Biso   1.000  C
  C241     1.0000 0.70062  0.62203  0.79845  Biso   1.000  C
  C242     1.0000 0.65071  0.56790  0.78061  Biso   1.000  C
  C243     1.0000 0.19542  0.34706  0.61498  Biso   1.000  C
  C244     1.0000 0.19095  0.34505  0.56458  Biso   1.000  C
  C245     1.0000 0.13316  0.31209  0.51397  Biso   1.000  C
  C246     1.0000 0.07984  0.28115  0.51375  Biso   1.000  C
  C247     1.0000 0.08432  0.28317  0.56415  Biso   1.000  C
  C248     1.0000 0.14209  0.31611  0.61476  Biso   1.000  C
  C249     1.0000 0.39262  0.59022  0.77622  Biso   1.000  C
  C250     1.0000 0.35307  0.54310  0.78039  Biso   1.000  C
  C251     1.0000 0.32631  0.54845  0.80920  Biso   1.000  C
  C252     1.0000 0.33906  0.60088  0.83388  Biso   1.000  C
  C253     1.0000 0.37858  0.64796  0.82968  Biso   1.000  C
  C254     1.0000 0.40537  0.64262  0.80085  Biso   1.000  C
  C255     1.0000 0.36261  0.33997  0.54930  Biso   1.000  C
  C256     1.0000 0.41413  0.34708  0.59593  Biso   1.000  C
  C257     1.0000 0.43729  0.31493  0.58976  Biso   1.000  C
  C258     1.0000 0.40892  0.27564  0.53692  Biso   1.000  C
  C259     1.0000 0.35740  0.26852  0.49030  Biso   1.000  C
  C260     1.0000 0.33424  0.30067  0.49647  Biso   1.000  C
  C261     1.0000 0.62208  0.37575  0.80149  Biso   1.000  C
  C262     1.0000 0.60677  0.32868  0.76445  Biso   1.000  C
  C263     1.0000 0.63896  0.30394  0.78284  Biso   1.000  C
  C264     1.0000 0.68647  0.32626  0.83819  Biso   1.000  C
  C265     1.0000 0.70178  0.37334  0.87522  Biso   1.000  C
  C266     1.0000 0.66958  0.39807  0.85685  Biso   1.000  C
  C267     1.0000 0.58570  0.40270  0.78020  Biso   1.000  C
  C268     1.0000 0.72230  0.29750  0.85920  Biso   1.000  C
  C269     1.0000 0.08794  0.29641  0.80665  Biso   1.000  C
  C270     1.0000 0.10848  0.26514  0.79358  Biso   1.000  C
  C271     1.0000 0.15114  0.28659  0.77941  Biso   1.000  C
  C272     1.0000 0.17326  0.33935  0.77831  Biso   1.000  C
  C273     1.0000 0.15274  0.37064  0.79138  Biso   1.000  C
  C274     1.0000 0.11006  0.34917  0.80553  Biso   1.000  C
  C275     1.0000 0.04180  0.27440  0.82420  Biso   1.000  C
  C276     1.0000 0.22230  0.36396  0.76386  Biso   1.000  C
  C277     1.0000 0.94613  0.15383  0.06510  Biso   1.000  C
  C278     1.0000 0.89777  0.10264  0.02009  Biso   1.000  C
  C279     1.0000 0.88034  0.05288  0.02902  Biso   1.000  C
  C280     1.0000 0.91121  0.05427  0.08292  Biso   1.000  C
  C281     1.0000 0.95954  0.10545  0.12791  Biso   1.000  C
  C282     1.0000 0.97701  0.15523  0.11900  Biso   1.000  C
  C283     1.0000 0.88505  0.29418  0.81225  Biso   1.000  C
  C284     1.0000 0.83966  0.29460  0.81894  Biso   1.000  C
  C285     1.0000 0.80654  0.31587  0.78779  Biso   1.000  C
  C286     1.0000 0.81881  0.33676  0.74997  Biso   1.000  C
  C287     1.0000 0.86418  0.33634  0.74326  Biso   1.000  C
  C288     1.0000 0.89728  0.31505  0.77441  Biso   1.000  C
  C289     1.0000 0.09213  0.33024  0.03441  Biso   1.000  C
  C290     1.0000 0.08347  0.32248  0.98177  Biso   1.000  C
  C291     1.0000 0.13344  0.35459  0.97757  Biso   1.000  C
  C292     1.0000 0.19207  0.39447  0.02600  Biso   1.000  C
  C293     1.0000 0.20062  0.40217  0.07859  Biso   1.000  C
  C294     1.0000 0.15071  0.37010  0.08281  Biso   1.000  C
  C295     1.0000 0.69542  0.08044  0.84836  Biso   1.000  C
  C296     1.0000 0.69095  0.12637  0.84590  Biso   1.000  C
  C297     1.0000 0.63316  0.11919  0.82107  Biso   1.000  C
  C298     1.0000 0.57984  0.06609  0.79869  Biso   1.000  C
  C299     1.0000 0.58432  0.02017  0.80115  Biso   1.000  C
  C300     1.0000 0.64209  0.02733  0.82598  Biso   1.000  C
  C301     1.0000 0.89262  0.11640  0.80240  Biso   1.000  C
  C302     1.0000 0.85307  0.07268  0.80997  Biso   1.000  C
  C303     1.0000 0.82631  0.01711  0.77786  Biso   1.000  C
  C304     1.0000 0.83906  0.00518  0.73818  Biso   1.000  C
  C305     1.0000 0.87858  0.04890  0.73062  Biso   1.000  C
  C306     1.0000 0.90537  0.10452  0.76275  Biso   1.000  C
  C307     1.0000 0.86261  0.31331  0.02264  Biso   1.000  C
  C308     1.0000 0.91413  0.31820  0.06705  Biso   1.000  C
  C309     1.0000 0.93729  0.34753  0.12236  Biso   1.000  C
  C310     1.0000 0.90892  0.37200  0.13328  Biso   1.000  C
  C311     1.0000 0.85740  0.36710  0.08888  Biso   1.000  C
  C312     1.0000 0.83424  0.33777  0.03357  Biso   1.000  C
  N73      1.0000 0.37345  0.40141  0.76094  Biso   1.000  N
  N74      1.0000 0.40693  0.41958  0.73885  Biso   1.000  N
  N75      1.0000 0.40671  0.56185  0.63734  Biso   1.000  N
  N76      1.0000 0.45114  0.40786  0.75662  Biso   1.000  N
  N77      1.0000 0.37721  0.50572  0.62099  Biso   1.000  N
  N78      1.0000 0.33755  0.48033  0.56502  Biso   1.000  N
  N79      1.0000 0.52157  0.57917  0.73896  Biso   1.000  N
  N80      1.0000 0.49483  0.52424  0.72613  Biso   1.000  N
  N81      1.0000 0.53584  0.50949  0.74019  Biso   1.000  N
  N82      1.0000 0.24925  0.37881  0.57700  Biso   1.000  N
  N83      1.0000 0.28795  0.40043  0.63364  Biso   1.000  N
  N84      1.0000 0.25683  0.38215  0.65792  Biso   1.000  N
  N85      1.0000 0.41235  0.57332  0.74665  Biso   1.000  N
  N86      1.0000 0.38480  0.51708  0.73312  Biso   1.000  N
  N87      1.0000 0.34913  0.49845  0.75318  Biso   1.000  N
  N88      1.0000 0.35070  0.37655  0.56799  Biso   1.000  N
  N89      1.0000 0.39276  0.40426  0.62354  Biso   1.000  N
  N90      1.0000 0.43227  0.38776  0.64133  Biso   1.000  N
  N91      1.0000 0.87345  0.11251  0.97204  Biso   1.000  N
  N92      1.0000 0.90693  0.16808  0.98735  Biso   1.000  N
  N93      1.0000 0.90671  0.26937  0.84486  Biso   1.000  N
  N94      1.0000 0.95114  0.19452  0.04328  Biso   1.000  N
  N95      1.0000 0.87721  0.25622  0.87149  Biso   1.000  N
  N96      1.0000 0.83755  0.27253  0.85722  Biso   1.000  N
  N97      1.0000 0.02157  0.28261  0.94240  Biso   1.000  N
  N98      1.0000 0.99483  0.26870  0.97059  Biso   1.000  N
  N99      1.0000 0.03584  0.29565  0.02635  Biso   1.000  N
  N100     1.0000 0.74925  0.17225  0.87044  Biso   1.000  N
  N101     1.0000 0.78795  0.15431  0.88752  Biso   1.000  N
  N102     1.0000 0.75683  0.09891  0.87468  Biso   1.000  N
  N103     1.0000 0.91235  0.16570  0.83903  Biso   1.000  N
  N104     1.0000 0.88480  0.15168  0.86772  Biso   1.000  N
  N105     1.0000 0.84913  0.09595  0.85068  Biso   1.000  N
  N106     1.0000 0.85070  0.28271  0.97415  Biso   1.000  N
  N107     1.0000 0.89276  0.26922  0.98850  Biso   1.000  N
  N108     1.0000 0.93227  0.29094  0.04451  Biso   1.000  N
  O33      1.0000 0.10290  0.29218  0.15408  Biso   1.000  O
  O34      1.0000 0.03693  0.30599  0.16136  Biso   1.000  O
  O35      1.0000 0.27062  0.36625  0.44867  Biso   1.000  O
  O36      1.0000 0.20464  0.37672  0.45176  Biso   1.000  O
  O37      1.0000 0.51671  0.68881  0.71850  Biso   1.000  O
  O38      1.0000 0.53136  0.69413  0.79897  Biso   1.000  O
  O39      1.0000 0.73890  0.97912  0.82804  Biso   1.000  O
  O40      1.0000 0.74461  0.98801  0.90552  Biso   1.000  O
  O41      1.0000 0.60290  0.44882  0.81072  Biso   1.000  O
  O42      1.0000 0.53693  0.37557  0.73094  Biso   1.000  O
  O43      1.0000 0.77062  0.32195  0.90437  Biso   1.000  O
  O44      1.0000 0.70464  0.25288  0.82792  Biso   1.000  O
  O45      1.0000 0.01671  0.29821  0.82790  Biso   1.000  O
  O46      1.0000 0.03136  0.23239  0.83723  Biso   1.000  O
  O47      1.0000 0.23890  0.41086  0.75978  Biso   1.000  O
  O48      1.0000 0.24461  0.33909  0.75660  Biso   1.000  O
  Zn31     1.0000 0.10861  0.78884  0.07017  Biso   1.000  Zn
  Zn32     1.0000 0.21430  0.74308  0.10926  Biso   1.000  Zn
  Zn33     1.0000 0.02989  0.75180  0.14228  Biso   1.000  Zn
  Zn34     1.0000 0.99269  0.71630  0.91933  Biso   1.000  Zn
  Zn35     1.0000 0.19367  0.94147  0.11004  Biso   1.000  Zn
  Zn36     1.0000 0.60861  0.53844  0.31978  Biso   1.000  Zn
  Zn37     1.0000 0.71430  0.60504  0.47122  Biso   1.000  Zn
  Zn38     1.0000 0.52989  0.38762  0.27809  Biso   1.000  Zn
  Zn39     1.0000 0.49269  0.57336  0.27639  Biso   1.000  Zn
  Zn40     1.0000 0.69367  0.58363  0.25219  Biso   1.000  Zn
  H193     1.0000 0.42580  0.68650  0.27350  Biso   1.000  H
  H194     1.0000 0.37160  0.72830  0.24250  Biso   1.000  H
  H195     1.0000 0.26560  0.61140  0.08680  Biso   1.000  H
  H196     1.0000 0.31990  0.56970  0.11780  Biso   1.000  H
  H197     1.0000 0.90670  0.77100  0.20570  Biso   1.000  H
  H198     1.0000 0.83490  0.73480  0.22950  Biso   1.000  H
  H199     1.0000 0.83200  0.59320  0.20940  Biso   1.000  H
  H200     1.0000 0.90390  0.62940  0.18550  Biso   1.000  H
  H201     1.0000 0.15230  0.98170  0.00140  Biso   1.000  H
  H202     1.0000 0.10060  0.97940  0.91100  Biso   1.000  H
  H203     1.0000 0.01960  0.89360  0.83560  Biso   1.000  H
  H204     1.0000 0.99040  0.81020  0.85060  Biso   1.000  H
  H205     1.0000 0.22380  0.68390  0.20770  Biso   1.000  H
  H206     1.0000 0.20330  0.64900  0.27090  Biso   1.000  H
  H207     1.0000 0.12760  0.64970  0.28210  Biso   1.000  H
  H208     1.0000 0.07240  0.68520  0.23000  Biso   1.000  H
  H209     1.0000 0.87230  0.65060  0.05790  Biso   1.000  H
  H210     1.0000 0.77420  0.58380  0.97680  Biso   1.000  H
  H211     1.0000 0.75970  0.57080  0.88870  Biso   1.000  H
  H212     1.0000 0.84350  0.62470  0.88180  Biso   1.000  H
  H213     1.0000 0.36990  0.84970  0.18060  Biso   1.000  H
  H214     1.0000 0.45930  0.93880  0.21810  Biso   1.000  H
  H215     1.0000 0.45180  0.01580  0.21400  Biso   1.000  H
  H216     1.0000 0.35490  0.00370  0.17240  Biso   1.000  H
  H217     1.0000 0.20040  0.01240  0.21700  Biso   1.000  H
  H218     1.0000 0.17900  0.03230  0.28330  Biso   1.000  H
  H219     1.0000 0.11280  0.95910  0.29610  Biso   1.000  H
  H220     1.0000 0.06800  0.86600  0.24240  Biso   1.000  H
  H221     1.0000 0.02800  0.64920  0.84780  Biso   1.000  H
  H222     1.0000 0.07540  0.60820  0.82940  Biso   1.000  H
  H223     1.0000 0.16170  0.61640  0.90370  Biso   1.000  H
  H224     1.0000 0.20050  0.66550  0.99640  Biso   1.000  H
  H225     1.0000 0.92580  0.65230  0.73930  Biso   1.000  H
  H226     1.0000 0.87160  0.62910  0.64330  Biso   1.000  H
  H227     1.0000 0.76560  0.67880  0.65420  Biso   1.000  H
  H228     1.0000 0.81990  0.70210  0.75020  Biso   1.000  H
  H229     1.0000 0.40670  0.20100  0.13570  Biso   1.000  H
  H230     1.0000 0.33490  0.10540  0.10010  Biso   1.000  H
  H231     1.0000 0.33200  0.12260  0.23880  Biso   1.000  H
  H232     1.0000 0.40390  0.21840  0.27450  Biso   1.000  H
  H233     1.0000 0.65230  0.65090  0.17060  Biso   1.000  H
  H234     1.0000 0.60060  0.68960  0.12120  Biso   1.000  H
  H235     1.0000 0.51960  0.68400  0.12600  Biso   1.000  H
  H236     1.0000 0.49040  0.63980  0.18020  Biso   1.000  H
  H237     1.0000 0.72380  0.51610  0.53990  Biso   1.000  H
  H238     1.0000 0.70330  0.43240  0.55430  Biso   1.000  H
  H239     1.0000 0.62760  0.34550  0.47790  Biso   1.000  H
  H240     1.0000 0.57240  0.34240  0.38720  Biso   1.000  H
  H241     1.0000 0.37230  0.31440  0.22170  Biso   1.000  H
  H242     1.0000 0.27420  0.29740  0.19040  Biso   1.000  H
  H243     1.0000 0.25970  0.37100  0.18890  Biso   1.000  H
  H244     1.0000 0.34350  0.46170  0.21880  Biso   1.000  H
  H245     1.0000 0.86990  0.68930  0.52020  Biso   1.000  H
  H246     1.0000 0.95930  0.74120  0.52050  Biso   1.000  H
  H247     1.0000 0.95180  0.73780  0.43600  Biso   1.000  H
  H248     1.0000 0.85490  0.68250  0.35120  Biso   1.000  H
  H249     1.0000 0.70040  0.48340  0.18800  Biso   1.000  H
  H250     1.0000 0.67900  0.39570  0.14670  Biso   1.000  H
  H251     1.0000 0.61280  0.31670  0.15370  Biso   1.000  H
  H252     1.0000 0.56800  0.32560  0.20200  Biso   1.000  H
  H253     1.0000 0.52800  0.68020  0.37880  Biso   1.000  H
  H254     1.0000 0.57540  0.74600  0.46720  Biso   1.000  H
  H255     1.0000 0.66170  0.75800  0.54530  Biso   1.000  H
  H256     1.0000 0.70050  0.70410  0.53500  Biso   1.000  H
  C313     1.0000 0.37792  0.62425  0.19851  Biso   1.000  C
  C314     1.0000 0.39323  0.67132  0.23555  Biso   1.000  C
  C315     1.0000 0.36104  0.69606  0.21716  Biso   1.000  C
  C316     1.0000 0.31353  0.67374  0.16181  Biso   1.000  C
  C317     1.0000 0.29822  0.62666  0.12478  Biso   1.000  C
  C318     1.0000 0.33042  0.60193  0.14315  Biso   1.000  C
  C319     1.0000 0.41430  0.59730  0.21980  Biso   1.000  C
  C320     1.0000 0.27770  0.70250  0.14080  Biso   1.000  C
  C321     1.0000 0.91206  0.70359  0.19335  Biso   1.000  C
  C322     1.0000 0.89152  0.73486  0.20642  Biso   1.000  C
  C323     1.0000 0.84886  0.71341  0.22059  Biso   1.000  C
  C324     1.0000 0.82674  0.66065  0.22169  Biso   1.000  C
  C325     1.0000 0.84726  0.62936  0.20862  Biso   1.000  C
  C326     1.0000 0.88994  0.65083  0.19447  Biso   1.000  C
  C327     1.0000 0.95820  0.72560  0.17580  Biso   1.000  C
  C328     1.0000 0.77770  0.63604  0.23614  Biso   1.000  C
  C329     1.0000 0.05387  0.84617  0.93490  Biso   1.000  C
  C330     1.0000 0.10223  0.89736  0.97991  Biso   1.000  C
  C331     1.0000 0.11966  0.94712  0.97098  Biso   1.000  C
  C332     1.0000 0.08879  0.94573  0.91708  Biso   1.000  C
  C333     1.0000 0.04046  0.89455  0.87209  Biso   1.000  C
  C334     1.0000 0.02299  0.84477  0.88100  Biso   1.000  C
  C335     1.0000 0.11495  0.70582  0.18775  Biso   1.000  C
  C336     1.0000 0.16034  0.70540  0.18106  Biso   1.000  C
  C337     1.0000 0.19346  0.68413  0.21221  Biso   1.000  C
  C338     1.0000 0.18119  0.66324  0.25003  Biso   1.000  C
  C339     1.0000 0.13582  0.66366  0.25674  Biso   1.000  C
  C340     1.0000 0.10272  0.68495  0.22559  Biso   1.000  C
  C341     1.0000 0.90787  0.66976  0.96559  Biso   1.000  C
  C342     1.0000 0.91653  0.67752  0.01823  Biso   1.000  C
  C343     1.0000 0.86656  0.64541  0.02243  Biso   1.000  C
  C344     1.0000 0.80793  0.60553  0.97400  Biso   1.000  C
  C345     1.0000 0.79938  0.59783  0.92141  Biso   1.000  C
  C346     1.0000 0.84929  0.62990  0.91719  Biso   1.000  C
  C347     1.0000 0.30458  0.91956  0.15164  Biso   1.000  C
  C348     1.0000 0.30905  0.87363  0.15410  Biso   1.000  C
  C349     1.0000 0.36684  0.88081  0.17893  Biso   1.000  C
  C350     1.0000 0.42016  0.93391  0.20131  Biso   1.000  C
  C351     1.0000 0.41568  0.97983  0.19885  Biso   1.000  C
  C352     1.0000 0.35791  0.97267  0.17402  Biso   1.000  C
  C353     1.0000 0.10738  0.88360  0.19760  Biso   1.000  C
  C354     1.0000 0.14693  0.92732  0.19003  Biso   1.000  C
  C355     1.0000 0.17369  0.98289  0.22214  Biso   1.000  C
  C356     1.0000 0.16094  0.99482  0.26182  Biso   1.000  C
  C357     1.0000 0.12142  0.95110  0.26938  Biso   1.000  C
  C358     1.0000 0.09463  0.89548  0.23725  Biso   1.000  C
  C359     1.0000 0.13739  0.68669  0.97736  Biso   1.000  C
  C360     1.0000 0.08587  0.68180  0.93295  Biso   1.000  C
  C361     1.0000 0.06271  0.65247  0.87764  Biso   1.000  C
  C362     1.0000 0.09108  0.62800  0.86672  Biso   1.000  C
  C363     1.0000 0.14260  0.63290  0.91112  Biso   1.000  C
  C364     1.0000 0.16576  0.66223  0.96643  Biso   1.000  C
  C365     1.0000 0.87792  0.67941  0.75367  Biso   1.000  C
  C366     1.0000 0.89323  0.65768  0.72191  Biso   1.000  C
  C367     1.0000 0.86104  0.64388  0.66498  Biso   1.000  C
  C368     1.0000 0.81353  0.65172  0.63979  Biso   1.000  C
  C369     1.0000 0.79822  0.67344  0.67156  Biso   1.000  C
  C370     1.0000 0.83042  0.68727  0.72849  Biso   1.000  C
  C371     1.0000 0.91430  0.69450  0.81700  Biso   1.000  C
  C372     1.0000 0.77770  0.63690  0.57520  Biso   1.000  C
  C373     1.0000 0.41206  0.21871  0.20847  Biso   1.000  C
  C374     1.0000 0.39152  0.18510  0.15666  Biso   1.000  C
  C375     1.0000 0.34886  0.12827  0.13545  Biso   1.000  C
  C376     1.0000 0.32674  0.10505  0.16609  Biso   1.000  C
  C377     1.0000 0.34726  0.13864  0.21790  Biso   1.000  C
  C378     1.0000 0.38994  0.19547  0.23911  Biso   1.000  C
  C379     1.0000 0.45820  0.28240  0.23260  Biso   1.000  C
  C380     1.0000 0.27770  0.04156  0.14166  Biso   1.000  C
  C381     1.0000 0.55387  0.61897  0.20770  Biso   1.000  C
  C382     1.0000 0.60223  0.62232  0.20487  Biso   1.000  C
  C383     1.0000 0.61966  0.64868  0.17254  Biso   1.000  C
  C384     1.0000 0.58879  0.67171  0.14306  Biso   1.000  C
  C385     1.0000 0.54046  0.66837  0.14591  Biso   1.000  C
  C386     1.0000 0.52299  0.64199  0.17822  Biso   1.000  C
  C387     1.0000 0.61495  0.42720  0.40913  Biso   1.000  C
  C388     1.0000 0.66034  0.47928  0.45494  Biso   1.000  C
  C389     1.0000 0.69346  0.48125  0.50933  Biso   1.000  C
  C390     1.0000 0.68119  0.43116  0.51795  Biso   1.000  C
  C391     1.0000 0.63582  0.37908  0.47216  Biso   1.000  C
  C392     1.0000 0.60272  0.37713  0.41777  Biso   1.000  C
  C393     1.0000 0.40787  0.44228  0.23811  Biso   1.000  C
  C394     1.0000 0.41653  0.39830  0.23901  Biso   1.000  C
  C395     1.0000 0.36656  0.34413  0.22115  Biso   1.000  C
  C396     1.0000 0.30793  0.33393  0.20240  Biso   1.000  C
  C397     1.0000 0.29938  0.37797  0.20155  Biso   1.000  C
  C398     1.0000 0.34929  0.43210  0.21939  Biso   1.000  C
  C399     1.0000 0.80458  0.65294  0.38502  Biso   1.000  C
  C400     1.0000 0.80905  0.65495  0.43542  Biso   1.000  C
  C401     1.0000 0.86684  0.68791  0.48603  Biso   1.000  C
  C402     1.0000 0.92016  0.71885  0.48625  Biso   1.000  C
  C403     1.0000 0.91568  0.71683  0.43585  Biso   1.000  C
  C404     1.0000 0.85791  0.68389  0.38524  Biso   1.000  C
  C405     1.0000 0.60738  0.40978  0.22378  Biso   1.000  C
  C406     1.0000 0.64693  0.45690  0.21961  Biso   1.000  C
  C407     1.0000 0.67369  0.45155  0.19080  Biso   1.000  C
  C408     1.0000 0.66094  0.39912  0.16612  Biso   1.000  C
  C409     1.0000 0.62142  0.35204  0.17032  Biso   1.000  C
  C410     1.0000 0.59463  0.35738  0.19915  Biso   1.000  C
  C411     1.0000 0.63739  0.66003  0.45070  Biso   1.000  C
  C412     1.0000 0.58587  0.65292  0.40407  Biso   1.000  C
  C413     1.0000 0.56271  0.68507  0.41024  Biso   1.000  C
  C414     1.0000 0.59108  0.72436  0.46308  Biso   1.000  C
  C415     1.0000 0.64260  0.73148  0.50970  Biso   1.000  C
  C416     1.0000 0.66576  0.69933  0.50353  Biso   1.000  C
  N109     1.0000 0.12655  0.88749  0.02796  Biso   1.000  N
  N110     1.0000 0.09307  0.83192  0.01265  Biso   1.000  N
  N111     1.0000 0.09329  0.73063  0.15514  Biso   1.000  N
  N112     1.0000 0.04886  0.80548  0.95672  Biso   1.000  N
  N113     1.0000 0.12279  0.74378  0.12851  Biso   1.000  N
  N114     1.0000 0.16245  0.72747  0.14278  Biso   1.000  N
  N115     1.0000 0.97843  0.71739  0.05760  Biso   1.000  N
  N116     1.0000 0.00517  0.73130  0.02941  Biso   1.000  N
  N117     1.0000 0.96416  0.70435  0.97365  Biso   1.000  N
  N118     1.0000 0.25075  0.82775  0.12956  Biso   1.000  N
  N119     1.0000 0.21205  0.84569  0.11248  Biso   1.000  N
  N120     1.0000 0.24317  0.90109  0.12532  Biso   1.000  N
  N121     1.0000 0.08765  0.83430  0.16097  Biso   1.000  N
  N122     1.0000 0.11520  0.84832  0.13228  Biso   1.000  N
  N123     1.0000 0.15087  0.90405  0.14932  Biso   1.000  N
  N124     1.0000 0.14930  0.71729  0.02585  Biso   1.000  N
  N125     1.0000 0.10724  0.73078  0.01150  Biso   1.000  N
  N126     1.0000 0.06773  0.70906  0.95549  Biso   1.000  N
  N127     1.0000 0.62655  0.59859  0.23906  Biso   1.000  N
  N128     1.0000 0.59307  0.58042  0.26115  Biso   1.000  N
  N129     1.0000 0.59329  0.43815  0.36266  Biso   1.000  N
  N130     1.0000 0.54886  0.59214  0.24338  Biso   1.000  N
  N131     1.0000 0.62279  0.49428  0.37901  Biso   1.000  N
  N132     1.0000 0.66245  0.51967  0.43498  Biso   1.000  N
  N133     1.0000 0.47843  0.42083  0.26104  Biso   1.000  N
  N134     1.0000 0.50517  0.47576  0.27387  Biso   1.000  N
  N135     1.0000 0.46416  0.49051  0.25981  Biso   1.000  N
  N136     1.0000 0.75075  0.62119  0.42300  Biso   1.000  N
  N137     1.0000 0.71205  0.59957  0.36636  Biso   1.000  N
  N138     1.0000 0.74317  0.61785  0.34208  Biso   1.000  N
  N139     1.0000 0.58765  0.42668  0.25335  Biso   1.000  N
  N140     1.0000 0.61520  0.48292  0.26688  Biso   1.000  N
  N141     1.0000 0.65087  0.50155  0.24682  Biso   1.000  N
  N142     1.0000 0.64930  0.62345  0.43201  Biso   1.000  N
  N143     1.0000 0.60724  0.59574  0.37646  Biso   1.000  N
  N144     1.0000 0.56773  0.61224  0.35867  Biso   1.000  N
  O49      1.0000 0.39710  0.55118  0.18928  Biso   1.000  O
  O50      1.0000 0.46307  0.62443  0.26906  Biso   1.000  O
  O51      1.0000 0.22938  0.67805  0.09563  Biso   1.000  O
  O52      1.0000 0.29536  0.74712  0.17208  Biso   1.000  O
  O53      1.0000 0.98329  0.70179  0.17210  Biso   1.000  O
  O54      1.0000 0.96864  0.76761  0.16277  Biso   1.000  O
  O55      1.0000 0.76110  0.58914  0.24022  Biso   1.000  O
  O56      1.0000 0.75539  0.66091  0.24340  Biso   1.000  O
  O57      1.0000 0.89710  0.70782  0.84592  Biso   1.000  O
  O58      1.0000 0.96307  0.69401  0.83864  Biso   1.000  O
  O59      1.0000 0.72938  0.63375  0.55133  Biso   1.000  O
  O60      1.0000 0.79536  0.62328  0.54824  Biso   1.000  O
  O61      1.0000 0.48329  0.31119  0.28150  Biso   1.000  O
  O62      1.0000 0.46864  0.30587  0.20103  Biso   1.000  O
  O63      1.0000 0.26110  0.02088  0.17196  Biso   1.000  O
  O64      1.0000 0.25539  0.01199  0.09448  Biso   1.000  O
