data_image0
_cell_length_a       36.1327
_cell_length_b       36.1328
_cell_length_c       36.1328
_cell_angle_alpha    60.1428
_cell_angle_beta     89.7525
_cell_angle_gamma    119.857

_symmetry_space_group_name_H-M    P 1
_symmetry_int_tables_number       1

loop_
  _symmetry_equiv_pos_as_xyz
  'x, y, z'

loop_
  _atom_site_label
  _atom_site_occupancy
  _atom_site_fract_x
  _atom_site_fract_y
  _atom_site_fract_z
  _atom_site_thermal_displace_type
  _atom_site_B_iso_or_equiv
  _atom_site_type_symbol
  Zn1      1.0000 0.24416  0.61641  0.87793  Biso   1.000  Zn
  Zn2      1.0000 0.20163  0.53192  0.84101  Biso   1.000  Zn
  Zn3      1.0000 0.36629  0.70164  0.83059  Biso   1.000  Zn
  Zn4      1.0000 0.20947  0.54004  0.99895  Biso   1.000  Zn
  Zn5      1.0000 0.19961  0.69357  0.83896  Biso   1.000  Zn
  Zn6      1.0000 0.99434  0.11641  0.62775  Biso   1.000  Zn
  Zn7      1.0000 0.87293  0.03192  0.66971  Biso   1.000  Zn
  Zn8      1.0000 0.03223  0.20164  0.66465  Biso   1.000  Zn
  Zn9      1.0000 0.03899  0.04004  0.66943  Biso   1.000  Zn
  Zn10     1.0000 0.03253  0.19357  0.50604  Biso   1.000  Zn
  H1       1.0000 0.14960  0.56240  0.05040  Biso   1.000  H
  H2       1.0000 0.11130  0.59590  0.05780  Biso   1.000  H
  H3       1.0000 0.10560  0.65460  0.99380  Biso   1.000  H
  H4       1.0000 0.13850  0.68000  0.92230  Biso   1.000  H
  H5       1.0000 0.41050  0.82780  0.75510  Biso   1.000  H
  H6       1.0000 0.41640  0.90540  0.70900  Biso   1.000  H
  H7       1.0000 0.35210  0.90550  0.71400  Biso   1.000  H
  H8       1.0000 0.28180  0.82800  0.76540  Biso   1.000  H
  H9       1.0000 0.12200  0.53460  0.79020  Biso   1.000  H
  H10      1.0000 0.07420  0.55700  0.76120  Biso   1.000  H
  H11      1.0000 0.07410  0.62060  0.76110  Biso   1.000  H
  H12      1.0000 0.12170  0.66190  0.79000  Biso   1.000  H
  H13      1.0000 0.41970  0.68730  0.90860  Biso   1.000  H
  H14      1.0000 0.43010  0.65740  0.97850  Biso   1.000  H
  H15      1.0000 0.36790  0.59600  0.04430  Biso   1.000  H
  H16      1.0000 0.29560  0.56460  0.04040  Biso   1.000  H
  H17      1.0000 0.28220  0.54840  0.77240  Biso   1.000  H
  H18      1.0000 0.35270  0.57850  0.73360  Biso   1.000  H
  H19      1.0000 0.41740  0.64390  0.73110  Biso   1.000  H
  H20      1.0000 0.41150  0.67920  0.76750  Biso   1.000  H
  H21      1.0000 0.15120  0.40310  0.92490  Biso   1.000  H
  H22      1.0000 0.11970  0.32680  0.99670  Biso   1.000  H
  H23      1.0000 0.12120  0.32970  0.05930  Biso   1.000  H
  H24      1.0000 0.15420  0.40870  0.05010  Biso   1.000  H
  H25      1.0000 0.11380  0.26900  0.36300  Biso   1.000  H
  H26      1.0000 0.14420  0.32490  0.28490  Biso   1.000  H
  H27      1.0000 0.07680  0.38570  0.28430  Biso   1.000  H
  H28      1.0000 0.04640  0.32960  0.36240  Biso   1.000  H
  H29      1.0000 0.11630  0.34090  0.21800  Biso   1.000  H
  H30      1.0000 0.14670  0.39690  0.14040  Biso   1.000  H
  H31      1.0000 0.18470  0.51660  0.14750  Biso   1.000  H
  H32      1.0000 0.15430  0.46060  0.22510  Biso   1.000  H
  H33      1.0000 0.10700  0.37580  0.85300  Biso   1.000  H
  H34      1.0000 0.07940  0.32470  0.82650  Biso   1.000  H
  H35      1.0000 0.15370  0.45090  0.70060  Biso   1.000  H
  H36      1.0000 0.18130  0.50210  0.72700  Biso   1.000  H
  H37      1.0000 0.06960  0.35030  0.66030  Biso   1.000  H
  H38      1.0000 0.09620  0.40220  0.68640  Biso   1.000  H
  H39      1.0000 0.09320  0.29020  0.79780  Biso   1.000  H
  H40      1.0000 0.06650  0.23810  0.77180  Biso   1.000  H
  H41      1.0000 0.11280  0.06240  0.58720  Biso   1.000  H
  H42      1.0000 0.15370  0.09590  0.51540  Biso   1.000  H
  H43      1.0000 0.14840  0.15460  0.45100  Biso   1.000  H
  H44      1.0000 0.10230  0.18000  0.45850  Biso   1.000  H
  H45      1.0000 0.08290  0.32780  0.58270  Biso   1.000  H
  H46      1.0000 0.11440  0.40540  0.51100  Biso   1.000  H
  H47      1.0000 0.11950  0.40550  0.44660  Biso   1.000  H
  H48      1.0000 0.09340  0.32800  0.45380  Biso   1.000  H
  H49      1.0000 0.82480  0.03460  0.58740  Biso   1.000  H
  H50      1.0000 0.81820  0.05700  0.51720  Biso   1.000  H
  H51      1.0000 0.88170  0.12060  0.45350  Biso   1.000  H
  H52      1.0000 0.95190  0.16190  0.45980  Biso   1.000  H
  H53      1.0000 0.09590  0.18730  0.73240  Biso   1.000  H
  H54      1.0000 0.13590  0.15740  0.77270  Biso   1.000  H
  H55      1.0000 0.14030  0.09600  0.77190  Biso   1.000  H
  H56      1.0000 0.10500  0.06460  0.73100  Biso   1.000  H
  H57      1.0000 0.82080  0.04840  0.73380  Biso   1.000  H
  H58      1.0000 0.81210  0.07850  0.77420  Biso   1.000  H
  H59      1.0000 0.87500  0.14390  0.77350  Biso   1.000  H
  H60      1.0000 0.94670  0.17920  0.73230  Biso   1.000  H
  H61      1.0000 0.82800  0.90310  0.74810  Biso   1.000  H
  H62      1.0000 0.82350  0.82680  0.79290  Biso   1.000  H
  H63      1.0000 0.88900  0.82970  0.79150  Biso   1.000  H
  H64      1.0000 0.95880  0.90870  0.74550  Biso   1.000  H
  H65      1.0000 0.13200  0.76900  0.84480  Biso   1.000  H
  H66      1.0000 0.10980  0.82490  0.81930  Biso   1.000  H
  H67      1.0000 0.17000  0.88570  0.69110  Biso   1.000  H
  H68      1.0000 0.19200  0.82960  0.71680  Biso   1.000  H
  H69      1.0000 0.05890  0.84090  0.77540  Biso   1.000  H
  H70      1.0000 0.03730  0.89690  0.74980  Biso   1.000  H
  H71      1.0000 0.16410  0.01660  0.66810  Biso   1.000  H
  H72      1.0000 0.18570  0.96060  0.69370  Biso   1.000  H
  H73      1.0000 0.72880  0.87580  0.73120  Biso   1.000  H
  H74      1.0000 0.65120  0.82470  0.75470  Biso   1.000  H
  H75      1.0000 0.65150  0.95090  0.70280  Biso   1.000  H
  H76      1.0000 0.72910  0.00210  0.67920  Biso   1.000  H
  H77      1.0000 0.51060  0.85030  0.71930  Biso   1.000  H
  H78      1.0000 0.58860  0.90220  0.69400  Biso   1.000  H
  H79      1.0000 0.58800  0.79020  0.80300  Biso   1.000  H
  H80      1.0000 0.50990  0.73810  0.82840  Biso   1.000  H
  C1       1.0000 0.16373  0.63640  0.94347  Biso   1.000  C
  C2       1.0000 0.16712  0.60110  0.98198  Biso   1.000  C
  C3       1.0000 0.14740  0.58590  0.02490  Biso   1.000  C
  C4       1.0000 0.12430  0.60600  0.02930  Biso   1.000  C
  C5       1.0000 0.12090  0.64130  0.99080  Biso   1.000  C
  C6       1.0000 0.14060  0.65650  0.94790  Biso   1.000  C
  C7       1.0000 0.30390  0.78120  0.79110  Biso   1.000  C
  C8       1.0000 0.34260  0.78120  0.78800  Biso   1.000  C
  C9       1.0000 0.38485  0.82780  0.75715  Biso   1.000  C
  C10      1.0000 0.38850  0.87450  0.72940  Biso   1.000  C
  C11      1.0000 0.34970  0.87460  0.73250  Biso   1.000  C
  C12      1.0000 0.30751  0.82800  0.76329  Biso   1.000  C
  C13      1.0000 0.15024  0.62280  0.80736  Biso   1.000  C
  C14      1.0000 0.15030  0.58490  0.80740  Biso   1.000  C
  C15      1.0000 0.12190  0.56030  0.79020  Biso   1.000  C
  C16      1.0000 0.09346  0.57370  0.77284  Biso   1.000  C
  C17      1.0000 0.09340  0.61160  0.77280  Biso   1.000  C
  C18      1.0000 0.12179  0.63620  0.79001  Biso   1.000  C
  C19      1.0000 0.31420  0.60700  0.97220  Biso   1.000  C
  C20      1.0000 0.35140  0.64380  0.93280  Biso   1.000  C
  C21      1.0000 0.39480  0.66270  0.93510  Biso   1.000  C
  C22      1.0000 0.40100  0.64470  0.97690  Biso   1.000  C
  C23      1.0000 0.36380  0.60810  0.01630  Biso   1.000  C
  C24      1.0000 0.32044  0.58920  0.01396  Biso   1.000  C
  C25      1.0000 0.34334  0.63490  0.79176  Biso   1.000  C
  C26      1.0000 0.30460  0.59573  0.79327  Biso   1.000  C
  C27      1.0000 0.30820  0.57470  0.77150  Biso   1.000  C
  C28      1.0000 0.35032  0.59270  0.74818  Biso   1.000  C
  C29      1.0000 0.38904  0.63180  0.74676  Biso   1.000  C
  C30      1.0000 0.38550  0.65280  0.76850  Biso   1.000  C
  C31      1.0000 0.17244  0.45324  0.98194  Biso   1.000  C
  C32      1.0000 0.17152  0.45152  0.94452  Biso   1.000  C
  C33      1.0000 0.15179  0.40419  0.95006  Biso   1.000  C
  C34      1.0000 0.13297  0.35859  0.99302  Biso   1.000  C
  C35      1.0000 0.13389  0.36034  0.03043  Biso   1.000  C
  C36      1.0000 0.15361  0.40762  0.02491  Biso   1.000  C
  C37      1.0000 0.07713  0.29384  0.37031  Biso   1.000  C
  C38      1.0000 0.10640  0.29246  0.34714  Biso   1.000  C
  C39      1.0000 0.12461  0.32590  0.30049  Biso   1.000  C
  C40      1.0000 0.11350  0.36080  0.27690  Biso   1.000  C
  C41      1.0000 0.08428  0.36220  0.30012  Biso   1.000  C
  C42      1.0000 0.06609  0.32870  0.34681  Biso   1.000  C
  C43      1.0000 0.13238  0.39535  0.22899  Biso   1.000  C
  C44      1.0000 0.13010  0.37640  0.20370  Biso   1.000  C
  C45      1.0000 0.14830  0.40980  0.15750  Biso   1.000  C
  C46      1.0000 0.16872  0.46220  0.13648  Biso   1.000  C
  C47      1.0000 0.17096  0.48110  0.16174  Biso   1.000  C
  C48      1.0000 0.15276  0.44770  0.20794  Biso   1.000  C
  C49      1.0000 0.05864  0.25975  0.41831  Biso   1.000  C
  C50      1.0000 0.18702  0.49640  0.08858  Biso   1.000  C
  C51      1.0000 0.14676  0.44370  0.79254  Biso   1.000  C
  C52      1.0000 0.11650  0.39110  0.82200  Biso   1.000  C
  C53      1.0000 0.10013  0.36070  0.80637  Biso   1.000  C
  C54      1.0000 0.11392  0.38290  0.76118  Biso   1.000  C
  C55      1.0000 0.14420  0.43560  0.73160  Biso   1.000  C
  C56      1.0000 0.16056  0.46600  0.74724  Biso   1.000  C
  C57      1.0000 0.06550  0.28920  0.71350  Biso   1.000  C
  C58      1.0000 0.07440  0.33810  0.68810  Biso   1.000  C
  C59      1.0000 0.09020  0.36920  0.70360  Biso   1.000  C
  C60      1.0000 0.09730  0.35130  0.74460  Biso   1.000  C
  C61      1.0000 0.08840  0.30230  0.77010  Biso   1.000  C
  C62      1.0000 0.07260  0.27130  0.75450  Biso   1.000  C
  C63      1.0000 0.04929  0.25750  0.69741  Biso   1.000  C
  C64      1.0000 0.16414  0.47540  0.80906  Biso   1.000  C
  C65      1.0000 0.07987  0.13640  0.52733  Biso   1.000  C
  C66      1.0000 0.08308  0.10110  0.56602  Biso   1.000  C
  C67      1.0000 0.11080  0.08590  0.56150  Biso   1.000  C
  C68      1.0000 0.13530  0.10600  0.51830  Biso   1.000  C
  C69      1.0000 0.13210  0.14130  0.47960  Biso   1.000  C
  C70      1.0000 0.10440  0.15650  0.48410  Biso   1.000  C
  C71      1.0000 0.07230  0.28120  0.52270  Biso   1.000  C
  C72      1.0000 0.06920  0.28120  0.56140  Biso   1.000  C
  C73      1.0000 0.08495  0.32780  0.55705  Biso   1.000  C
  C74      1.0000 0.10390  0.37450  0.51400  Biso   1.000  C
  C75      1.0000 0.10710  0.37460  0.47510  Biso   1.000  C
  C76      1.0000 0.09129  0.32800  0.47951  Biso   1.000  C
  C77      1.0000 0.93016  0.12280  0.52744  Biso   1.000  C
  C78      1.0000 0.89230  0.08490  0.56540  Biso   1.000  C
  C79      1.0000 0.85050  0.06030  0.56160  Biso   1.000  C
  C80      1.0000 0.84654  0.07370  0.51976  Biso   1.000  C
  C81      1.0000 0.88440  0.11160  0.48180  Biso   1.000  C
  C82      1.0000 0.92621  0.13620  0.48559  Biso   1.000  C
  C83      1.0000 0.07920  0.10700  0.70720  Biso   1.000  C
  C84      1.0000 0.07660  0.14380  0.70760  Biso   1.000  C
  C85      1.0000 0.09780  0.16270  0.73210  Biso   1.000  C
  C86      1.0000 0.12160  0.14470  0.75630  Biso   1.000  C
  C87      1.0000 0.12440  0.10810  0.75570  Biso   1.000  C
  C88      1.0000 0.10316  0.08920  0.73124  Biso   1.000  C
  C89      1.0000 0.92666  0.13490  0.70844  Biso   1.000  C
  C90      1.0000 0.88900  0.09573  0.70887  Biso   1.000  C
  C91      1.0000 0.84620  0.07470  0.73350  Biso   1.000  C
  C92      1.0000 0.84088  0.09270  0.75762  Biso   1.000  C
  C93      1.0000 0.87856  0.13180  0.75724  Biso   1.000  C
  C94      1.0000 0.92130  0.15280  0.73270  Biso   1.000  C
  C95      1.0000 0.93518  0.95324  0.71920  Biso   1.000  C
  C96      1.0000 0.89604  0.95152  0.72000  Biso   1.000  C
  C97      1.0000 0.85425  0.90419  0.74760  Biso   1.000  C
  C98      1.0000 0.85161  0.85859  0.77438  Biso   1.000  C
  C99      1.0000 0.89077  0.86034  0.77355  Biso   1.000  C
  C100     1.0000 0.93253  0.90762  0.74599  Biso   1.000  C
  C101     1.0000 0.16415  0.79384  0.78329  Biso   1.000  C
  C102     1.0000 0.13960  0.79246  0.81394  Biso   1.000  C
  C103     1.0000 0.12639  0.82590  0.79871  Biso   1.000  C
  C104     1.0000 0.13770  0.86080  0.75270  Biso   1.000  C
  C105     1.0000 0.16232  0.86220  0.72208  Biso   1.000  C
  C106     1.0000 0.17551  0.82870  0.73739  Biso   1.000  C
  C107     1.0000 0.12434  0.89535  0.73703  Biso   1.000  C
  C108     1.0000 0.08010  0.87640  0.75370  Biso   1.000  C
  C109     1.0000 0.06730  0.90980  0.73850  Biso   1.000  C
  C110     1.0000 0.09868  0.96220  0.70652  Biso   1.000  C
  C111     1.0000 0.14284  0.98110  0.68986  Biso   1.000  C
  C112     1.0000 0.15564  0.94770  0.70506  Biso   1.000  C
  C113     1.0000 0.17806  0.75975  0.79889  Biso   1.000  C
  C114     1.0000 0.08498  0.99640  0.69062  Biso   1.000  C
  C115     1.0000 0.73624  0.94370  0.70306  Biso   1.000  C
  C116     1.0000 0.71310  0.89110  0.72540  Biso   1.000  C
  C117     1.0000 0.66707  0.86070  0.73943  Biso   1.000  C
  C118     1.0000 0.64408  0.88290  0.73102  Biso   1.000  C
  C119     1.0000 0.66720  0.93560  0.70860  Biso   1.000  C
  C120     1.0000 0.71324  0.96600  0.69456  Biso   1.000  C
  C121     1.0000 0.50270  0.78920  0.77630  Biso   1.000  C
  C122     1.0000 0.52620  0.83810  0.73630  Biso   1.000  C
  C123     1.0000 0.57280  0.86920  0.72100  Biso   1.000  C
  C124     1.0000 0.59590  0.85130  0.74600  Biso   1.000  C
  C125     1.0000 0.57240  0.80230  0.78610  Biso   1.000  C
  C126     1.0000 0.52580  0.77130  0.80130  Biso   1.000  C
  C127     1.0000 0.45491  0.75750  0.79179  Biso   1.000  C
  C128     1.0000 0.78446  0.97540  0.68874  Biso   1.000  C
  N1       1.0000 0.18700  0.64610  0.90730  Biso   1.000  N
  N2       1.0000 0.20282  0.61670  0.92108  Biso   1.000  N
  N3       1.0000 0.19168  0.59030  0.96622  Biso   1.000  N
  N4       1.0000 0.26804  0.72990  0.81806  Biso   1.000  N
  N5       1.0000 0.28569  0.70315  0.83184  Biso   1.000  N
  N6       1.0000 0.32953  0.73140  0.81507  Biso   1.000  N
  N7       1.0000 0.18059  0.64000  0.82521  Biso   1.000  N
  N8       1.0000 0.19661  0.61109  0.83884  Biso   1.000  N
  N9       1.0000 0.18105  0.57849  0.82630  Biso   1.000  N
  N10      1.0000 0.33484  0.65050  0.89966  Biso   1.000  N
  N11      1.0000 0.29082  0.62241  0.91683  Biso   1.000  N
  N12      1.0000 0.27705  0.59370  0.96165  Biso   1.000  N
  N13      1.0000 0.33078  0.64769  0.81593  Biso   1.000  N
  N14      1.0000 0.28571  0.61737  0.83212  Biso   1.000  N
  N15      1.0000 0.27026  0.58641  0.81993  Biso   1.000  N
  N16      1.0000 0.19345  0.50254  0.96671  Biso   1.000  N
  N17      1.0000 0.20534  0.53040  0.92246  Biso   1.000  N
  N18      1.0000 0.19196  0.50101  0.90821  Biso   1.000  N
  N19      1.0000 0.05340  0.14610  0.54090  Biso   1.000  N
  N20      1.0000 0.03778  0.11670  0.58612  Biso   1.000  N
  N21      1.0000 0.05652  0.09030  0.60138  Biso   1.000  N
  N22      1.0000 0.04796  0.22990  0.53814  Biso   1.000  N
  N23      1.0000 0.03499  0.20315  0.58254  Biso   1.000  N
  N24      1.0000 0.04647  0.23140  0.59813  Biso   1.000  N
  N25      1.0000 0.96521  0.14000  0.54059  Biso   1.000  N
  N26      1.0000 0.94993  0.11109  0.58552  Biso   1.000  N
  N27      1.0000 0.90479  0.07849  0.60256  Biso   1.000  N
  N28      1.0000 0.05016  0.15050  0.68434  Biso   1.000  N
  N29      1.0000 0.03924  0.12241  0.66841  Biso   1.000  N
  N30      1.0000 0.05535  0.09370  0.68335  Biso   1.000  N
  N31      1.0000 0.96362  0.14769  0.68309  Biso   1.000  N
  N32      1.0000 0.94949  0.11737  0.66834  Biso   1.000  N
  N33      1.0000 0.90634  0.08641  0.68385  Biso   1.000  N
  N34      1.0000 0.96925  0.00254  0.69091  Biso   1.000  N
  N35      1.0000 0.95286  0.03040  0.67494  Biso   1.000  N
  N36      1.0000 0.90922  0.00101  0.69095  Biso   1.000  N
  O1       1.0000 0.02717  0.25490  0.43953  Biso   1.000  O
  O2       1.0000 0.07275  0.23350  0.44135  Biso   1.000  O
  O3       1.0000 0.18170  0.48120  0.06350  Biso   1.000  O
  O4       1.0000 0.21050  0.54540  0.06770  Biso   1.000  O
  O5       1.0000 0.19926  0.52090  0.78484  Biso   1.000  O
  O6       1.0000 0.14553  0.45940  0.84787  Biso   1.000  O
  O7       1.0000 0.04310  0.21390  0.71740  Biso   1.000  O
  O8       1.0000 0.03980  0.27160  0.66160  Biso   1.000  O
  O9       1.0000 0.19443  0.75490  0.77227  Biso   1.000  O
  O10      1.0000 0.17485  0.73350  0.83925  Biso   1.000  O
  O11      1.0000 0.04470  0.98120  0.70050  Biso   1.000  O
  O12      1.0000 0.11310  0.04540  0.66510  Biso   1.000  O
  O13      1.0000 0.80574  0.02090  0.67836  Biso   1.000  O
  O14      1.0000 0.80727  0.95940  0.68613  Biso   1.000  O
  O15      1.0000 0.43130  0.71390  0.82920  Biso   1.000  O
  O16      1.0000 0.43320  0.77160  0.76820  Biso   1.000  O
  Zn11     1.0000 0.22556  0.33520  0.10110  Biso   1.000  Zn
  Zn12     1.0000 0.22086  0.32675  0.94291  Biso   1.000  Zn
  Zn13     1.0000 0.06370  0.16480  0.10964  Biso   1.000  Zn
  Zn14     1.0000 0.23034  0.17325  0.10589  Biso   1.000  Zn
  Zn15     1.0000 0.39036  0.82666  0.27444  Biso   1.000  Zn
  Zn16     1.0000 0.39411  0.66377  0.27914  Biso   1.000  Zn
  Zn17     1.0000 0.39890  0.67334  0.43630  Biso   1.000  Zn
  Zn18     1.0000 0.55709  0.83623  0.26966  Biso   1.000  Zn
  Zn19     1.0000 0.18521  0.25000  0.06479  Biso   1.000  Zn
  Zn20     1.0000 0.43521  0.75000  0.31479  Biso   1.000  Zn
  H81      1.0000 0.27620  0.45880  0.89180  Biso   1.000  H
  H82      1.0000 0.30810  0.53790  0.88260  Biso   1.000  H
  H83      1.0000 0.30830  0.54060  0.94530  Biso   1.000  H
  H84      1.0000 0.27640  0.46410  0.01730  Biso   1.000  H
  H85      1.0000 0.13660  0.30350  0.89870  Biso   1.000  H
  H86      1.0000 0.06450  0.26730  0.89320  Biso   1.000  H
  H87      1.0000 0.00120  0.20290  0.95850  Biso   1.000  H
  H88      1.0000 0.00990  0.17480  0.02910  Biso   1.000  H
  H89      1.0000 0.28580  0.51910  0.28050  Biso   1.000  H
  H90      1.0000 0.26120  0.46940  0.25280  Biso   1.000  H
  H91      1.0000 0.37620  0.57570  0.14930  Biso   1.000  H
  H92      1.0000 0.40080  0.62540  0.17700  Biso   1.000  H
  H93      1.0000 0.34800  0.54340  0.11960  Biso   1.000  H
  H94      1.0000 0.32440  0.49440  0.09120  Biso   1.000  H
  H95      1.0000 0.22670  0.37210  0.20860  Biso   1.000  H
  H96      1.0000 0.25020  0.42110  0.23710  Biso   1.000  H
  H97      1.0000 0.28710  0.31170  0.89660  Biso   1.000  H
  H98      1.0000 0.32890  0.28520  0.88250  Biso   1.000  H
  H99      1.0000 0.01770  0.18790  0.16880  Biso   1.000  H
  H100     1.0000 0.00620  0.21330  0.21250  Biso   1.000  H
  H101     1.0000 0.14940  0.04120  0.18260  Biso   1.000  H
  H102     1.0000 0.07950  0.96210  0.22980  Biso   1.000  H
  H103     1.0000 0.01410  0.95940  0.23230  Biso   1.000  H
  H104     1.0000 0.01860  0.03590  0.18770  Biso   1.000  H
  H105     1.0000 0.29780  0.19650  0.16690  Biso   1.000  H
  H106     1.0000 0.33950  0.23270  0.20280  Biso   1.000  H
  H107     1.0000 0.33860  0.29710  0.20170  Biso   1.000  H
  H108     1.0000 0.29610  0.32520  0.16490  Biso   1.000  H
  H109     1.0000 0.70040  0.98090  0.23330  Biso   1.000  H
  H110     1.0000 0.77780  0.03060  0.20820  Biso   1.000  H
  H111     1.0000 0.77500  0.92430  0.19950  Biso   1.000  H
  H112     1.0000 0.69760  0.87460  0.22460  Biso   1.000  H
  H113     1.0000 0.83700  0.95660  0.19540  Biso   1.000  H
  H114     1.0000 0.91440  0.00560  0.17000  Biso   1.000  H
  H115     1.0000 0.91930  0.12790  0.14540  Biso   1.000  H
  H116     1.0000 0.84180  0.07890  0.17090  Biso   1.000  H
  H117     1.0000 0.29170  0.18830  0.02460  Biso   1.000  H
  H118     1.0000 0.33230  0.21480  0.95630  Biso   1.000  H
  H119     1.0000 0.14330  0.31210  0.17020  Biso   1.000  H
  H120     1.0000 0.07420  0.28670  0.20710  Biso   1.000  H
  H121     1.0000 0.31740  0.66800  0.22380  Biso   1.000  H
  H122     1.0000 0.27020  0.69070  0.19190  Biso   1.000  H
  H123     1.0000 0.26770  0.75360  0.19170  Biso   1.000  H
  H124     1.0000 0.31230  0.79370  0.22360  Biso   1.000  H
  H125     1.0000 0.33310  0.53530  0.36340  Biso   1.000  H
  H126     1.0000 0.29720  0.45770  0.43550  Biso   1.000  H
  H127     1.0000 0.29830  0.45970  0.49880  Biso   1.000  H
  H128     1.0000 0.33510  0.53900  0.49010  Biso   1.000  H
  H129     1.0000 0.26670  0.06630  0.21420  Biso   1.000  H
  H130     1.0000 0.29180  0.01400  0.23880  Biso   1.000  H
  H131     1.0000 0.30050  0.02550  0.12380  Biso   1.000  H
  H132     1.0000 0.27540  0.07780  0.09920  Biso   1.000  H
  H133     1.0000 0.30460  0.96760  0.15200  Biso   1.000  H
  H134     1.0000 0.33000  0.91560  0.17560  Biso   1.000  H
  H135     1.0000 0.35460  0.93530  0.27330  Biso   1.000  H
  H136     1.0000 0.32910  0.98730  0.24980  Biso   1.000  H
  H137     1.0000 0.47540  0.68370  0.21290  Biso   1.000  H
  H138     1.0000 0.54370  0.71140  0.17110  Biso   1.000  H
  H139     1.0000 0.32980  0.68650  0.48230  Biso   1.000  H
  H140     1.0000 0.29290  0.71870  0.49380  Biso   1.000  H
  H141     1.0000 0.60820  0.83200  0.35060  Biso   1.000  H
  H142     1.0000 0.61740  0.80930  0.42050  Biso   1.000  H
  H143     1.0000 0.55470  0.74640  0.48590  Biso   1.000  H
  H144     1.0000 0.48270  0.70630  0.48140  Biso   1.000  H
  H145     1.0000 0.60130  0.96470  0.20220  Biso   1.000  H
  H146     1.0000 0.60680  0.04230  0.16050  Biso   1.000  H
  H147     1.0000 0.54150  0.04030  0.16140  Biso   1.000  H
  H148     1.0000 0.47090  0.96100  0.20390  Biso   1.000  H
  H149     1.0000 0.21950  0.43370  0.79960  Biso   1.000  H
  H150     1.0000 0.24720  0.48600  0.72220  Biso   1.000  H
  H151     1.0000 0.35070  0.47450  0.72500  Biso   1.000  H
  H152     1.0000 0.32300  0.42220  0.80240  Biso   1.000  H
  H153     1.0000 0.38040  0.53240  0.66300  Biso   1.000  H
  H154     1.0000 0.40880  0.58440  0.58560  Biso   1.000  H
  H155     1.0000 0.29140  0.56470  0.58070  Biso   1.000  H
  H156     1.0000 0.26290  0.51270  0.65820  Biso   1.000  H
  H157     1.0000 0.60340  0.81630  0.20830  Biso   1.000  H
  H158     1.0000 0.61750  0.78860  0.16770  Biso   1.000  H
  H159     1.0000 0.33120  0.81350  0.35670  Biso   1.000  H
  H160     1.0000 0.28750  0.78130  0.42580  Biso   1.000  H
  C129     1.0000 0.25736  0.41574  0.99760  Biso   1.000  C
  C130     1.0000 0.25729  0.41417  0.96004  Biso   1.000  C
  C131     1.0000 0.27630  0.45989  0.91693  Biso   1.000  C
  C132     1.0000 0.29536  0.50723  0.91143  Biso   1.000  C
  C133     1.0000 0.29543  0.50879  0.94904  Biso   1.000  C
  C134     1.0000 0.27642  0.46305  0.99215  Biso   1.000  C
  C135     1.0000 0.11647  0.26090  0.96723  Biso   1.000  C
  C136     1.0000 0.11122  0.27780  0.92478  Biso   1.000  C
  C137     1.0000 0.06800  0.25600  0.92160  Biso   1.000  C
  C138     1.0000 0.03010  0.21750  0.96060  Biso   1.000  C
  C139     1.0000 0.03524  0.20060  0.00296  Biso   1.000  C
  C140     1.0000 0.07842  0.22230  0.00628  Biso   1.000  C
  C141     1.0000 0.34560  0.57680  0.23140  Biso   1.000  C
  C142     1.0000 0.30417  0.53060  0.25383  Biso   1.000  C
  C143     1.0000 0.28962  0.50120  0.23738  Biso   1.000  C
  C144     1.0000 0.31640  0.51790  0.19850  Biso   1.000  C
  C145     1.0000 0.35782  0.56420  0.17598  Biso   1.000  C
  C146     1.0000 0.37237  0.59360  0.19243  Biso   1.000  C
  C147     1.0000 0.30125  0.48670  0.18105  Biso   1.000  C
  C148     1.0000 0.32330  0.50850  0.13780  Biso   1.000  C
  C149     1.0000 0.30936  0.47950  0.12094  Biso   1.000  C
  C150     1.0000 0.27337  0.42870  0.14733  Biso   1.000  C
  C151     1.0000 0.25130  0.40690  0.19060  Biso   1.000  C
  C152     1.0000 0.26526  0.43590  0.20744  Biso   1.000  C
  C153     1.0000 0.36144  0.60810  0.24866  Biso   1.000  C
  C154     1.0000 0.25920  0.39890  0.12930  Biso   1.000  C
  C155     1.0000 0.26594  0.26854  0.96400  Biso   1.000  C
  C156     1.0000 0.28890  0.28680  0.92130  Biso   1.000  C
  C157     1.0000 0.31430  0.27190  0.91180  Biso   1.000  C
  C158     1.0000 0.08513  0.23065  0.14582  Biso   1.000  C
  C159     1.0000 0.04308  0.21279  0.16991  Biso   1.000  C
  C160     1.0000 0.03526  0.22860  0.19534  Biso   1.000  C
  C161     1.0000 0.08666  0.08426  0.15838  Biso   1.000  C
  C162     1.0000 0.12579  0.08583  0.15688  Biso   1.000  C
  C163     1.0000 0.12318  0.04011  0.18359  Biso   1.000  C
  C164     1.0000 0.08134  0.99277  0.21187  Biso   1.000  C
  C165     1.0000 0.04217  0.99121  0.21336  Biso   1.000  C
  C166     1.0000 0.04480  0.03695  0.18663  Biso   1.000  C
  C167     1.0000 0.27187  0.23910  0.14443  Biso   1.000  C
  C168     1.0000 0.29742  0.22220  0.16658  Biso   1.000  C
  C169     1.0000 0.32240  0.24400  0.18800  Biso   1.000  C
  C170     1.0000 0.32190  0.28250  0.18740  Biso   1.000  C
  C171     1.0000 0.29644  0.29940  0.16536  Biso   1.000  C
  C172     1.0000 0.27142  0.27770  0.14388  Biso   1.000  C
  C173     1.0000 0.69180  0.92320  0.23120  Biso   1.000  C
  C174     1.0000 0.71557  0.96940  0.22643  Biso   1.000  C
  C175     1.0000 0.76142  0.99880  0.21158  Biso   1.000  C
  C176     1.0000 0.78360  0.98210  0.20150  Biso   1.000  C
  C177     1.0000 0.75982  0.93580  0.20638  Biso   1.000  C
  C178     1.0000 0.71397  0.90640  0.22123  Biso   1.000  C
  C179     1.0000 0.83225  0.01330  0.18545  Biso   1.000  C
  C180     1.0000 0.85370  0.99150  0.18520  Biso   1.000  C
  C181     1.0000 0.89956  0.02050  0.17014  Biso   1.000  C
  C182     1.0000 0.92397  0.07130  0.15533  Biso   1.000  C
  C183     1.0000 0.90250  0.09310  0.15560  Biso   1.000  C
  C184     1.0000 0.85666  0.06410  0.17064  Biso   1.000  C
  C185     1.0000 0.64324  0.89190  0.24666  Biso   1.000  C
  C186     1.0000 0.97180  0.10110  0.13970  Biso   1.000  C
  C187     1.0000 0.26746  0.23146  0.00260  Biso   1.000  C
  C188     1.0000 0.29190  0.21320  0.99790  Biso   1.000  C
  C189     1.0000 0.31630  0.22810  0.95760  Biso   1.000  C
  C190     1.0000 0.12353  0.26935  0.14552  Biso   1.000  C
  C191     1.0000 0.11730  0.28721  0.16971  Biso   1.000  C
  C192     1.0000 0.07606  0.27140  0.19334  Biso   1.000  C
  C193     1.0000 0.34162  0.75496  0.24264  Biso   1.000  C
  C194     1.0000 0.34312  0.71733  0.24271  Biso   1.000  C
  C195     1.0000 0.31641  0.69323  0.22370  Biso   1.000  C
  C196     1.0000 0.28813  0.70679  0.20464  Biso   1.000  C
  C197     1.0000 0.28664  0.74447  0.20457  Biso   1.000  C
  C198     1.0000 0.31337  0.76857  0.22358  Biso   1.000  C
  C199     1.0000 0.35557  0.58370  0.38353  Biso   1.000  C
  C200     1.0000 0.33342  0.53600  0.38878  Biso   1.000  C
  C201     1.0000 0.31200  0.48960  0.43200  Biso   1.000  C
  C202     1.0000 0.31260  0.49070  0.46990  Biso   1.000  C
  C203     1.0000 0.33464  0.53820  0.46476  Biso   1.000  C
  C204     1.0000 0.35612  0.58470  0.42158  Biso   1.000  C
  C205     1.0000 0.26880  0.07700  0.15440  Biso   1.000  C
  C206     1.0000 0.27357  0.05800  0.19583  Biso   1.000  C
  C207     1.0000 0.28842  0.02700  0.21038  Biso   1.000  C
  C208     1.0000 0.29850  0.01490  0.18360  Biso   1.000  C
  C209     1.0000 0.29362  0.03380  0.14218  Biso   1.000  C
  C210     1.0000 0.27877  0.06480  0.12763  Biso   1.000  C
  C211     1.0000 0.31455  0.98230  0.19875  Biso   1.000  C
  C212     1.0000 0.31480  0.96110  0.17670  Biso   1.000  C
  C213     1.0000 0.32986  0.93030  0.19064  Biso   1.000  C
  C214     1.0000 0.34467  0.92070  0.22663  Biso   1.000  C
  C215     1.0000 0.34440  0.94190  0.24870  Biso   1.000  C
  C216     1.0000 0.32936  0.97270  0.23474  Biso   1.000  C
  C217     1.0000 0.25334  0.11010  0.13856  Biso   1.000  C
  C218     1.0000 0.36030  0.88850  0.24080  Biso   1.000  C
  C219     1.0000 0.49740  0.72994  0.23406  Biso   1.000  C
  C220     1.0000 0.50210  0.71020  0.21110  Biso   1.000  C
  C221     1.0000 0.54240  0.72610  0.18570  Biso   1.000  C
  C222     1.0000 0.35448  0.73095  0.41487  Biso   1.000  C
  C223     1.0000 0.33029  0.71299  0.45692  Biso   1.000  C
  C224     1.0000 0.30666  0.73060  0.46474  Biso   1.000  C
  C225     1.0000 0.50240  0.74504  0.41334  Biso   1.000  C
  C226     1.0000 0.53996  0.78267  0.37421  Biso   1.000  C
  C227     1.0000 0.58307  0.80677  0.37682  Biso   1.000  C
  C228     1.0000 0.58857  0.79321  0.41866  Biso   1.000  C
  C229     1.0000 0.55096  0.75553  0.45783  Biso   1.000  C
  C230     1.0000 0.50785  0.73143  0.45520  Biso   1.000  C
  C231     1.0000 0.53277  0.91630  0.22813  Biso   1.000  C
  C232     1.0000 0.57522  0.96400  0.20258  Biso   1.000  C
  C233     1.0000 0.57840  0.01040  0.17760  Biso   1.000  C
  C234     1.0000 0.53940  0.00930  0.17810  Biso   1.000  C
  C235     1.0000 0.49704  0.96180  0.20356  Biso   1.000  C
  C236     1.0000 0.49372  0.91530  0.22858  Biso   1.000  C
  C237     1.0000 0.26860  0.42300  0.80820  Biso   1.000  C
  C238     1.0000 0.24617  0.44200  0.78443  Biso   1.000  C
  C239     1.0000 0.26262  0.47300  0.73858  Biso   1.000  C
  C240     1.0000 0.30150  0.48510  0.71640  Biso   1.000  C
  C241     1.0000 0.32402  0.46620  0.74018  Biso   1.000  C
  C242     1.0000 0.30757  0.43520  0.78603  Biso   1.000  C
  C243     1.0000 0.31895  0.51770  0.66775  Biso   1.000  C
  C244     1.0000 0.36220  0.53890  0.64630  Biso   1.000  C
  C245     1.0000 0.37906  0.56970  0.60044  Biso   1.000  C
  C246     1.0000 0.35267  0.57930  0.57603  Biso   1.000  C
  C247     1.0000 0.30940  0.55810  0.59750  Biso   1.000  C
  C248     1.0000 0.29256  0.52730  0.64334  Biso   1.000  C
  C249     1.0000 0.25134  0.38990  0.85676  Biso   1.000  C
  C250     1.0000 0.37070  0.61150  0.52820  Biso   1.000  C
  C251     1.0000 0.53600  0.77006  0.23254  Biso   1.000  C
  C252     1.0000 0.57870  0.78980  0.20810  Biso   1.000  C
  C253     1.0000 0.58820  0.77390  0.18370  Biso   1.000  C
  C254     1.0000 0.35418  0.76905  0.37647  Biso   1.000  C
  C255     1.0000 0.33009  0.78701  0.38270  Biso   1.000  C
  C256     1.0000 0.30466  0.76940  0.42394  Biso   1.000  C
  N37      1.0000 0.23741  0.36621  0.03418  Biso   1.000  N
  N38      1.0000 0.22480  0.33562  0.02010  Biso   1.000  N
  N39      1.0000 0.23663  0.36346  0.97429  Biso   1.000  N
  N40      1.0000 0.15333  0.27470  0.97997  Biso   1.000  N
  N41      1.0000 0.13919  0.24604  0.02421  Biso   1.000  N
  N42      1.0000 0.09555  0.21350  0.04195  Biso   1.000  N
  N43      1.0000 0.24141  0.27970  0.97669  Biso   1.000  N
  N44      1.0000 0.09880  0.22128  0.12176  Biso   1.000  N
  N45      1.0000 0.09961  0.13379  0.12880  Biso   1.000  N
  N46      1.0000 0.14428  0.16438  0.11082  Biso   1.000  N
  N47      1.0000 0.16225  0.13654  0.12683  Biso   1.000  N
  N48      1.0000 0.24533  0.22530  0.12137  Biso   1.000  N
  N49      1.0000 0.22975  0.25396  0.10685  Biso   1.000  N
  N50      1.0000 0.24455  0.28650  0.11795  Biso   1.000  N
  N51      1.0000 0.24361  0.22030  0.03829  Biso   1.000  N
  N52      1.0000 0.15696  0.27872  0.12248  Biso   1.000  N
  N53      1.0000 0.37120  0.77159  0.26259  Biso   1.000  N
  N54      1.0000 0.38918  0.74490  0.27520  Biso   1.000  N
  N55      1.0000 0.37317  0.71092  0.26337  Biso   1.000  N
  N56      1.0000 0.37863  0.63330  0.34667  Biso   1.000  N
  N57      1.0000 0.39315  0.66340  0.36081  Biso   1.000  N
  N58      1.0000 0.38205  0.63750  0.40445  Biso   1.000  N
  N59      1.0000 0.46171  0.71810  0.25859  Biso   1.000  N
  N60      1.0000 0.37752  0.72056  0.40120  Biso   1.000  N
  N61      1.0000 0.46582  0.72841  0.40039  Biso   1.000  N
  N62      1.0000 0.47990  0.75510  0.35572  Biso   1.000  N
  N63      1.0000 0.52571  0.78908  0.33775  Biso   1.000  N
  N64      1.0000 0.52003  0.86670  0.25467  Biso   1.000  N
  N65      1.0000 0.47579  0.83660  0.27025  Biso   1.000  N
  N66      1.0000 0.45805  0.86250  0.25545  Biso   1.000  N
  N67      1.0000 0.52331  0.78190  0.25639  Biso   1.000  N
  N68      1.0000 0.37824  0.77944  0.34304  Biso   1.000  N
  N69      1.0000 0.22847  0.25000  0.02153  Biso   1.000  N
  N70      1.0000 0.14250  0.25000  0.10750  Biso   1.000  N
  N71      1.0000 0.47847  0.75000  0.27153  Biso   1.000  N
  N72      1.0000 0.39250  0.75000  0.35750  Biso   1.000  N
  O17      1.0000 0.34035  0.59220  0.28645  Biso   1.000  O
  O18      1.0000 0.24660  0.39160  0.10940  Biso   1.000  O
  O19      1.0000 0.23020  0.33670  0.16690  Biso   1.000  O
  O20      1.0000 0.39750  0.65290  0.22600  Biso   1.000  O
  O21      1.0000 0.62135  0.90780  0.25185  Biso   1.000  O
  O22      1.0000 0.99900  0.10840  0.14500  Biso   1.000  O
  O23      1.0000 0.99640  0.16330  0.10650  Biso   1.000  O
  O24      1.0000 0.62110  0.84710  0.25540  Biso   1.000  O
  O25      1.0000 0.24815  0.12680  0.15965  Biso   1.000  O
  O26      1.0000 0.35500  0.85600  0.25340  Biso   1.000  O
  O27      1.0000 0.39350  0.89710  0.26980  Biso   1.000  O
  O28      1.0000 0.24460  0.12350  0.10250  Biso   1.000  O
  O29      1.0000 0.21355  0.37320  0.87865  Biso   1.000  O
  O30      1.0000 0.39060  0.64400  0.50100  Biso   1.000  O
  O31      1.0000 0.33310  0.60290  0.50360  Biso   1.000  O
  O32      1.0000 0.27400  0.37650  0.87890  Biso   1.000  O
  Zn21     1.0000 0.00566  0.88359  0.37225  Biso   1.000  Zn
  Zn22     1.0000 0.12707  0.96808  0.33029  Biso   1.000  Zn
  Zn23     1.0000 0.96777  0.79836  0.33535  Biso   1.000  Zn
  Zn24     1.0000 0.96101  0.95996  0.33057  Biso   1.000  Zn
  Zn25     1.0000 0.96747  0.80643  0.49396  Biso   1.000  Zn
  Zn26     1.0000 0.75584  0.38359  0.12207  Biso   1.000  Zn
  Zn27     1.0000 0.79837  0.46808  0.15899  Biso   1.000  Zn
  Zn28     1.0000 0.63371  0.29836  0.16941  Biso   1.000  Zn
  Zn29     1.0000 0.79053  0.45996  0.00105  Biso   1.000  Zn
  Zn30     1.0000 0.80039  0.30643  0.16104  Biso   1.000  Zn
  H161     1.0000 0.88720  0.93760  0.41280  Biso   1.000  H
  H162     1.0000 0.84630  0.90410  0.48460  Biso   1.000  H
  H163     1.0000 0.85160  0.84540  0.54900  Biso   1.000  H
  H164     1.0000 0.89770  0.82000  0.54150  Biso   1.000  H
  H165     1.0000 0.91710  0.67220  0.41730  Biso   1.000  H
  H166     1.0000 0.88560  0.59460  0.48900  Biso   1.000  H
  H167     1.0000 0.88050  0.59450  0.55340  Biso   1.000  H
  H168     1.0000 0.90660  0.67200  0.54620  Biso   1.000  H
  H169     1.0000 0.17520  0.96540  0.41260  Biso   1.000  H
  H170     1.0000 0.18180  0.94300  0.48280  Biso   1.000  H
  H171     1.0000 0.11830  0.87940  0.54650  Biso   1.000  H
  H172     1.0000 0.04810  0.83810  0.54020  Biso   1.000  H
  H173     1.0000 0.90410  0.81270  0.26760  Biso   1.000  H
  H174     1.0000 0.86410  0.84260  0.22730  Biso   1.000  H
  H175     1.0000 0.85970  0.90400  0.22810  Biso   1.000  H
  H176     1.0000 0.89500  0.93540  0.26900  Biso   1.000  H
  H177     1.0000 0.17920  0.95160  0.26620  Biso   1.000  H
  H178     1.0000 0.18790  0.92150  0.22580  Biso   1.000  H
  H179     1.0000 0.12500  0.85610  0.22650  Biso   1.000  H
  H180     1.0000 0.05330  0.82080  0.26770  Biso   1.000  H
  H181     1.0000 0.17200  0.09690  0.25190  Biso   1.000  H
  H182     1.0000 0.17650  0.17320  0.20710  Biso   1.000  H
  H183     1.0000 0.11100  0.17030  0.20850  Biso   1.000  H
  H184     1.0000 0.04120  0.09130  0.25450  Biso   1.000  H
  H185     1.0000 0.86800  0.23100  0.15520  Biso   1.000  H
  H186     1.0000 0.89020  0.17510  0.18070  Biso   1.000  H
  H187     1.0000 0.83000  0.11430  0.30890  Biso   1.000  H
  H188     1.0000 0.80800  0.17040  0.28320  Biso   1.000  H
  H189     1.0000 0.94110  0.15910  0.22460  Biso   1.000  H
  H190     1.0000 0.96270  0.10310  0.25020  Biso   1.000  H
  H191     1.0000 0.83590  0.98340  0.33190  Biso   1.000  H
  H192     1.0000 0.81430  0.03940  0.30630  Biso   1.000  H
  H193     1.0000 0.27120  0.12420  0.26880  Biso   1.000  H
  H194     1.0000 0.34880  0.17530  0.24530  Biso   1.000  H
  H195     1.0000 0.34850  0.04910  0.29720  Biso   1.000  H
  H196     1.0000 0.27090  0.99790  0.32080  Biso   1.000  H
  H197     1.0000 0.48940  0.14970  0.28070  Biso   1.000  H
  H198     1.0000 0.41140  0.09780  0.30600  Biso   1.000  H
  H199     1.0000 0.41200  0.20980  0.19700  Biso   1.000  H
  H200     1.0000 0.49010  0.26190  0.17160  Biso   1.000  H
  H201     1.0000 0.85040  0.43760  0.94960  Biso   1.000  H
  H202     1.0000 0.88870  0.40410  0.94220  Biso   1.000  H
  H203     1.0000 0.89440  0.34540  0.00620  Biso   1.000  H
  H204     1.0000 0.86150  0.32000  0.07770  Biso   1.000  H
  H205     1.0000 0.58950  0.17220  0.24490  Biso   1.000  H
  H206     1.0000 0.58360  0.09460  0.29100  Biso   1.000  H
  H207     1.0000 0.64790  0.09450  0.28600  Biso   1.000  H
  H208     1.0000 0.71820  0.17200  0.23460  Biso   1.000  H
  H209     1.0000 0.87800  0.46540  0.20980  Biso   1.000  H
  H210     1.0000 0.92580  0.44300  0.23880  Biso   1.000  H
  H211     1.0000 0.92590  0.37940  0.23890  Biso   1.000  H
  H212     1.0000 0.87830  0.33810  0.21000  Biso   1.000  H
  H213     1.0000 0.58030  0.31270  0.09140  Biso   1.000  H
  H214     1.0000 0.56990  0.34260  0.02150  Biso   1.000  H
  H215     1.0000 0.63210  0.40400  0.95570  Biso   1.000  H
  H216     1.0000 0.70440  0.43540  0.95960  Biso   1.000  H
  H217     1.0000 0.71780  0.45160  0.22760  Biso   1.000  H
  H218     1.0000 0.64730  0.42150  0.26640  Biso   1.000  H
  H219     1.0000 0.58260  0.35610  0.26890  Biso   1.000  H
  H220     1.0000 0.58850  0.32080  0.23250  Biso   1.000  H
  H221     1.0000 0.84880  0.59690  0.07510  Biso   1.000  H
  H222     1.0000 0.88030  0.67320  0.00330  Biso   1.000  H
  H223     1.0000 0.87880  0.67030  0.94070  Biso   1.000  H
  H224     1.0000 0.84580  0.59130  0.94990  Biso   1.000  H
  H225     1.0000 0.88620  0.73100  0.63700  Biso   1.000  H
  H226     1.0000 0.85580  0.67510  0.71510  Biso   1.000  H
  H227     1.0000 0.92320  0.61430  0.71570  Biso   1.000  H
  H228     1.0000 0.95360  0.67040  0.63760  Biso   1.000  H
  H229     1.0000 0.88370  0.65910  0.78200  Biso   1.000  H
  H230     1.0000 0.85330  0.60310  0.85960  Biso   1.000  H
  H231     1.0000 0.81530  0.48340  0.85250  Biso   1.000  H
  H232     1.0000 0.84570  0.53940  0.77490  Biso   1.000  H
  H233     1.0000 0.89300  0.62420  0.14700  Biso   1.000  H
  H234     1.0000 0.92060  0.67530  0.17350  Biso   1.000  H
  H235     1.0000 0.84630  0.54910  0.29940  Biso   1.000  H
  H236     1.0000 0.81870  0.49790  0.27300  Biso   1.000  H
  H237     1.0000 0.93040  0.64970  0.33970  Biso   1.000  H
  H238     1.0000 0.90380  0.59780  0.31360  Biso   1.000  H
  H239     1.0000 0.90680  0.70980  0.20220  Biso   1.000  H
  H240     1.0000 0.93350  0.76190  0.22820  Biso   1.000  H
  C257     1.0000 0.92013  0.86360  0.47267  Biso   1.000  C
  C258     1.0000 0.91692  0.89890  0.43398  Biso   1.000  C
  C259     1.0000 0.88920  0.91410  0.43850  Biso   1.000  C
  C260     1.0000 0.86470  0.89400  0.48170  Biso   1.000  C
  C261     1.0000 0.86790  0.85870  0.52040  Biso   1.000  C
  C262     1.0000 0.89560  0.84350  0.51590  Biso   1.000  C
  C263     1.0000 0.92770  0.71880  0.47730  Biso   1.000  C
  C264     1.0000 0.93080  0.71880  0.43860  Biso   1.000  C
  C265     1.0000 0.91505  0.67220  0.44295  Biso   1.000  C
  C266     1.0000 0.89610  0.62550  0.48600  Biso   1.000  C
  C267     1.0000 0.89290  0.62540  0.52490  Biso   1.000  C
  C268     1.0000 0.90871  0.67200  0.52049  Biso   1.000  C
  C269     1.0000 0.06984  0.87720  0.47256  Biso   1.000  C
  C270     1.0000 0.10770  0.91510  0.43460  Biso   1.000  C
  C271     1.0000 0.14950  0.93970  0.43840  Biso   1.000  C
  C272     1.0000 0.15346  0.92630  0.48024  Biso   1.000  C
  C273     1.0000 0.11560  0.88840  0.51820  Biso   1.000  C
  C274     1.0000 0.07379  0.86380  0.51441  Biso   1.000  C
  C275     1.0000 0.92080  0.89300  0.29280  Biso   1.000  C
  C276     1.0000 0.92340  0.85620  0.29240  Biso   1.000  C
  C277     1.0000 0.90220  0.83730  0.26790  Biso   1.000  C
  C278     1.0000 0.87840  0.85530  0.24370  Biso   1.000  C
  C279     1.0000 0.87560  0.89190  0.24430  Biso   1.000  C
  C280     1.0000 0.89684  0.91080  0.26876  Biso   1.000  C
  C281     1.0000 0.07334  0.86510  0.29156  Biso   1.000  C
  C282     1.0000 0.11100  0.90427  0.29113  Biso   1.000  C
  C283     1.0000 0.15380  0.92530  0.26650  Biso   1.000  C
  C284     1.0000 0.15912  0.90730  0.24238  Biso   1.000  C
  C285     1.0000 0.12144  0.86820  0.24276  Biso   1.000  C
  C286     1.0000 0.07870  0.84720  0.26730  Biso   1.000  C
  C287     1.0000 0.06482  0.04676  0.28080  Biso   1.000  C
  C288     1.0000 0.10396  0.04848  0.28000  Biso   1.000  C
  C289     1.0000 0.14575  0.09581  0.25240  Biso   1.000  C
  C290     1.0000 0.14839  0.14141  0.22562  Biso   1.000  C
  C291     1.0000 0.10923  0.13966  0.22645  Biso   1.000  C
  C292     1.0000 0.06747  0.09238  0.25401  Biso   1.000  C
  C293     1.0000 0.83585  0.20616  0.21671  Biso   1.000  C
  C294     1.0000 0.86040  0.20754  0.18606  Biso   1.000  C
  C295     1.0000 0.87361  0.17410  0.20129  Biso   1.000  C
  C296     1.0000 0.86230  0.13920  0.24730  Biso   1.000  C
  C297     1.0000 0.83768  0.13780  0.27792  Biso   1.000  C
  C298     1.0000 0.82449  0.17130  0.26261  Biso   1.000  C
  C299     1.0000 0.87566  0.10465  0.26297  Biso   1.000  C
  C300     1.0000 0.91990  0.12360  0.24630  Biso   1.000  C
  C301     1.0000 0.93270  0.09020  0.26150  Biso   1.000  C
  C302     1.0000 0.90132  0.03780  0.29348  Biso   1.000  C
  C303     1.0000 0.85716  0.01890  0.31014  Biso   1.000  C
  C304     1.0000 0.84436  0.05230  0.29494  Biso   1.000  C
  C305     1.0000 0.82194  0.24025  0.20111  Biso   1.000  C
  C306     1.0000 0.91502  0.00360  0.30938  Biso   1.000  C
  C307     1.0000 0.26376  0.05630  0.29694  Biso   1.000  C
  C308     1.0000 0.28690  0.10890  0.27460  Biso   1.000  C
  C309     1.0000 0.33293  0.13930  0.26057  Biso   1.000  C
  C310     1.0000 0.35592  0.11710  0.26898  Biso   1.000  C
  C311     1.0000 0.33280  0.06440  0.29140  Biso   1.000  C
  C312     1.0000 0.28676  0.03400  0.30544  Biso   1.000  C
  C313     1.0000 0.49730  0.21080  0.22370  Biso   1.000  C
  C314     1.0000 0.47380  0.16190  0.26370  Biso   1.000  C
  C315     1.0000 0.42720  0.13080  0.27900  Biso   1.000  C
  C316     1.0000 0.40410  0.14870  0.25400  Biso   1.000  C
  C317     1.0000 0.42760  0.19770  0.21390  Biso   1.000  C
  C318     1.0000 0.47420  0.22870  0.19870  Biso   1.000  C
  C319     1.0000 0.54509  0.24250  0.20821  Biso   1.000  C
  C320     1.0000 0.21554  0.02460  0.31126  Biso   1.000  C
  C321     1.0000 0.83627  0.36360  0.05653  Biso   1.000  C
  C322     1.0000 0.83288  0.39890  0.01802  Biso   1.000  C
  C323     1.0000 0.85260  0.41410  0.97510  Biso   1.000  C
  C324     1.0000 0.87570  0.39400  0.97070  Biso   1.000  C
  C325     1.0000 0.87910  0.35870  0.00920  Biso   1.000  C
  C326     1.0000 0.85940  0.34350  0.05210  Biso   1.000  C
  C327     1.0000 0.69610  0.21880  0.20890  Biso   1.000  C
  C328     1.0000 0.65740  0.21880  0.21200  Biso   1.000  C
  C329     1.0000 0.61515  0.17220  0.24285  Biso   1.000  C
  C330     1.0000 0.61150  0.12550  0.27060  Biso   1.000  C
  C331     1.0000 0.65030  0.12540  0.26750  Biso   1.000  C
  C332     1.0000 0.69249  0.17200  0.23671  Biso   1.000  C
  C333     1.0000 0.84976  0.37720  0.19264  Biso   1.000  C
  C334     1.0000 0.84970  0.41510  0.19260  Biso   1.000  C
  C335     1.0000 0.87810  0.43970  0.20980  Biso   1.000  C
  C336     1.0000 0.90654  0.42630  0.22716  Biso   1.000  C
  C337     1.0000 0.90660  0.38840  0.22720  Biso   1.000  C
  C338     1.0000 0.87821  0.36380  0.20999  Biso   1.000  C
  C339     1.0000 0.68580  0.39300  0.02780  Biso   1.000  C
  C340     1.0000 0.64860  0.35620  0.06720  Biso   1.000  C
  C341     1.0000 0.60520  0.33730  0.06490  Biso   1.000  C
  C342     1.0000 0.59900  0.35530  0.02310  Biso   1.000  C
  C343     1.0000 0.63620  0.39190  0.98370  Biso   1.000  C
  C344     1.0000 0.67956  0.41080  0.98604  Biso   1.000  C
  C345     1.0000 0.65666  0.36510  0.20824  Biso   1.000  C
  C346     1.0000 0.69540  0.40427  0.20673  Biso   1.000  C
  C347     1.0000 0.69180  0.42530  0.22850  Biso   1.000  C
  C348     1.0000 0.64968  0.40730  0.25182  Biso   1.000  C
  C349     1.0000 0.61096  0.36820  0.25324  Biso   1.000  C
  C350     1.0000 0.61450  0.34720  0.23150  Biso   1.000  C
  C351     1.0000 0.82756  0.54676  0.01806  Biso   1.000  C
  C352     1.0000 0.82848  0.54848  0.05548  Biso   1.000  C
  C353     1.0000 0.84821  0.59581  0.04994  Biso   1.000  C
  C354     1.0000 0.86703  0.64141  0.00698  Biso   1.000  C
  C355     1.0000 0.86611  0.63966  0.96957  Biso   1.000  C
  C356     1.0000 0.84639  0.59238  0.97509  Biso   1.000  C
  C357     1.0000 0.92287  0.70616  0.62969  Biso   1.000  C
  C358     1.0000 0.89360  0.70754  0.65286  Biso   1.000  C
  C359     1.0000 0.87539  0.67410  0.69951  Biso   1.000  C
  C360     1.0000 0.88650  0.63920  0.72310  Biso   1.000  C
  C361     1.0000 0.91572  0.63780  0.69988  Biso   1.000  C
  C362     1.0000 0.93391  0.67130  0.65319  Biso   1.000  C
  C363     1.0000 0.86762  0.60465  0.77101  Biso   1.000  C
  C364     1.0000 0.86990  0.62360  0.79630  Biso   1.000  C
  C365     1.0000 0.85170  0.59020  0.84250  Biso   1.000  C
  C366     1.0000 0.83128  0.53780  0.86352  Biso   1.000  C
  C367     1.0000 0.82904  0.51890  0.83826  Biso   1.000  C
  C368     1.0000 0.84724  0.55230  0.79206  Biso   1.000  C
  C369     1.0000 0.94136  0.74025  0.58169  Biso   1.000  C
  C370     1.0000 0.81298  0.50360  0.91142  Biso   1.000  C
  C371     1.0000 0.85324  0.55630  0.20746  Biso   1.000  C
  C372     1.0000 0.88350  0.60890  0.17800  Biso   1.000  C
  C373     1.0000 0.89987  0.63930  0.19363  Biso   1.000  C
  C374     1.0000 0.88608  0.61710  0.23882  Biso   1.000  C
  C375     1.0000 0.85580  0.56440  0.26840  Biso   1.000  C
  C376     1.0000 0.83944  0.53400  0.25276  Biso   1.000  C
  C377     1.0000 0.93450  0.71080  0.28650  Biso   1.000  C
  C378     1.0000 0.92560  0.66190  0.31190  Biso   1.000  C
  C379     1.0000 0.90980  0.63080  0.29640  Biso   1.000  C
  C380     1.0000 0.90270  0.64870  0.25540  Biso   1.000  C
  C381     1.0000 0.91160  0.69770  0.22990  Biso   1.000  C
  C382     1.0000 0.92740  0.72870  0.24550  Biso   1.000  C
  C383     1.0000 0.95071  0.74250  0.30259  Biso   1.000  C
  C384     1.0000 0.83586  0.52460  0.19094  Biso   1.000  C
  N73      1.0000 0.94660  0.85390  0.45910  Biso   1.000  N
  N74      1.0000 0.96222  0.88330  0.41388  Biso   1.000  N
  N75      1.0000 0.94348  0.90970  0.39862  Biso   1.000  N
  N76      1.0000 0.95204  0.77010  0.46186  Biso   1.000  N
  N77      1.0000 0.96501  0.79685  0.41746  Biso   1.000  N
  N78      1.0000 0.95353  0.76860  0.40187  Biso   1.000  N
  N79      1.0000 0.03479  0.86000  0.45941  Biso   1.000  N
  N80      1.0000 0.05007  0.88891  0.41448  Biso   1.000  N
  N81      1.0000 0.09521  0.92151  0.39744  Biso   1.000  N
  N82      1.0000 0.94984  0.84950  0.31566  Biso   1.000  N
  N83      1.0000 0.96076  0.87759  0.33159  Biso   1.000  N
  N84      1.0000 0.94465  0.90630  0.31665  Biso   1.000  N
  N85      1.0000 0.03638  0.85231  0.31691  Biso   1.000  N
  N86      1.0000 0.05051  0.88263  0.33166  Biso   1.000  N
  N87      1.0000 0.09366  0.91359  0.31615  Biso   1.000  N
  N88      1.0000 0.03075  0.99746  0.30909  Biso   1.000  N
  N89      1.0000 0.04714  0.96960  0.32506  Biso   1.000  N
  N90      1.0000 0.09078  0.99899  0.30905  Biso   1.000  N
  N91      1.0000 0.81300  0.35390  0.09270  Biso   1.000  N
  N92      1.0000 0.79718  0.38330  0.07892  Biso   1.000  N
  N93      1.0000 0.80832  0.40970  0.03378  Biso   1.000  N
  N94      1.0000 0.73196  0.27010  0.18194  Biso   1.000  N
  N95      1.0000 0.71431  0.29685  0.16816  Biso   1.000  N
  N96      1.0000 0.67047  0.26860  0.18493  Biso   1.000  N
  N97      1.0000 0.81941  0.36000  0.17479  Biso   1.000  N
  N98      1.0000 0.80339  0.38891  0.16116  Biso   1.000  N
  N99      1.0000 0.81895  0.42151  0.17370  Biso   1.000  N
  N100     1.0000 0.66516  0.34950  0.10034  Biso   1.000  N
  N101     1.0000 0.70918  0.37759  0.08317  Biso   1.000  N
  N102     1.0000 0.72295  0.40630  0.03835  Biso   1.000  N
  N103     1.0000 0.66922  0.35231  0.18407  Biso   1.000  N
  N104     1.0000 0.71429  0.38263  0.16788  Biso   1.000  N
  N105     1.0000 0.72974  0.41359  0.18007  Biso   1.000  N
  N106     1.0000 0.80655  0.49746  0.03329  Biso   1.000  N
  N107     1.0000 0.79466  0.46960  0.07754  Biso   1.000  N
  N108     1.0000 0.80804  0.49899  0.09179  Biso   1.000  N
  O33      1.0000 0.80557  0.24510  0.22773  Biso   1.000  O
  O34      1.0000 0.82515  0.26650  0.16075  Biso   1.000  O
  O35      1.0000 0.95530  0.01880  0.29950  Biso   1.000  O
  O36      1.0000 0.88690  0.95460  0.33490  Biso   1.000  O
  O37      1.0000 0.19426  0.97910  0.32164  Biso   1.000  O
  O38      1.0000 0.19273  0.04060  0.31387  Biso   1.000  O
  O39      1.0000 0.56870  0.28610  0.17080  Biso   1.000  O
  O40      1.0000 0.56680  0.22840  0.23180  Biso   1.000  O
  O41      1.0000 0.97283  0.74510  0.56047  Biso   1.000  O
  O42      1.0000 0.92725  0.76650  0.55865  Biso   1.000  O
  O43      1.0000 0.81830  0.51880  0.93650  Biso   1.000  O
  O44      1.0000 0.78950  0.45460  0.93230  Biso   1.000  O
  O45      1.0000 0.80074  0.47910  0.21516  Biso   1.000  O
  O46      1.0000 0.85447  0.54060  0.15213  Biso   1.000  O
  O47      1.0000 0.95690  0.78610  0.28260  Biso   1.000  O
  O48      1.0000 0.96020  0.72840  0.33840  Biso   1.000  O
  Zn31     1.0000 0.12775  0.62209  0.25584  Biso   1.000  Zn
  Zn32     1.0000 0.16971  0.54264  0.29837  Biso   1.000  Zn
  Zn33     1.0000 0.16465  0.69688  0.13371  Biso   1.000  Zn
  Zn34     1.0000 0.16943  0.70842  0.29053  Biso   1.000  Zn
  Zn35     1.0000 0.00604  0.53857  0.30039  Biso   1.000  Zn
  Zn36     1.0000 0.37793  0.12209  0.50566  Biso   1.000  Zn
  Zn37     1.0000 0.34101  0.04264  0.62707  Biso   1.000  Zn
  Zn38     1.0000 0.33059  0.19688  0.46777  Biso   1.000  Zn
  Zn39     1.0000 0.49895  0.20842  0.46101  Biso   1.000  Zn
  Zn40     1.0000 0.33896  0.03857  0.46747  Biso   1.000  Zn
  H241     1.0000 0.08720  0.70000  0.35040  Biso   1.000  H
  H242     1.0000 0.01540  0.66910  0.38870  Biso   1.000  H
  H243     1.0000 0.95100  0.59940  0.39440  Biso   1.000  H
  H244     1.0000 0.95850  0.56080  0.36150  Biso   1.000  H
  H245     1.0000 0.08270  0.66560  0.08950  Biso   1.000  H
  H246     1.0000 0.01100  0.62540  0.08360  Biso   1.000  H
  H247     1.0000 0.94660  0.56610  0.14790  Biso   1.000  H
  H248     1.0000 0.95380  0.54720  0.21820  Biso   1.000  H
  H249     1.0000 0.08740  0.41220  0.37800  Biso   1.000  H
  H250     1.0000 0.01720  0.33540  0.42580  Biso   1.000  H
  H251     1.0000 0.95350  0.33520  0.42590  Biso   1.000  H
  H252     1.0000 0.95980  0.41170  0.37830  Biso   1.000  H
  H253     1.0000 0.23240  0.82830  0.08030  Biso   1.000  H
  H254     1.0000 0.27270  0.90860  0.06990  Biso   1.000  H
  H255     1.0000 0.27190  0.91220  0.13210  Biso   1.000  H
  H256     1.0000 0.23100  0.83600  0.20440  Biso   1.000  H
  H257     1.0000 0.23380  0.55460  0.21780  Biso   1.000  H
  H258     1.0000 0.27420  0.58630  0.14730  Biso   1.000  H
  H259     1.0000 0.27350  0.64850  0.08260  Biso   1.000  H
  H260     1.0000 0.23230  0.67900  0.08850  Biso   1.000  H
  H261     1.0000 0.24810  0.57610  0.34880  Biso   1.000  H
  H262     1.0000 0.29290  0.61640  0.38030  Biso   1.000  H
  H263     1.0000 0.29150  0.68050  0.37880  Biso   1.000  H
  H264     1.0000 0.24550  0.70430  0.34580  Biso   1.000  H
  H265     1.0000 0.34480  0.97680  0.38620  Biso   1.000  H
  H266     1.0000 0.31930  0.92910  0.35580  Biso   1.000  H
  H267     1.0000 0.19110  0.86110  0.42320  Biso   1.000  H
  H268     1.0000 0.21680  0.90880  0.45360  Biso   1.000  H
  H269     1.0000 0.27540  0.83430  0.38370  Biso   1.000  H
  H270     1.0000 0.24980  0.78710  0.35330  Biso   1.000  H
  H271     1.0000 0.16810  0.83220  0.31530  Biso   1.000  H
  H272     1.0000 0.19370  0.87940  0.34570  Biso   1.000  H
  H273     1.0000 0.23120  0.46000  0.39300  Biso   1.000  H
  H274     1.0000 0.25470  0.40590  0.42060  Biso   1.000  H
  H275     1.0000 0.20280  0.35430  0.34630  Biso   1.000  H
  H276     1.0000 0.17920  0.40830  0.31870  Biso   1.000  H
  H277     1.0000 0.21930  0.22990  0.43040  Biso   1.000  H
  H278     1.0000 0.19400  0.28260  0.40380  Biso   1.000  H
  H279     1.0000 0.30300  0.39100  0.40680  Biso   1.000  H
  H280     1.0000 0.32840  0.33830  0.43350  Biso   1.000  H
  H281     1.0000 0.55040  0.20000  0.38720  Biso   1.000  H
  H282     1.0000 0.55780  0.16910  0.34630  Biso   1.000  H
  H283     1.0000 0.49380  0.09940  0.35160  Biso   1.000  H
  H284     1.0000 0.42230  0.06080  0.39770  Biso   1.000  H
  H285     1.0000 0.25510  0.16560  0.41710  Biso   1.000  H
  H286     1.0000 0.20900  0.12540  0.38560  Biso   1.000  H
  H287     1.0000 0.21400  0.06610  0.38050  Biso   1.000  H
  H288     1.0000 0.26540  0.04720  0.40660  Biso   1.000  H
  H289     1.0000 0.29020  0.91220  0.67520  Biso   1.000  H
  H290     1.0000 0.26120  0.83540  0.68180  Biso   1.000  H
  H291     1.0000 0.26110  0.83520  0.61830  Biso   1.000  H
  H292     1.0000 0.29000  0.91170  0.54810  Biso   1.000  H
  H293     1.0000 0.40860  0.32830  0.40410  Biso   1.000  H
  H294     1.0000 0.47850  0.40860  0.36410  Biso   1.000  H
  H295     1.0000 0.54430  0.41220  0.35970  Biso   1.000  H
  H296     1.0000 0.54040  0.33600  0.39500  Biso   1.000  H
  H297     1.0000 0.27240  0.05460  0.67920  Biso   1.000  H
  H298     1.0000 0.23360  0.08630  0.68790  Biso   1.000  H
  H299     1.0000 0.23110  0.14850  0.62500  Biso   1.000  H
  H300     1.0000 0.26750  0.17900  0.55330  Biso   1.000  H
  H301     1.0000 0.42490  0.07610  0.67200  Biso   1.000  H
  H302     1.0000 0.49670  0.11640  0.67650  Biso   1.000  H
  H303     1.0000 0.55930  0.18050  0.61100  Biso   1.000  H
  H304     1.0000 0.55010  0.20430  0.54120  Biso   1.000  H
  H305     1.0000 0.86300  0.47680  0.36800  Biso   1.000  H
  H306     1.0000 0.78490  0.42910  0.39020  Biso   1.000  H
  H307     1.0000 0.78430  0.36110  0.33000  Biso   1.000  H
  H308     1.0000 0.86240  0.40880  0.30800  Biso   1.000  H
  H309     1.0000 0.71800  0.33430  0.44110  Biso   1.000  H
  H310     1.0000 0.64040  0.28710  0.46270  Biso   1.000  H
  H311     1.0000 0.64750  0.33220  0.33590  Biso   1.000  H
  H312     1.0000 0.72510  0.37940  0.31430  Biso   1.000  H
  H313     1.0000 0.35300  0.96000  0.77120  Biso   1.000  H
  H314     1.0000 0.32650  0.90590  0.84880  Biso   1.000  H
  H315     1.0000 0.20060  0.85430  0.84850  Biso   1.000  H
  H316     1.0000 0.22700  0.90830  0.77090  Biso   1.000  H
  H317     1.0000 0.16030  0.72990  0.98940  Biso   1.000  H
  H318     1.0000 0.18640  0.78260  0.91140  Biso   1.000  H
  H319     1.0000 0.29780  0.89100  0.91200  Biso   1.000  H
  H320     1.0000 0.27180  0.83830  0.99010  Biso   1.000  H
  C385     1.0000 0.02733  0.60720  0.33627  Biso   1.000  C
  C386     1.0000 0.06602  0.64910  0.33288  Biso   1.000  C
  C387     1.0000 0.06150  0.67230  0.35260  Biso   1.000  C
  C388     1.0000 0.01830  0.65360  0.37570  Biso   1.000  C
  C389     1.0000 0.97960  0.61170  0.37910  Biso   1.000  C
  C390     1.0000 0.98410  0.58850  0.35940  Biso   1.000  C
  C391     1.0000 0.02270  0.59500  0.19610  Biso   1.000  C
  C392     1.0000 0.06140  0.63060  0.15740  Biso   1.000  C
  C393     1.0000 0.05705  0.64200  0.11515  Biso   1.000  C
  C394     1.0000 0.01400  0.61790  0.11150  Biso   1.000  C
  C395     1.0000 0.97510  0.58220  0.15030  Biso   1.000  C
  C396     1.0000 0.97951  0.57080  0.19249  Biso   1.000  C
  C397     1.0000 0.02744  0.45760  0.34976  Biso   1.000  C
  C398     1.0000 0.06540  0.45770  0.34970  Biso   1.000  C
  C399     1.0000 0.06160  0.41210  0.37810  Biso   1.000  C
  C400     1.0000 0.01976  0.36630  0.40654  Biso   1.000  C
  C401     1.0000 0.98180  0.36620  0.40660  Biso   1.000  C
  C402     1.0000 0.98559  0.41180  0.37821  Biso   1.000  C
  C403     1.0000 0.20720  0.78640  0.18580  Biso   1.000  C
  C404     1.0000 0.20760  0.78420  0.14860  Biso   1.000  C
  C405     1.0000 0.23210  0.82990  0.10520  Biso   1.000  C
  C406     1.0000 0.25630  0.87790  0.09900  Biso   1.000  C
  C407     1.0000 0.25570  0.88010  0.13620  Biso   1.000  C
  C408     1.0000 0.23124  0.83440  0.17956  Biso   1.000  C
  C409     1.0000 0.20844  0.63510  0.15666  Biso   1.000  C
  C410     1.0000 0.20887  0.59787  0.19540  Biso   1.000  C
  C411     1.0000 0.23350  0.57970  0.19180  Biso   1.000  C
  C412     1.0000 0.25762  0.59850  0.14968  Biso   1.000  C
  C413     1.0000 0.25724  0.63580  0.11096  Biso   1.000  C
  C414     1.0000 0.23270  0.65400  0.11450  Biso   1.000  C
  C415     1.0000 0.21920  0.65438  0.32756  Biso   1.000  C
  C416     1.0000 0.22000  0.61604  0.32848  Biso   1.000  C
  C417     1.0000 0.24760  0.60185  0.34821  Biso   1.000  C
  C418     1.0000 0.27438  0.62599  0.36703  Biso   1.000  C
  C419     1.0000 0.27355  0.66432  0.36611  Biso   1.000  C
  C420     1.0000 0.24599  0.67852  0.34639  Biso   1.000  C
  C421     1.0000 0.28329  0.94744  0.42287  Biso   1.000  C
  C422     1.0000 0.31394  0.95354  0.39360  Biso   1.000  C
  C423     1.0000 0.29871  0.92510  0.37539  Biso   1.000  C
  C424     1.0000 0.25270  0.89040  0.38650  Biso   1.000  C
  C425     1.0000 0.22208  0.88440  0.41572  Biso   1.000  C
  C426     1.0000 0.23739  0.91290  0.43391  Biso   1.000  C
  C427     1.0000 0.23703  0.86137  0.36762  Biso   1.000  C
  C428     1.0000 0.25370  0.83380  0.36990  Biso   1.000  C
  C429     1.0000 0.23850  0.80580  0.35170  Biso   1.000  C
  C430     1.0000 0.20652  0.80520  0.33128  Biso   1.000  C
  C431     1.0000 0.18986  0.83270  0.32904  Biso   1.000  C
  C432     1.0000 0.20506  0.86070  0.34724  Biso   1.000  C
  C433     1.0000 0.29889  0.97695  0.44136  Biso   1.000  C
  C434     1.0000 0.19062  0.77560  0.31298  Biso   1.000  C
  C435     1.0000 0.20306  0.43930  0.35324  Biso   1.000  C
  C436     1.0000 0.22540  0.43850  0.38350  Biso   1.000  C
  C437     1.0000 0.23943  0.40650  0.39987  Biso   1.000  C
  C438     1.0000 0.23102  0.37510  0.38608  Biso   1.000  C
  C439     1.0000 0.20860  0.37580  0.35580  Biso   1.000  C
  C440     1.0000 0.19456  0.40780  0.33944  Biso   1.000  C
  C441     1.0000 0.27630  0.27900  0.43450  Biso   1.000  C
  C442     1.0000 0.23630  0.26250  0.42560  Biso   1.000  C
  C443     1.0000 0.22100  0.29380  0.40980  Biso   1.000  C
  C444     1.0000 0.24600  0.34190  0.40270  Biso   1.000  C
  C445     1.0000 0.28610  0.35850  0.41160  Biso   1.000  C
  C446     1.0000 0.30130  0.32710  0.42740  Biso   1.000  C
  C447     1.0000 0.29179  0.24670  0.45071  Biso   1.000  C
  C448     1.0000 0.18874  0.47320  0.33586  Biso   1.000  C
  C449     1.0000 0.44347  0.10720  0.42013  Biso   1.000  C
  C450     1.0000 0.48198  0.14910  0.41692  Biso   1.000  C
  C451     1.0000 0.52490  0.17230  0.38920  Biso   1.000  C
  C452     1.0000 0.52930  0.15360  0.36470  Biso   1.000  C
  C453     1.0000 0.49080  0.11170  0.36790  Biso   1.000  C
  C454     1.0000 0.44790  0.08850  0.39560  Biso   1.000  C
  C455     1.0000 0.29110  0.09500  0.42770  Biso   1.000  C
  C456     1.0000 0.28800  0.13060  0.43080  Biso   1.000  C
  C457     1.0000 0.25715  0.14200  0.41505  Biso   1.000  C
  C458     1.0000 0.22940  0.11790  0.39610  Biso   1.000  C
  C459     1.0000 0.23250  0.08220  0.39290  Biso   1.000  C
  C460     1.0000 0.26329  0.07080  0.40871  Biso   1.000  C
  C461     1.0000 0.30736  0.95760  0.56984  Biso   1.000  C
  C462     1.0000 0.30740  0.95770  0.60770  Biso   1.000  C
  C463     1.0000 0.29020  0.91210  0.64950  Biso   1.000  C
  C464     1.0000 0.27284  0.86630  0.65346  Biso   1.000  C
  C465     1.0000 0.27280  0.86620  0.61560  Biso   1.000  C
  C466     1.0000 0.29001  0.91180  0.57379  Biso   1.000  C
  C467     1.0000 0.47220  0.28640  0.42080  Biso   1.000  C
  C468     1.0000 0.43280  0.28420  0.42340  Biso   1.000  C
  C469     1.0000 0.43510  0.32990  0.40220  Biso   1.000  C
  C470     1.0000 0.47690  0.37790  0.37840  Biso   1.000  C
  C471     1.0000 0.51630  0.38010  0.37560  Biso   1.000  C
  C472     1.0000 0.51396  0.33440  0.39684  Biso   1.000  C
  C473     1.0000 0.29176  0.13510  0.57334  Biso   1.000  C
  C474     1.0000 0.29327  0.09787  0.61100  Biso   1.000  C
  C475     1.0000 0.27150  0.07970  0.65380  Biso   1.000  C
  C476     1.0000 0.24818  0.09850  0.65912  Biso   1.000  C
  C477     1.0000 0.24676  0.13580  0.62144  Biso   1.000  C
  C478     1.0000 0.26850  0.15400  0.57870  Biso   1.000  C
  C479     1.0000 0.48194  0.15438  0.56482  Biso   1.000  C
  C480     1.0000 0.44452  0.11604  0.60396  Biso   1.000  C
  C481     1.0000 0.45006  0.10185  0.64575  Biso   1.000  C
  C482     1.0000 0.49302  0.12599  0.64839  Biso   1.000  C
  C483     1.0000 0.53043  0.16432  0.60923  Biso   1.000  C
  C484     1.0000 0.52491  0.17852  0.56747  Biso   1.000  C
  C485     1.0000 0.87031  0.44744  0.33585  Biso   1.000  C
  C486     1.0000 0.84714  0.45354  0.36040  Biso   1.000  C
  C487     1.0000 0.80049  0.42510  0.37361  Biso   1.000  C
  C488     1.0000 0.77690  0.39040  0.36230  Biso   1.000  C
  C489     1.0000 0.80012  0.38440  0.33768  Biso   1.000  C
  C490     1.0000 0.84681  0.41290  0.32449  Biso   1.000  C
  C491     1.0000 0.72899  0.36137  0.37566  Biso   1.000  C
  C492     1.0000 0.70370  0.33380  0.41990  Biso   1.000  C
  C493     1.0000 0.65750  0.30580  0.43270  Biso   1.000  C
  C494     1.0000 0.63648  0.30520  0.40132  Biso   1.000  C
  C495     1.0000 0.66174  0.33270  0.35716  Biso   1.000  C
  C496     1.0000 0.70794  0.36070  0.34436  Biso   1.000  C
  C497     1.0000 0.91831  0.47695  0.32194  Biso   1.000  C
  C498     1.0000 0.58858  0.27560  0.41502  Biso   1.000  C
  C499     1.0000 0.29254  0.93930  0.76376  Biso   1.000  C
  C500     1.0000 0.32200  0.93850  0.78690  Biso   1.000  C
  C501     1.0000 0.30637  0.90650  0.83293  Biso   1.000  C
  C502     1.0000 0.26118  0.87510  0.85592  Biso   1.000  C
  C503     1.0000 0.23160  0.87580  0.83280  Biso   1.000  C
  C504     1.0000 0.24724  0.90780  0.78676  Biso   1.000  C
  C505     1.0000 0.21350  0.77900  0.99730  Biso   1.000  C
  C506     1.0000 0.18810  0.76250  0.97380  Biso   1.000  C
  C507     1.0000 0.20360  0.79380  0.92720  Biso   1.000  C
  C508     1.0000 0.24460  0.84190  0.90410  Biso   1.000  C
  C509     1.0000 0.27010  0.85850  0.92760  Biso   1.000  C
  C510     1.0000 0.25450  0.82710  0.97420  Biso   1.000  C
  C511     1.0000 0.19741  0.74670  0.04509  Biso   1.000  C
  C512     1.0000 0.30906  0.97320  0.71554  Biso   1.000  C
  N109     1.0000 0.04090  0.59430  0.31300  Biso   1.000  N
  N110     1.0000 0.08612  0.62390  0.29718  Biso   1.000  N
  N111     1.0000 0.10138  0.65790  0.30832  Biso   1.000  N
  N112     1.0000 0.03814  0.58610  0.23196  Biso   1.000  N
  N113     1.0000 0.08254  0.61753  0.21431  Biso   1.000  N
  N114     1.0000 0.09813  0.64460  0.17047  Biso   1.000  N
  N115     1.0000 0.04059  0.50580  0.31941  Biso   1.000  N
  N116     1.0000 0.08552  0.53545  0.30339  Biso   1.000  N
  N117     1.0000 0.10256  0.50735  0.31895  Biso   1.000  N
  N118     1.0000 0.18434  0.73450  0.16516  Biso   1.000  N
  N119     1.0000 0.16841  0.70765  0.20918  Biso   1.000  N
  N120     1.0000 0.18335  0.73870  0.22295  Biso   1.000  N
  N121     1.0000 0.18309  0.64671  0.16922  Biso   1.000  N
  N122     1.0000 0.16834  0.61783  0.21429  Biso   1.000  N
  N123     1.0000 0.18385  0.59019  0.22974  Biso   1.000  N
  N124     1.0000 0.19091  0.66016  0.30655  Biso   1.000  N
  N125     1.0000 0.17494  0.62780  0.29466  Biso   1.000  N
  N126     1.0000 0.19095  0.60017  0.30804  Biso   1.000  N
  N127     1.0000 0.40730  0.09430  0.44660  Biso   1.000  N
  N128     1.0000 0.42108  0.12390  0.46222  Biso   1.000  N
  N129     1.0000 0.46622  0.15790  0.44348  Biso   1.000  N
  N130     1.0000 0.31806  0.08610  0.45204  Biso   1.000  N
  N131     1.0000 0.33184  0.11753  0.46501  Biso   1.000  N
  N132     1.0000 0.31507  0.14460  0.45353  Biso   1.000  N
  N133     1.0000 0.32521  0.00580  0.53479  Biso   1.000  N
  N134     1.0000 0.33884  0.03545  0.55007  Biso   1.000  N
  N135     1.0000 0.32630  0.00735  0.59521  Biso   1.000  N
  N136     1.0000 0.39966  0.23450  0.44984  Biso   1.000  N
  N137     1.0000 0.41683  0.20765  0.46076  Biso   1.000  N
  N138     1.0000 0.46165  0.23870  0.44465  Biso   1.000  N
  N139     1.0000 0.31593  0.14671  0.53638  Biso   1.000  N
  N140     1.0000 0.33212  0.11783  0.55051  Biso   1.000  N
  N141     1.0000 0.31993  0.09019  0.59366  Biso   1.000  N
  N142     1.0000 0.46671  0.16016  0.53075  Biso   1.000  N
  N143     1.0000 0.42246  0.12780  0.54714  Biso   1.000  N
  N144     1.0000 0.40821  0.10017  0.59078  Biso   1.000  N
  O49      1.0000 0.27227  0.96670  0.47283  Biso   1.000  O
  O50      1.0000 0.33925  0.01410  0.42725  Biso   1.000  O
  O51      1.0000 0.20050  0.74520  0.31830  Biso   1.000  O
  O52      1.0000 0.16510  0.77820  0.28950  Biso   1.000  O
  O53      1.0000 0.17836  0.48410  0.30074  Biso   1.000  O
  O54      1.0000 0.18613  0.49340  0.35447  Biso   1.000  O
  O55      1.0000 0.32920  0.26050  0.45690  Biso   1.000  O
  O56      1.0000 0.26820  0.20140  0.46020  Biso   1.000  O
  O57      1.0000 0.93953  0.46670  0.30557  Biso   1.000  O
  O58      1.0000 0.94135  0.51410  0.32515  Biso   1.000  O
  O59      1.0000 0.56350  0.24520  0.45530  Biso   1.000  O
  O60      1.0000 0.56770  0.27820  0.38690  Biso   1.000  O
  O61      1.0000 0.28484  0.98410  0.69426  Biso   1.000  O
  O62      1.0000 0.34787  0.99340  0.69273  Biso   1.000  O
  O63      1.0000 0.21740  0.76050  0.06870  Biso   1.000  O
  O64      1.0000 0.16160  0.70140  0.06680  Biso   1.000  O
  Zn41     1.0000 0.62207  0.87791  0.49434  Biso   1.000  Zn
  Zn42     1.0000 0.65899  0.95736  0.37293  Biso   1.000  Zn
  Zn43     1.0000 0.66941  0.80312  0.53223  Biso   1.000  Zn
  Zn44     1.0000 0.50105  0.79158  0.53899  Biso   1.000  Zn
  Zn45     1.0000 0.66104  0.96143  0.53253  Biso   1.000  Zn
  Zn46     1.0000 0.87225  0.37791  0.74416  Biso   1.000  Zn
  Zn47     1.0000 0.83029  0.45736  0.70163  Biso   1.000  Zn
  Zn48     1.0000 0.83535  0.30312  0.86629  Biso   1.000  Zn
  Zn49     1.0000 0.83057  0.29158  0.70947  Biso   1.000  Zn
  Zn50     1.0000 0.99396  0.46143  0.69961  Biso   1.000  Zn
  H321     1.0000 0.44960  0.80000  0.61280  Biso   1.000  H
  H322     1.0000 0.44220  0.83090  0.65370  Biso   1.000  H
  H323     1.0000 0.50620  0.90060  0.64840  Biso   1.000  H
  H324     1.0000 0.57770  0.93920  0.60230  Biso   1.000  H
  H325     1.0000 0.74490  0.83440  0.58290  Biso   1.000  H
  H326     1.0000 0.79100  0.87460  0.61440  Biso   1.000  H
  H327     1.0000 0.78600  0.93390  0.61950  Biso   1.000  H
  H328     1.0000 0.73460  0.95280  0.59340  Biso   1.000  H
  H329     1.0000 0.70980  0.08780  0.32480  Biso   1.000  H
  H330     1.0000 0.73880  0.16460  0.31820  Biso   1.000  H
  H331     1.0000 0.73890  0.16480  0.38170  Biso   1.000  H
  H332     1.0000 0.71000  0.08830  0.45190  Biso   1.000  H
  H333     1.0000 0.59140  0.67170  0.59590  Biso   1.000  H
  H334     1.0000 0.52150  0.59140  0.63590  Biso   1.000  H
  H335     1.0000 0.45570  0.58780  0.64030  Biso   1.000  H
  H336     1.0000 0.45960  0.66400  0.60500  Biso   1.000  H
  H337     1.0000 0.72760  0.94540  0.32080  Biso   1.000  H
  H338     1.0000 0.76640  0.91370  0.31210  Biso   1.000  H
  H339     1.0000 0.76890  0.85150  0.37500  Biso   1.000  H
  H340     1.0000 0.73250  0.82100  0.44670  Biso   1.000  H
  H341     1.0000 0.57510  0.92390  0.32800  Biso   1.000  H
  H342     1.0000 0.50330  0.88360  0.32350  Biso   1.000  H
  H343     1.0000 0.44070  0.81950  0.38900  Biso   1.000  H
  H344     1.0000 0.44990  0.79570  0.45880  Biso   1.000  H
  H345     1.0000 0.13700  0.52320  0.63200  Biso   1.000  H
  H346     1.0000 0.21510  0.57090  0.60980  Biso   1.000  H
  H347     1.0000 0.21570  0.63890  0.67000  Biso   1.000  H
  H348     1.0000 0.13760  0.59120  0.69200  Biso   1.000  H
  H349     1.0000 0.28200  0.66570  0.55890  Biso   1.000  H
  H350     1.0000 0.35960  0.71290  0.53730  Biso   1.000  H
  H351     1.0000 0.35250  0.66780  0.66410  Biso   1.000  H
  H352     1.0000 0.27490  0.62060  0.68570  Biso   1.000  H
  H353     1.0000 0.64700  0.04000  0.22880  Biso   1.000  H
  H354     1.0000 0.67350  0.09410  0.15120  Biso   1.000  H
  H355     1.0000 0.79940  0.14570  0.15150  Biso   1.000  H
  H356     1.0000 0.77300  0.09170  0.22910  Biso   1.000  H
  H357     1.0000 0.83970  0.27010  0.01060  Biso   1.000  H
  H358     1.0000 0.81360  0.21740  0.08860  Biso   1.000  H
  H359     1.0000 0.70220  0.10900  0.08800  Biso   1.000  H
  H360     1.0000 0.72820  0.16170  0.00990  Biso   1.000  H
  H361     1.0000 0.91280  0.30000  0.64960  Biso   1.000  H
  H362     1.0000 0.98460  0.33090  0.61130  Biso   1.000  H
  H363     1.0000 0.04900  0.40060  0.60560  Biso   1.000  H
  H364     1.0000 0.04150  0.43920  0.63850  Biso   1.000  H
  H365     1.0000 0.91730  0.33440  0.91050  Biso   1.000  H
  H366     1.0000 0.98900  0.37460  0.91640  Biso   1.000  H
  H367     1.0000 0.05340  0.43390  0.85210  Biso   1.000  H
  H368     1.0000 0.04620  0.45280  0.78180  Biso   1.000  H
  H369     1.0000 0.91260  0.58780  0.62200  Biso   1.000  H
  H370     1.0000 0.98280  0.66460  0.57420  Biso   1.000  H
  H371     1.0000 0.04650  0.66480  0.57410  Biso   1.000  H
  H372     1.0000 0.04020  0.58830  0.62170  Biso   1.000  H
  H373     1.0000 0.76760  0.17170  0.91970  Biso   1.000  H
  H374     1.0000 0.72730  0.09140  0.93010  Biso   1.000  H
  H375     1.0000 0.72810  0.08780  0.86790  Biso   1.000  H
  H376     1.0000 0.76900  0.16400  0.79560  Biso   1.000  H
  H377     1.0000 0.76620  0.44540  0.78220  Biso   1.000  H
  H378     1.0000 0.72580  0.41370  0.85270  Biso   1.000  H
  H379     1.0000 0.72650  0.35150  0.91740  Biso   1.000  H
  H380     1.0000 0.76770  0.32100  0.91150  Biso   1.000  H
  H381     1.0000 0.75190  0.42390  0.65120  Biso   1.000  H
  H382     1.0000 0.70710  0.38360  0.61970  Biso   1.000  H
  H383     1.0000 0.70850  0.31950  0.62120  Biso   1.000  H
  H384     1.0000 0.75450  0.29570  0.65420  Biso   1.000  H
  H385     1.0000 0.65520  0.02320  0.61380  Biso   1.000  H
  H386     1.0000 0.68070  0.07090  0.64420  Biso   1.000  H
  H387     1.0000 0.80890  0.13890  0.57680  Biso   1.000  H
  H388     1.0000 0.78320  0.09120  0.54640  Biso   1.000  H
  H389     1.0000 0.72460  0.16570  0.61630  Biso   1.000  H
  H390     1.0000 0.75020  0.21290  0.64670  Biso   1.000  H
  H391     1.0000 0.83190  0.16780  0.68470  Biso   1.000  H
  H392     1.0000 0.80630  0.12060  0.65430  Biso   1.000  H
  H393     1.0000 0.76880  0.54000  0.60700  Biso   1.000  H
  H394     1.0000 0.74530  0.59410  0.57940  Biso   1.000  H
  H395     1.0000 0.79720  0.64570  0.65370  Biso   1.000  H
  H396     1.0000 0.82080  0.59170  0.68130  Biso   1.000  H
  H397     1.0000 0.78070  0.77010  0.56960  Biso   1.000  H
  H398     1.0000 0.80600  0.71740  0.59620  Biso   1.000  H
  H399     1.0000 0.69700  0.60900  0.59320  Biso   1.000  H
  H400     1.0000 0.67160  0.66170  0.56650  Biso   1.000  H
  C513     1.0000 0.55653  0.89280  0.57987  Biso   1.000  C
  C514     1.0000 0.51802  0.85090  0.58308  Biso   1.000  C
  C515     1.0000 0.47510  0.82770  0.61080  Biso   1.000  C
  C516     1.0000 0.47070  0.84640  0.63530  Biso   1.000  C
  C517     1.0000 0.50920  0.88830  0.63210  Biso   1.000  C
  C518     1.0000 0.55210  0.91150  0.60440  Biso   1.000  C
  C519     1.0000 0.70890  0.90500  0.57230  Biso   1.000  C
  C520     1.0000 0.71200  0.86940  0.56920  Biso   1.000  C
  C521     1.0000 0.74285  0.85800  0.58495  Biso   1.000  C
  C522     1.0000 0.77060  0.88210  0.60390  Biso   1.000  C
  C523     1.0000 0.76750  0.91780  0.60710  Biso   1.000  C
  C524     1.0000 0.73671  0.92920  0.59129  Biso   1.000  C
  C525     1.0000 0.69264  0.04240  0.43016  Biso   1.000  C
  C526     1.0000 0.69260  0.04230  0.39230  Biso   1.000  C
  C527     1.0000 0.70980  0.08790  0.35050  Biso   1.000  C
  C528     1.0000 0.72716  0.13370  0.34654  Biso   1.000  C
  C529     1.0000 0.72720  0.13380  0.38440  Biso   1.000  C
  C530     1.0000 0.70999  0.08820  0.42621  Biso   1.000  C
  C531     1.0000 0.52780  0.71360  0.57920  Biso   1.000  C
  C532     1.0000 0.56720  0.71580  0.57660  Biso   1.000  C
  C533     1.0000 0.56490  0.67010  0.59780  Biso   1.000  C
  C534     1.0000 0.52310  0.62210  0.62160  Biso   1.000  C
  C535     1.0000 0.48370  0.61990  0.62440  Biso   1.000  C
  C536     1.0000 0.48604  0.66560  0.60316  Biso   1.000  C
  C537     1.0000 0.70824  0.86490  0.42666  Biso   1.000  C
  C538     1.0000 0.70673  0.90213  0.38900  Biso   1.000  C
  C539     1.0000 0.72850  0.92030  0.34620  Biso   1.000  C
  C540     1.0000 0.75182  0.90150  0.34088  Biso   1.000  C
  C541     1.0000 0.75324  0.86420  0.37856  Biso   1.000  C
  C542     1.0000 0.73150  0.84600  0.42130  Biso   1.000  C
  C543     1.0000 0.51806  0.84562  0.43518  Biso   1.000  C
  C544     1.0000 0.55548  0.88396  0.39604  Biso   1.000  C
  C545     1.0000 0.54994  0.89815  0.35425  Biso   1.000  C
  C546     1.0000 0.50698  0.87401  0.35161  Biso   1.000  C
  C547     1.0000 0.46957  0.83568  0.39077  Biso   1.000  C
  C548     1.0000 0.47509  0.82148  0.43253  Biso   1.000  C
  C549     1.0000 0.12969  0.55256  0.66415  Biso   1.000  C
  C550     1.0000 0.15286  0.54646  0.63960  Biso   1.000  C
  C551     1.0000 0.19951  0.57490  0.62639  Biso   1.000  C
  C552     1.0000 0.22310  0.60960  0.63770  Biso   1.000  C
  C553     1.0000 0.19988  0.61560  0.66232  Biso   1.000  C
  C554     1.0000 0.15319  0.58710  0.67551  Biso   1.000  C
  C555     1.0000 0.27101  0.63863  0.62434  Biso   1.000  C
  C556     1.0000 0.29630  0.66620  0.58010  Biso   1.000  C
  C557     1.0000 0.34250  0.69420  0.56730  Biso   1.000  C
  C558     1.0000 0.36352  0.69480  0.59868  Biso   1.000  C
  C559     1.0000 0.33826  0.66730  0.64284  Biso   1.000  C
  C560     1.0000 0.29206  0.63930  0.65564  Biso   1.000  C
  C561     1.0000 0.08169  0.52305  0.67806  Biso   1.000  C
  C562     1.0000 0.41142  0.72440  0.58498  Biso   1.000  C
  C563     1.0000 0.70746  0.06070  0.23624  Biso   1.000  C
  C564     1.0000 0.67800  0.06150  0.21310  Biso   1.000  C
  C565     1.0000 0.69363  0.09350  0.16707  Biso   1.000  C
  C566     1.0000 0.73882  0.12490  0.14408  Biso   1.000  C
  C567     1.0000 0.76840  0.12420  0.16720  Biso   1.000  C
  C568     1.0000 0.75276  0.09220  0.21324  Biso   1.000  C
  C569     1.0000 0.78650  0.22100  0.00270  Biso   1.000  C
  C570     1.0000 0.81190  0.23750  0.02620  Biso   1.000  C
  C571     1.0000 0.79640  0.20620  0.07280  Biso   1.000  C
  C572     1.0000 0.75540  0.15810  0.09590  Biso   1.000  C
  C573     1.0000 0.72990  0.14150  0.07240  Biso   1.000  C
  C574     1.0000 0.74550  0.17290  0.02580  Biso   1.000  C
  C575     1.0000 0.80259  0.25330  0.95491  Biso   1.000  C
  C576     1.0000 0.69094  0.02680  0.28446  Biso   1.000  C
  C577     1.0000 0.97267  0.39280  0.66373  Biso   1.000  C
  C578     1.0000 0.93398  0.35090  0.66712  Biso   1.000  C
  C579     1.0000 0.93850  0.32770  0.64740  Biso   1.000  C
  C580     1.0000 0.98170  0.34640  0.62430  Biso   1.000  C
  C581     1.0000 0.02040  0.38830  0.62090  Biso   1.000  C
  C582     1.0000 0.01590  0.41150  0.64060  Biso   1.000  C
  C583     1.0000 0.97730  0.40500  0.80390  Biso   1.000  C
  C584     1.0000 0.93860  0.36940  0.84260  Biso   1.000  C
  C585     1.0000 0.94295  0.35800  0.88485  Biso   1.000  C
  C586     1.0000 0.98600  0.38210  0.88850  Biso   1.000  C
  C587     1.0000 0.02490  0.41780  0.84970  Biso   1.000  C
  C588     1.0000 0.02049  0.42920  0.80751  Biso   1.000  C
  C589     1.0000 0.97256  0.54240  0.65024  Biso   1.000  C
  C590     1.0000 0.93460  0.54230  0.65030  Biso   1.000  C
  C591     1.0000 0.93840  0.58790  0.62190  Biso   1.000  C
  C592     1.0000 0.98024  0.63370  0.59346  Biso   1.000  C
  C593     1.0000 0.01820  0.63380  0.59340  Biso   1.000  C
  C594     1.0000 0.01441  0.58820  0.62179  Biso   1.000  C
  C595     1.0000 0.79280  0.21360  0.81420  Biso   1.000  C
  C596     1.0000 0.79240  0.21580  0.85140  Biso   1.000  C
  C597     1.0000 0.76790  0.17010  0.89480  Biso   1.000  C
  C598     1.0000 0.74370  0.12210  0.90100  Biso   1.000  C
  C599     1.0000 0.74430  0.11990  0.86380  Biso   1.000  C
  C600     1.0000 0.76876  0.16560  0.82044  Biso   1.000  C
  C601     1.0000 0.79156  0.36490  0.84334  Biso   1.000  C
  C602     1.0000 0.79113  0.40213  0.80460  Biso   1.000  C
  C603     1.0000 0.76650  0.42030  0.80820  Biso   1.000  C
  C604     1.0000 0.74238  0.40150  0.85032  Biso   1.000  C
  C605     1.0000 0.74276  0.36420  0.88904  Biso   1.000  C
  C606     1.0000 0.76730  0.34600  0.88550  Biso   1.000  C
  C607     1.0000 0.78080  0.34562  0.67244  Biso   1.000  C
  C608     1.0000 0.78000  0.38396  0.67152  Biso   1.000  C
  C609     1.0000 0.75240  0.39815  0.65179  Biso   1.000  C
  C610     1.0000 0.72562  0.37401  0.63297  Biso   1.000  C
  C611     1.0000 0.72645  0.33568  0.63389  Biso   1.000  C
  C612     1.0000 0.75401  0.32148  0.65361  Biso   1.000  C
  C613     1.0000 0.71671  0.05256  0.57713  Biso   1.000  C
  C614     1.0000 0.68606  0.04646  0.60640  Biso   1.000  C
  C615     1.0000 0.70129  0.07490  0.62461  Biso   1.000  C
  C616     1.0000 0.74730  0.10960  0.61350  Biso   1.000  C
  C617     1.0000 0.77792  0.11560  0.58428  Biso   1.000  C
  C618     1.0000 0.76261  0.08710  0.56609  Biso   1.000  C
  C619     1.0000 0.76297  0.13863  0.63238  Biso   1.000  C
  C620     1.0000 0.74630  0.16620  0.63010  Biso   1.000  C
  C621     1.0000 0.76150  0.19420  0.64830  Biso   1.000  C
  C622     1.0000 0.79348  0.19480  0.66872  Biso   1.000  C
  C623     1.0000 0.81014  0.16730  0.67096  Biso   1.000  C
  C624     1.0000 0.79494  0.13930  0.65276  Biso   1.000  C
  C625     1.0000 0.70111  0.02305  0.55864  Biso   1.000  C
  C626     1.0000 0.80938  0.22440  0.68702  Biso   1.000  C
  C627     1.0000 0.79694  0.56070  0.64676  Biso   1.000  C
  C628     1.0000 0.77460  0.56150  0.61650  Biso   1.000  C
  C629     1.0000 0.76057  0.59350  0.60013  Biso   1.000  C
  C630     1.0000 0.76898  0.62490  0.61392  Biso   1.000  C
  C631     1.0000 0.79140  0.62420  0.64420  Biso   1.000  C
  C632     1.0000 0.80544  0.59220  0.66056  Biso   1.000  C
  C633     1.0000 0.72370  0.72100  0.56550  Biso   1.000  C
  C634     1.0000 0.76370  0.73750  0.57440  Biso   1.000  C
  C635     1.0000 0.77900  0.70620  0.59020  Biso   1.000  C
  C636     1.0000 0.75400  0.65810  0.59730  Biso   1.000  C
  C637     1.0000 0.71390  0.64150  0.58840  Biso   1.000  C
  C638     1.0000 0.69870  0.67290  0.57260  Biso   1.000  C
  C639     1.0000 0.70821  0.75330  0.54929  Biso   1.000  C
  C640     1.0000 0.81126  0.52680  0.66414  Biso   1.000  C
  N145     1.0000 0.59270  0.90570  0.55340  Biso   1.000  N
  N146     1.0000 0.57892  0.87610  0.53778  Biso   1.000  N
  N147     1.0000 0.53378  0.84210  0.55652  Biso   1.000  N
  N148     1.0000 0.68194  0.91390  0.54796  Biso   1.000  N
  N149     1.0000 0.66816  0.88247  0.53499  Biso   1.000  N
  N150     1.0000 0.68493  0.85540  0.54647  Biso   1.000  N
  N151     1.0000 0.67479  0.99420  0.46521  Biso   1.000  N
  N152     1.0000 0.66116  0.96455  0.44993  Biso   1.000  N
  N153     1.0000 0.67370  0.99265  0.40479  Biso   1.000  N
  N154     1.0000 0.60034  0.76550  0.55016  Biso   1.000  N
  N155     1.0000 0.58317  0.79235  0.53924  Biso   1.000  N
  N156     1.0000 0.53835  0.76130  0.55535  Biso   1.000  N
  N157     1.0000 0.68407  0.85329  0.46362  Biso   1.000  N
  N158     1.0000 0.66788  0.88217  0.44949  Biso   1.000  N
  N159     1.0000 0.68007  0.90981  0.40634  Biso   1.000  N
  N160     1.0000 0.53329  0.83984  0.46925  Biso   1.000  N
  N161     1.0000 0.57754  0.87220  0.45286  Biso   1.000  N
  N162     1.0000 0.59179  0.89983  0.40922  Biso   1.000  N
  N163     1.0000 0.95910  0.40570  0.68700  Biso   1.000  N
  N164     1.0000 0.91388  0.37610  0.70282  Biso   1.000  N
  N165     1.0000 0.89862  0.34210  0.69168  Biso   1.000  N
  N166     1.0000 0.96186  0.41390  0.76804  Biso   1.000  N
  N167     1.0000 0.91746  0.38247  0.78569  Biso   1.000  N
  N168     1.0000 0.90187  0.35540  0.82953  Biso   1.000  N
  N169     1.0000 0.95941  0.49420  0.68059  Biso   1.000  N
  N170     1.0000 0.91448  0.46455  0.69661  Biso   1.000  N
  N171     1.0000 0.89744  0.49265  0.68105  Biso   1.000  N
  N172     1.0000 0.81566  0.26550  0.83484  Biso   1.000  N
  N173     1.0000 0.83159  0.29235  0.79082  Biso   1.000  N
  N174     1.0000 0.81665  0.26130  0.77705  Biso   1.000  N
  N175     1.0000 0.81691  0.35329  0.83078  Biso   1.000  N
  N176     1.0000 0.83166  0.38217  0.78571  Biso   1.000  N
  N177     1.0000 0.81615  0.40981  0.77026  Biso   1.000  N
  N178     1.0000 0.80909  0.33984  0.69345  Biso   1.000  N
  N179     1.0000 0.82506  0.37220  0.70534  Biso   1.000  N
  N180     1.0000 0.80905  0.39983  0.69196  Biso   1.000  N
  O65      1.0000 0.06047  0.53330  0.69443  Biso   1.000  O
  O66      1.0000 0.05865  0.48590  0.67485  Biso   1.000  O
  O67      1.0000 0.43650  0.75480  0.54470  Biso   1.000  O
  O68      1.0000 0.43230  0.72180  0.61310  Biso   1.000  O
  O69      1.0000 0.71516  0.01590  0.30574  Biso   1.000  O
  O70      1.0000 0.65213  0.00660  0.30727  Biso   1.000  O
  O71      1.0000 0.78260  0.23950  0.93130  Biso   1.000  O
  O72      1.0000 0.83840  0.29860  0.93320  Biso   1.000  O
  O73      1.0000 0.72773  0.03330  0.52717  Biso   1.000  O
  O74      1.0000 0.66075  0.98590  0.57275  Biso   1.000  O
  O75      1.0000 0.79950  0.25480  0.68170  Biso   1.000  O
  O76      1.0000 0.83490  0.22180  0.71050  Biso   1.000  O
  O77      1.0000 0.82164  0.51590  0.69926  Biso   1.000  O
  O78      1.0000 0.81387  0.50660  0.64553  Biso   1.000  O
  O79      1.0000 0.67080  0.73950  0.54310  Biso   1.000  O
  O80      1.0000 0.73180  0.79860  0.53980  Biso   1.000  O
  Zn51     1.0000 0.77444  0.66480  0.89890  Biso   1.000  Zn
  Zn52     1.0000 0.77914  0.67325  0.05709  Biso   1.000  Zn
  Zn53     1.0000 0.93630  0.83520  0.89036  Biso   1.000  Zn
  Zn54     1.0000 0.76966  0.82675  0.89411  Biso   1.000  Zn
  Zn55     1.0000 0.60964  0.17334  0.72556  Biso   1.000  Zn
  Zn56     1.0000 0.60589  0.33623  0.72086  Biso   1.000  Zn
  Zn57     1.0000 0.60110  0.32666  0.56370  Biso   1.000  Zn
  Zn58     1.0000 0.44291  0.16377  0.73034  Biso   1.000  Zn
  Zn59     1.0000 0.81479  0.75000  0.93521  Biso   1.000  Zn
  Zn60     1.0000 0.56479  0.25000  0.68521  Biso   1.000  Zn
  H401     1.0000 0.72380  0.54120  0.10820  Biso   1.000  H
  H402     1.0000 0.69190  0.46210  0.11740  Biso   1.000  H
  H403     1.0000 0.69170  0.45940  0.05470  Biso   1.000  H
  H404     1.0000 0.72360  0.53590  0.98270  Biso   1.000  H
  H405     1.0000 0.86340  0.69650  0.10130  Biso   1.000  H
  H406     1.0000 0.93550  0.73270  0.10680  Biso   1.000  H
  H407     1.0000 0.99880  0.79710  0.04150  Biso   1.000  H
  H408     1.0000 0.99010  0.82520  0.97090  Biso   1.000  H
  H409     1.0000 0.71420  0.48090  0.71950  Biso   1.000  H
  H410     1.0000 0.73880  0.53060  0.74720  Biso   1.000  H
  H411     1.0000 0.62380  0.42430  0.85070  Biso   1.000  H
  H412     1.0000 0.59920  0.37460  0.82300  Biso   1.000  H
  H413     1.0000 0.65200  0.45660  0.88040  Biso   1.000  H
  H414     1.0000 0.67560  0.50560  0.90880  Biso   1.000  H
  H415     1.0000 0.77330  0.62790  0.79140  Biso   1.000  H
  H416     1.0000 0.74980  0.57890  0.76290  Biso   1.000  H
  H417     1.0000 0.71290  0.68830  0.10340  Biso   1.000  H
  H418     1.0000 0.67110  0.71480  0.11750  Biso   1.000  H
  H419     1.0000 0.98230  0.81210  0.83120  Biso   1.000  H
  H420     1.0000 0.99380  0.78670  0.78750  Biso   1.000  H
  H421     1.0000 0.85060  0.95880  0.81740  Biso   1.000  H
  H422     1.0000 0.92050  0.03790  0.77020  Biso   1.000  H
  H423     1.0000 0.98590  0.04060  0.76770  Biso   1.000  H
  H424     1.0000 0.98140  0.96410  0.81230  Biso   1.000  H
  H425     1.0000 0.70220  0.80350  0.83310  Biso   1.000  H
  H426     1.0000 0.66050  0.76730  0.79720  Biso   1.000  H
  H427     1.0000 0.66140  0.70290  0.79830  Biso   1.000  H
  H428     1.0000 0.70390  0.67480  0.83510  Biso   1.000  H
  H429     1.0000 0.29960  0.01910  0.76670  Biso   1.000  H
  H430     1.0000 0.22220  0.96940  0.79180  Biso   1.000  H
  H431     1.0000 0.22500  0.07570  0.80050  Biso   1.000  H
  H432     1.0000 0.30240  0.12540  0.77540  Biso   1.000  H
  H433     1.0000 0.16300  0.04340  0.80460  Biso   1.000  H
  H434     1.0000 0.08560  0.99440  0.83000  Biso   1.000  H
  H435     1.0000 0.08070  0.87210  0.85460  Biso   1.000  H
  H436     1.0000 0.15820  0.92110  0.82910  Biso   1.000  H
  H437     1.0000 0.70830  0.81170  0.97540  Biso   1.000  H
  H438     1.0000 0.66770  0.78520  0.04370  Biso   1.000  H
  H439     1.0000 0.85670  0.68790  0.82980  Biso   1.000  H
  H440     1.0000 0.92580  0.71330  0.79290  Biso   1.000  H
  H441     1.0000 0.68260  0.33200  0.77620  Biso   1.000  H
  H442     1.0000 0.72980  0.30930  0.80810  Biso   1.000  H
  H443     1.0000 0.73230  0.24640  0.80830  Biso   1.000  H
  H444     1.0000 0.68770  0.20630  0.77640  Biso   1.000  H
  H445     1.0000 0.66690  0.46470  0.63660  Biso   1.000  H
  H446     1.0000 0.70280  0.54230  0.56450  Biso   1.000  H
  H447     1.0000 0.70170  0.54030  0.50120  Biso   1.000  H
  H448     1.0000 0.66490  0.46100  0.50990  Biso   1.000  H
  H449     1.0000 0.73330  0.93370  0.78580  Biso   1.000  H
  H450     1.0000 0.70820  0.98600  0.76120  Biso   1.000  H
  H451     1.0000 0.69950  0.97450  0.87620  Biso   1.000  H
  H452     1.0000 0.72460  0.92220  0.90080  Biso   1.000  H
  H453     1.0000 0.69540  0.03240  0.84800  Biso   1.000  H
  H454     1.0000 0.67000  0.08440  0.82440  Biso   1.000  H
  H455     1.0000 0.64540  0.06470  0.72670  Biso   1.000  H
  H456     1.0000 0.67090  0.01270  0.75020  Biso   1.000  H
  H457     1.0000 0.52460  0.31630  0.78710  Biso   1.000  H
  H458     1.0000 0.45630  0.28860  0.82890  Biso   1.000  H
  H459     1.0000 0.67020  0.31350  0.51770  Biso   1.000  H
  H460     1.0000 0.70710  0.28130  0.50620  Biso   1.000  H
  H461     1.0000 0.39180  0.16800  0.64940  Biso   1.000  H
  H462     1.0000 0.38260  0.19070  0.57950  Biso   1.000  H
  H463     1.0000 0.44530  0.25360  0.51410  Biso   1.000  H
  H464     1.0000 0.51730  0.29370  0.51860  Biso   1.000  H
  H465     1.0000 0.39870  0.03530  0.79780  Biso   1.000  H
  H466     1.0000 0.39320  0.95770  0.83950  Biso   1.000  H
  H467     1.0000 0.45850  0.95970  0.83860  Biso   1.000  H
  H468     1.0000 0.52910  0.03900  0.79610  Biso   1.000  H
  H469     1.0000 0.78050  0.56630  0.20040  Biso   1.000  H
  H470     1.0000 0.75280  0.51400  0.27780  Biso   1.000  H
  H471     1.0000 0.64930  0.52550  0.27500  Biso   1.000  H
  H472     1.0000 0.67700  0.57780  0.19760  Biso   1.000  H
  H473     1.0000 0.61960  0.46760  0.33700  Biso   1.000  H
  H474     1.0000 0.59120  0.41560  0.41440  Biso   1.000  H
  H475     1.0000 0.70860  0.43530  0.41930  Biso   1.000  H
  H476     1.0000 0.73710  0.48730  0.34180  Biso   1.000  H
  H477     1.0000 0.39660  0.18370  0.79170  Biso   1.000  H
  H478     1.0000 0.38250  0.21140  0.83230  Biso   1.000  H
  H479     1.0000 0.66880  0.18650  0.64330  Biso   1.000  H
  H480     1.0000 0.71250  0.21870  0.57420  Biso   1.000  H
  C641     1.0000 0.74264  0.58426  0.00240  Biso   1.000  C
  C642     1.0000 0.74271  0.58583  0.03996  Biso   1.000  C
  C643     1.0000 0.72370  0.54011  0.08307  Biso   1.000  C
  C644     1.0000 0.70464  0.49277  0.08857  Biso   1.000  C
  C645     1.0000 0.70457  0.49121  0.05096  Biso   1.000  C
  C646     1.0000 0.72358  0.53695  0.00785  Biso   1.000  C
  C647     1.0000 0.88353  0.73910  0.03277  Biso   1.000  C
  C648     1.0000 0.88878  0.72220  0.07522  Biso   1.000  C
  C649     1.0000 0.93200  0.74400  0.07840  Biso   1.000  C
  C650     1.0000 0.96990  0.78250  0.03940  Biso   1.000  C
  C651     1.0000 0.96476  0.79940  0.99704  Biso   1.000  C
  C652     1.0000 0.92158  0.77770  0.99372  Biso   1.000  C
  C653     1.0000 0.65440  0.42320  0.76860  Biso   1.000  C
  C654     1.0000 0.69583  0.46940  0.74617  Biso   1.000  C
  C655     1.0000 0.71038  0.49880  0.76262  Biso   1.000  C
  C656     1.0000 0.68360  0.48210  0.80150  Biso   1.000  C
  C657     1.0000 0.64218  0.43580  0.82402  Biso   1.000  C
  C658     1.0000 0.62763  0.40640  0.80757  Biso   1.000  C
  C659     1.0000 0.69875  0.51330  0.81895  Biso   1.000  C
  C660     1.0000 0.67670  0.49150  0.86220  Biso   1.000  C
  C661     1.0000 0.69064  0.52050  0.87906  Biso   1.000  C
  C662     1.0000 0.72663  0.57130  0.85267  Biso   1.000  C
  C663     1.0000 0.74870  0.59310  0.80940  Biso   1.000  C
  C664     1.0000 0.73474  0.56410  0.79256  Biso   1.000  C
  C665     1.0000 0.63856  0.39190  0.75134  Biso   1.000  C
  C666     1.0000 0.74080  0.60110  0.87070  Biso   1.000  C
  C667     1.0000 0.73406  0.73146  0.03600  Biso   1.000  C
  C668     1.0000 0.71110  0.71320  0.07870  Biso   1.000  C
  C669     1.0000 0.68570  0.72810  0.08820  Biso   1.000  C
  C670     1.0000 0.91487  0.76935  0.85418  Biso   1.000  C
  C671     1.0000 0.95692  0.78721  0.83009  Biso   1.000  C
  C672     1.0000 0.96474  0.77140  0.80466  Biso   1.000  C
  C673     1.0000 0.91334  0.91574  0.84162  Biso   1.000  C
  C674     1.0000 0.87421  0.91417  0.84312  Biso   1.000  C
  C675     1.0000 0.87682  0.95989  0.81641  Biso   1.000  C
  C676     1.0000 0.91866  0.00723  0.78813  Biso   1.000  C
  C677     1.0000 0.95783  0.00879  0.78664  Biso   1.000  C
  C678     1.0000 0.95520  0.96305  0.81337  Biso   1.000  C
  C679     1.0000 0.72813  0.76090  0.85557  Biso   1.000  C
  C680     1.0000 0.70258  0.77780  0.83342  Biso   1.000  C
  C681     1.0000 0.67760  0.75600  0.81200  Biso   1.000  C
  C682     1.0000 0.67810  0.71750  0.81260  Biso   1.000  C
  C683     1.0000 0.70356  0.70060  0.83464  Biso   1.000  C
  C684     1.0000 0.72858  0.72230  0.85612  Biso   1.000  C
  C685     1.0000 0.30820  0.07680  0.76880  Biso   1.000  C
  C686     1.0000 0.28443  0.03060  0.77357  Biso   1.000  C
  C687     1.0000 0.23858  0.00120  0.78842  Biso   1.000  C
  C688     1.0000 0.21640  0.01790  0.79850  Biso   1.000  C
  C689     1.0000 0.24018  0.06420  0.79362  Biso   1.000  C
  C690     1.0000 0.28603  0.09360  0.77877  Biso   1.000  C
  C691     1.0000 0.16775  0.98670  0.81455  Biso   1.000  C
  C692     1.0000 0.14630  0.00850  0.81480  Biso   1.000  C
  C693     1.0000 0.10044  0.97950  0.82986  Biso   1.000  C
  C694     1.0000 0.07603  0.92870  0.84467  Biso   1.000  C
  C695     1.0000 0.09750  0.90690  0.84440  Biso   1.000  C
  C696     1.0000 0.14334  0.93590  0.82936  Biso   1.000  C
  C697     1.0000 0.35676  0.10810  0.75334  Biso   1.000  C
  C698     1.0000 0.02820  0.89890  0.86030  Biso   1.000  C
  C699     1.0000 0.73254  0.76854  0.99740  Biso   1.000  C
  C700     1.0000 0.70810  0.78680  0.00210  Biso   1.000  C
  C701     1.0000 0.68370  0.77190  0.04240  Biso   1.000  C
  C702     1.0000 0.87647  0.73065  0.85448  Biso   1.000  C
  C703     1.0000 0.88270  0.71279  0.83029  Biso   1.000  C
  C704     1.0000 0.92394  0.72860  0.80666  Biso   1.000  C
  C705     1.0000 0.65838  0.24504  0.75736  Biso   1.000  C
  C706     1.0000 0.65688  0.28267  0.75729  Biso   1.000  C
  C707     1.0000 0.68359  0.30677  0.77630  Biso   1.000  C
  C708     1.0000 0.71187  0.29321  0.79536  Biso   1.000  C
  C709     1.0000 0.71336  0.25553  0.79543  Biso   1.000  C
  C710     1.0000 0.68663  0.23143  0.77642  Biso   1.000  C
  C711     1.0000 0.64443  0.41630  0.61647  Biso   1.000  C
  C712     1.0000 0.66658  0.46400  0.61122  Biso   1.000  C
  C713     1.0000 0.68800  0.51040  0.56800  Biso   1.000  C
  C714     1.0000 0.68740  0.50930  0.53010  Biso   1.000  C
  C715     1.0000 0.66536  0.46180  0.53524  Biso   1.000  C
  C716     1.0000 0.64388  0.41530  0.57842  Biso   1.000  C
  C717     1.0000 0.73120  0.92300  0.84560  Biso   1.000  C
  C718     1.0000 0.72643  0.94200  0.80417  Biso   1.000  C
  C719     1.0000 0.71158  0.97300  0.78962  Biso   1.000  C
  C720     1.0000 0.70150  0.98510  0.81640  Biso   1.000  C
  C721     1.0000 0.70638  0.96620  0.85782  Biso   1.000  C
  C722     1.0000 0.72123  0.93520  0.87237  Biso   1.000  C
  C723     1.0000 0.68545  0.01770  0.80125  Biso   1.000  C
  C724     1.0000 0.68520  0.03890  0.82330  Biso   1.000  C
  C725     1.0000 0.67014  0.06970  0.80936  Biso   1.000  C
  C726     1.0000 0.65533  0.07930  0.77337  Biso   1.000  C
  C727     1.0000 0.65560  0.05810  0.75130  Biso   1.000  C
  C728     1.0000 0.67064  0.02730  0.76526  Biso   1.000  C
  C729     1.0000 0.74666  0.88990  0.86144  Biso   1.000  C
  C730     1.0000 0.63970  0.11150  0.75920  Biso   1.000  C
  C731     1.0000 0.50260  0.27006  0.76594  Biso   1.000  C
  C732     1.0000 0.49790  0.28980  0.78890  Biso   1.000  C
  C733     1.0000 0.45760  0.27390  0.81430  Biso   1.000  C
  C734     1.0000 0.64552  0.26905  0.58513  Biso   1.000  C
  C735     1.0000 0.66971  0.28701  0.54308  Biso   1.000  C
  C736     1.0000 0.69334  0.26940  0.53526  Biso   1.000  C
  C737     1.0000 0.49760  0.25496  0.58666  Biso   1.000  C
  C738     1.0000 0.46004  0.21733  0.62579  Biso   1.000  C
  C739     1.0000 0.41693  0.19323  0.62318  Biso   1.000  C
  C740     1.0000 0.41143  0.20679  0.58134  Biso   1.000  C
  C741     1.0000 0.44904  0.24447  0.54217  Biso   1.000  C
  C742     1.0000 0.49215  0.26857  0.54480  Biso   1.000  C
  C743     1.0000 0.46723  0.08370  0.77187  Biso   1.000  C
  C744     1.0000 0.42478  0.03600  0.79742  Biso   1.000  C
  C745     1.0000 0.42160  0.98960  0.82240  Biso   1.000  C
  C746     1.0000 0.46060  0.99070  0.82190  Biso   1.000  C
  C747     1.0000 0.50296  0.03820  0.79644  Biso   1.000  C
  C748     1.0000 0.50628  0.08470  0.77142  Biso   1.000  C
  C749     1.0000 0.73140  0.57700  0.19180  Biso   1.000  C
  C750     1.0000 0.75383  0.55800  0.21557  Biso   1.000  C
  C751     1.0000 0.73738  0.52700  0.26142  Biso   1.000  C
  C752     1.0000 0.69850  0.51490  0.28360  Biso   1.000  C
  C753     1.0000 0.67598  0.53380  0.25982  Biso   1.000  C
  C754     1.0000 0.69243  0.56480  0.21397  Biso   1.000  C
  C755     1.0000 0.68105  0.48230  0.33225  Biso   1.000  C
  C756     1.0000 0.63780  0.46110  0.35370  Biso   1.000  C
  C757     1.0000 0.62094  0.43030  0.39956  Biso   1.000  C
  C758     1.0000 0.64733  0.42070  0.42397  Biso   1.000  C
  C759     1.0000 0.69060  0.44190  0.40250  Biso   1.000  C
  C760     1.0000 0.70744  0.47270  0.35666  Biso   1.000  C
  C761     1.0000 0.74866  0.61010  0.14324  Biso   1.000  C
  C762     1.0000 0.62930  0.38850  0.47180  Biso   1.000  C
  C763     1.0000 0.46400  0.22994  0.76746  Biso   1.000  C
  C764     1.0000 0.42130  0.21020  0.79190  Biso   1.000  C
  C765     1.0000 0.41180  0.22610  0.81630  Biso   1.000  C
  C766     1.0000 0.64582  0.23095  0.62353  Biso   1.000  C
  C767     1.0000 0.66991  0.21299  0.61730  Biso   1.000  C
  C768     1.0000 0.69534  0.23060  0.57606  Biso   1.000  C
  N181     1.0000 0.76259  0.63379  0.96582  Biso   1.000  N
  N182     1.0000 0.77520  0.66438  0.97990  Biso   1.000  N
  N183     1.0000 0.76337  0.63654  0.02571  Biso   1.000  N
  N184     1.0000 0.84667  0.72530  0.02003  Biso   1.000  N
  N185     1.0000 0.86081  0.75396  0.97579  Biso   1.000  N
  N186     1.0000 0.90445  0.78650  0.95805  Biso   1.000  N
  N187     1.0000 0.75859  0.72030  0.02331  Biso   1.000  N
  N188     1.0000 0.90120  0.77872  0.87824  Biso   1.000  N
  N189     1.0000 0.90039  0.86621  0.87120  Biso   1.000  N
  N190     1.0000 0.85572  0.83562  0.88918  Biso   1.000  N
  N191     1.0000 0.83775  0.86346  0.87317  Biso   1.000  N
  N192     1.0000 0.75467  0.77470  0.87863  Biso   1.000  N
  N193     1.0000 0.77025  0.74604  0.89315  Biso   1.000  N
  N194     1.0000 0.75545  0.71350  0.88205  Biso   1.000  N
  N195     1.0000 0.75639  0.77970  0.96171  Biso   1.000  N
  N196     1.0000 0.84304  0.72128  0.87752  Biso   1.000  N
  N197     1.0000 0.62880  0.22841  0.73741  Biso   1.000  N
  N198     1.0000 0.61082  0.25510  0.72480  Biso   1.000  N
  N199     1.0000 0.62683  0.28908  0.73663  Biso   1.000  N
  N200     1.0000 0.62137  0.36670  0.65333  Biso   1.000  N
  N201     1.0000 0.60685  0.33660  0.63919  Biso   1.000  N
  N202     1.0000 0.61795  0.36250  0.59555  Biso   1.000  N
  N203     1.0000 0.53829  0.28190  0.74141  Biso   1.000  N
  N204     1.0000 0.62248  0.27944  0.59880  Biso   1.000  N
  N205     1.0000 0.53418  0.27159  0.59961  Biso   1.000  N
  N206     1.0000 0.52010  0.24490  0.64428  Biso   1.000  N
  N207     1.0000 0.47429  0.21092  0.66225  Biso   1.000  N
  N208     1.0000 0.47997  0.13330  0.74533  Biso   1.000  N
  N209     1.0000 0.52421  0.16340  0.72975  Biso   1.000  N
  N210     1.0000 0.54195  0.13750  0.74455  Biso   1.000  N
  N211     1.0000 0.47669  0.21810  0.74361  Biso   1.000  N
  N212     1.0000 0.62176  0.22056  0.65696  Biso   1.000  N
  N213     1.0000 0.77153  0.75000  0.97847  Biso   1.000  N
  N214     1.0000 0.85750  0.75000  0.89250  Biso   1.000  N
  N215     1.0000 0.52153  0.25000  0.72847  Biso   1.000  N
  N216     1.0000 0.60750  0.25000  0.64250  Biso   1.000  N
  O81      1.0000 0.65965  0.40780  0.71355  Biso   1.000  O
  O82      1.0000 0.75340  0.60840  0.89060  Biso   1.000  O
  O83      1.0000 0.76980  0.66330  0.83310  Biso   1.000  O
  O84      1.0000 0.60250  0.34710  0.77400  Biso   1.000  O
  O85      1.0000 0.37865  0.09220  0.74815  Biso   1.000  O
  O86      1.0000 0.00100  0.89160  0.85500  Biso   1.000  O
  O87      1.0000 0.00360  0.83670  0.89350  Biso   1.000  O
  O88      1.0000 0.37890  0.15290  0.74460  Biso   1.000  O
  O89      1.0000 0.75185  0.87320  0.84035  Biso   1.000  O
  O90      1.0000 0.64500  0.14400  0.74660  Biso   1.000  O
  O91      1.0000 0.60650  0.10290  0.73020  Biso   1.000  O
  O92      1.0000 0.75540  0.87650  0.89750  Biso   1.000  O
  O93      1.0000 0.78645  0.62680  0.12135  Biso   1.000  O
  O94      1.0000 0.60940  0.35600  0.49900  Biso   1.000  O
  O95      1.0000 0.66690  0.39710  0.49640  Biso   1.000  O
  O96      1.0000 0.72600  0.62350  0.12110  Biso   1.000  O
