data_image0
_cell_length_a       27.104
_cell_length_b       31.278
_cell_length_c       34.9
_cell_angle_alpha    90
_cell_angle_beta     92.1
_cell_angle_gamma    90

_symmetry_space_group_name_H-M    "P 1"
_symmetry_int_tables_number       1

loop_
  _symmetry_equiv_pos_as_xyz
  'x, y, z'

loop_
  _atom_site_label
  _atom_site_occupancy
  _atom_site_fract_x
  _atom_site_fract_y
  _atom_site_fract_z
  _atom_site_thermal_displace_type
  _atom_site_B_iso_or_equiv
  _atom_site_type_symbol
  Cu1      1.0000 0.14314  0.25229  0.82340  Biso   1.000  Cu
  Si1      1.0000 0.89604  0.99091  0.57340  Biso   1.000  Si
  C1       1.0000 0.85520  0.02650  0.54180  Biso   1.000  C
  C2       1.0000 0.80590  0.01640  0.53430  Biso   1.000  C
  H1       1.0000 0.79190  0.99190  0.54570  Biso   1.000  H
  C3       1.0000 0.77700  0.04220  0.51000  Biso   1.000  C
  H2       1.0000 0.74330  0.03530  0.50480  Biso   1.000  H
  C4       1.0000 0.79750  0.07800  0.49320  Biso   1.000  C
  C5       1.0000 0.84680  0.08810  0.50070  Biso   1.000  C
  H3       1.0000 0.86080  0.11260  0.48930  Biso   1.000  H
  C6       1.0000 0.87570  0.06230  0.52500  Biso   1.000  C
  H4       1.0000 0.90950  0.06920  0.53010  Biso   1.000  H
  C7       1.0000 0.76740  0.10610  0.46920  Biso   1.000  C
  N1       1.0000 0.67640  0.20810  0.36430  Biso   1.000  N
  C8       1.0000 0.72560  0.20680  0.36580  Biso   1.000  C
  H5       1.0000 0.74340  0.22410  0.34880  Biso   1.000  H
  C9       1.0000 0.75170  0.18030  0.39200  Biso   1.000  C
  H6       1.0000 0.78670  0.17820  0.39270  Biso   1.000  H
  C10      1.0000 0.72250  0.15720  0.41710  Biso   1.000  C
  C11      1.0000 0.67160  0.16000  0.41610  Biso   1.000  C
  H7       1.0000 0.65240  0.14390  0.43320  Biso   1.000  H
  C12      1.0000 0.64940  0.18760  0.38890  Biso   1.000  C
  H8       1.0000 0.61470  0.19160  0.38820  Biso   1.000  H
  C13      1.0000 0.74610  0.12920  0.44720  Biso   1.000  C
  C14      1.0000 0.93510  0.02780  0.60490  Biso   1.000  C
  C15      1.0000 0.98510  0.02090  0.61250  Biso   1.000  C
  H9       1.0000 0.00120  0.99740  0.60100  Biso   1.000  H
  C16      1.0000 0.01160  0.04820  0.63700  Biso   1.000  C
  H10      1.0000 0.04580  0.04340  0.64220  Biso   1.000  H
  C17      1.0000 0.98810  0.08250  0.65390  Biso   1.000  C
  C18      1.0000 0.93800  0.08940  0.64630  Biso   1.000  C
  H11      1.0000 0.92190  0.11280  0.65790  Biso   1.000  H
  C19      1.0000 0.91150  0.06210  0.62180  Biso   1.000  C
  H12      1.0000 0.87730  0.06680  0.61660  Biso   1.000  H
  C20      1.0000 0.01580  0.11010  0.67980  Biso   1.000  C
  N2       1.0000 0.11120  0.21420  0.78270  Biso   1.000  N
  C21      1.0000 0.08320  0.23040  0.75400  Biso   1.000  C
  H13      1.0000 0.08030  0.26060  0.75250  Biso   1.000  H
  C22      1.0000 0.05830  0.20670  0.72630  Biso   1.000  C
  H14      1.0000 0.03850  0.21970  0.70650  Biso   1.000  H
  C23      1.0000 0.06380  0.16200  0.72900  Biso   1.000  C
  C24      1.0000 0.09330  0.14350  0.75860  Biso   1.000  C
  H15      1.0000 0.09790  0.11350  0.76050  Biso   1.000  H
  C25      1.0000 0.11590  0.17220  0.78550  Biso   1.000  C
  H16      1.0000 0.13520  0.16080  0.80630  Biso   1.000  H
  C26      1.0000 0.03630  0.13350  0.70160  Biso   1.000  C
  C27      1.0000 0.85930  0.95620  0.60540  Biso   1.000  C
  C28      1.0000 0.84760  0.91450  0.59460  Biso   1.000  C
  H17      1.0000 0.85890  0.90340  0.57110  Biso   1.000  H
  C29      1.0000 0.81930  0.88920  0.61800  Biso   1.000  C
  H18      1.0000 0.81130  0.86070  0.61060  Biso   1.000  H
  C30      1.0000 0.80260  0.90550  0.65220  Biso   1.000  C
  C31      1.0000 0.81430  0.94710  0.66310  Biso   1.000  C
  H19      1.0000 0.80290  0.95830  0.68650  Biso   1.000  H
  C32      1.0000 0.84260  0.97250  0.63970  Biso   1.000  C
  H20      1.0000 0.85060  0.00100  0.64710  Biso   1.000  H
  C33      1.0000 0.77280  0.88010  0.67800  Biso   1.000  C
  N3       1.0000 0.67760  0.78600  0.78080  Biso   1.000  N
  C34      1.0000 0.67320  0.82820  0.78110  Biso   1.000  C
  H21      1.0000 0.65380  0.84170  0.79980  Biso   1.000  H
  C35      1.0000 0.69710  0.85330  0.75360  Biso   1.000  C
  H22      1.0000 0.69420  0.88350  0.75320  Biso   1.000  H
  C36      1.0000 0.72530  0.83170  0.72710  Biso   1.000  C
  C37      1.0000 0.72900  0.78690  0.72670  Biso   1.000  C
  H23      1.0000 0.74790  0.77230  0.70830  Biso   1.000  H
  C38      1.0000 0.70310  0.76460  0.75510  Biso   1.000  C
  H24      1.0000 0.70400  0.73420  0.75590  Biso   1.000  H
  C39      1.0000 0.75140  0.85760  0.69870  Biso   1.000  C
  C40      1.0000 0.93420  0.95670  0.54170  Biso   1.000  C
  C41      1.0000 0.92740  0.96070  0.50220  Biso   1.000  C
  H25      1.0000 0.90500  0.98130  0.49170  Biso   1.000  H
  C42      1.0000 0.95350  0.93440  0.47790  Biso   1.000  C
  H26      1.0000 0.94880  0.93710  0.45090  Biso   1.000  H
  C43      1.0000 0.98640  0.90430  0.49310  Biso   1.000  C
  C44      1.0000 0.99320  0.90030  0.53270  Biso   1.000  C
  H27      1.0000 0.01560  0.87970  0.54310  Biso   1.000  H
  C45      1.0000 0.96710  0.92660  0.55690  Biso   1.000  C
  H28      1.0000 0.97180  0.92390  0.58390  Biso   1.000  H
  C46      1.0000 0.01110  0.87380  0.46900  Biso   1.000  C
  N4       1.0000 0.10650  0.78090  0.36480  Biso   1.000  N
  C47      1.0000 0.05870  0.78450  0.36120  Biso   1.000  C
  H29      1.0000 0.04150  0.77150  0.34000  Biso   1.000  H
  C48      1.0000 0.03210  0.80750  0.38840  Biso   1.000  C
  H30      1.0000 0.99720  0.81040  0.38620  Biso   1.000  H
  C49      1.0000 0.06010  0.82590  0.41910  Biso   1.000  C
  C50      1.0000 0.11110  0.82190  0.42330  Biso   1.000  C
  C51      1.0000 0.13390  0.79770  0.39430  Biso   1.000  C
  H31      1.0000 0.16860  0.79320  0.39570  Biso   1.000  H
  C52      1.0000 0.03350  0.85260  0.44760  Biso   1.000  C
  Cu2      1.0000 0.64314  0.75229  0.82340  Biso   1.000  Cu
  Si2      1.0000 0.39604  0.49091  0.57340  Biso   1.000  Si
  C53      1.0000 0.35520  0.52650  0.54180  Biso   1.000  C
  C54      1.0000 0.30590  0.51640  0.53430  Biso   1.000  C
  H32      1.0000 0.29190  0.49190  0.54570  Biso   1.000  H
  C55      1.0000 0.27700  0.54220  0.51000  Biso   1.000  C
  H33      1.0000 0.24330  0.53530  0.50480  Biso   1.000  H
  C56      1.0000 0.29750  0.57800  0.49320  Biso   1.000  C
  C57      1.0000 0.34680  0.58810  0.50070  Biso   1.000  C
  H34      1.0000 0.36080  0.61260  0.48930  Biso   1.000  H
  C58      1.0000 0.37570  0.56230  0.52500  Biso   1.000  C
  H35      1.0000 0.40950  0.56920  0.53010  Biso   1.000  H
  C59      1.0000 0.26740  0.60610  0.46920  Biso   1.000  C
  N5       1.0000 0.17640  0.70810  0.36430  Biso   1.000  N
  C60      1.0000 0.22560  0.70680  0.36580  Biso   1.000  C
  H36      1.0000 0.24340  0.72410  0.34880  Biso   1.000  H
  C61      1.0000 0.25170  0.68030  0.39200  Biso   1.000  C
  H37      1.0000 0.28670  0.67820  0.39270  Biso   1.000  H
  C62      1.0000 0.22250  0.65720  0.41710  Biso   1.000  C
  C63      1.0000 0.17160  0.66000  0.41610  Biso   1.000  C
  H38      1.0000 0.15240  0.64390  0.43320  Biso   1.000  H
  C64      1.0000 0.14940  0.68760  0.38890  Biso   1.000  C
  H39      1.0000 0.11470  0.69160  0.38820  Biso   1.000  H
  C65      1.0000 0.24610  0.62920  0.44720  Biso   1.000  C
  C66      1.0000 0.43510  0.52780  0.60490  Biso   1.000  C
  C67      1.0000 0.48510  0.52090  0.61250  Biso   1.000  C
  H40      1.0000 0.50120  0.49740  0.60100  Biso   1.000  H
  C68      1.0000 0.51160  0.54820  0.63700  Biso   1.000  C
  H41      1.0000 0.54580  0.54340  0.64220  Biso   1.000  H
  C69      1.0000 0.48810  0.58250  0.65390  Biso   1.000  C
  C70      1.0000 0.43800  0.58940  0.64630  Biso   1.000  C
  H42      1.0000 0.42190  0.61280  0.65790  Biso   1.000  H
  C71      1.0000 0.41150  0.56210  0.62180  Biso   1.000  C
  H43      1.0000 0.37730  0.56680  0.61660  Biso   1.000  H
  C72      1.0000 0.51580  0.61010  0.67980  Biso   1.000  C
  N6       1.0000 0.61120  0.71420  0.78270  Biso   1.000  N
  C73      1.0000 0.58320  0.73040  0.75400  Biso   1.000  C
  H44      1.0000 0.58030  0.76060  0.75250  Biso   1.000  H
  C74      1.0000 0.55830  0.70670  0.72630  Biso   1.000  C
  H45      1.0000 0.53850  0.71970  0.70650  Biso   1.000  H
  C75      1.0000 0.56380  0.66200  0.72900  Biso   1.000  C
  C76      1.0000 0.59330  0.64350  0.75860  Biso   1.000  C
  H46      1.0000 0.59790  0.61350  0.76050  Biso   1.000  H
  C77      1.0000 0.61590  0.67220  0.78550  Biso   1.000  C
  H47      1.0000 0.63520  0.66080  0.80630  Biso   1.000  H
  C78      1.0000 0.53630  0.63350  0.70160  Biso   1.000  C
  C79      1.0000 0.35930  0.45620  0.60540  Biso   1.000  C
  C80      1.0000 0.34760  0.41450  0.59460  Biso   1.000  C
  H48      1.0000 0.35890  0.40340  0.57110  Biso   1.000  H
  C81      1.0000 0.31930  0.38920  0.61800  Biso   1.000  C
  H49      1.0000 0.31130  0.36070  0.61060  Biso   1.000  H
  C82      1.0000 0.30260  0.40550  0.65220  Biso   1.000  C
  C83      1.0000 0.31430  0.44710  0.66310  Biso   1.000  C
  H50      1.0000 0.30290  0.45830  0.68650  Biso   1.000  H
  C84      1.0000 0.34260  0.47250  0.63970  Biso   1.000  C
  H51      1.0000 0.35060  0.50100  0.64710  Biso   1.000  H
  C85      1.0000 0.27280  0.38010  0.67800  Biso   1.000  C
  N7       1.0000 0.17760  0.28600  0.78080  Biso   1.000  N
  C86      1.0000 0.17320  0.32820  0.78110  Biso   1.000  C
  H52      1.0000 0.15380  0.34170  0.79980  Biso   1.000  H
  C87      1.0000 0.19710  0.35330  0.75360  Biso   1.000  C
  H53      1.0000 0.19420  0.38350  0.75320  Biso   1.000  H
  C88      1.0000 0.22530  0.33170  0.72710  Biso   1.000  C
  C89      1.0000 0.22900  0.28690  0.72670  Biso   1.000  C
  H54      1.0000 0.24790  0.27230  0.70830  Biso   1.000  H
  C90      1.0000 0.20310  0.26460  0.75510  Biso   1.000  C
  H55      1.0000 0.20400  0.23420  0.75590  Biso   1.000  H
  C91      1.0000 0.25140  0.35760  0.69870  Biso   1.000  C
  C92      1.0000 0.43420  0.45670  0.54170  Biso   1.000  C
  C93      1.0000 0.42740  0.46070  0.50220  Biso   1.000  C
  H56      1.0000 0.40500  0.48130  0.49170  Biso   1.000  H
  C94      1.0000 0.45350  0.43440  0.47790  Biso   1.000  C
  H57      1.0000 0.44880  0.43710  0.45090  Biso   1.000  H
  C95      1.0000 0.48640  0.40430  0.49310  Biso   1.000  C
  C96      1.0000 0.49320  0.40030  0.53270  Biso   1.000  C
  H58      1.0000 0.51560  0.37970  0.54310  Biso   1.000  H
  C97      1.0000 0.46710  0.42660  0.55690  Biso   1.000  C
  H59      1.0000 0.47180  0.42390  0.58390  Biso   1.000  H
  C98      1.0000 0.51110  0.37380  0.46900  Biso   1.000  C
  N8       1.0000 0.60650  0.28090  0.36480  Biso   1.000  N
  C99      1.0000 0.55870  0.28450  0.36120  Biso   1.000  C
  H60      1.0000 0.54150  0.27150  0.34000  Biso   1.000  H
  C100     1.0000 0.53210  0.30750  0.38840  Biso   1.000  C
  H61      1.0000 0.49720  0.31040  0.38620  Biso   1.000  H
  C101     1.0000 0.56010  0.32590  0.41910  Biso   1.000  C
  C102     1.0000 0.61110  0.32190  0.42330  Biso   1.000  C
  C103     1.0000 0.63390  0.29770  0.39430  Biso   1.000  C
  H62      1.0000 0.66860  0.29320  0.39570  Biso   1.000  H
  C104     1.0000 0.53350  0.35260  0.44760  Biso   1.000  C
  Cu3      1.0000 0.14314  0.74771  0.32340  Biso   1.000  Cu
  Si3      1.0000 0.89604  0.00909  0.07340  Biso   1.000  Si
  C105     1.0000 0.85520  0.97350  0.04180  Biso   1.000  C
  C106     1.0000 0.80590  0.98360  0.03430  Biso   1.000  C
  H63      1.0000 0.79190  0.00810  0.04570  Biso   1.000  H
  C107     1.0000 0.77700  0.95780  0.01000  Biso   1.000  C
  H64      1.0000 0.74330  0.96470  0.00480  Biso   1.000  H
  C108     1.0000 0.79750  0.92200  0.99320  Biso   1.000  C
  C109     1.0000 0.84680  0.91190  0.00070  Biso   1.000  C
  H65      1.0000 0.86080  0.88740  0.98930  Biso   1.000  H
  C110     1.0000 0.87570  0.93770  0.02500  Biso   1.000  C
  H66      1.0000 0.90950  0.93080  0.03010  Biso   1.000  H
  C111     1.0000 0.76740  0.89390  0.96920  Biso   1.000  C
  N9       1.0000 0.67640  0.79190  0.86430  Biso   1.000  N
  C112     1.0000 0.72560  0.79320  0.86580  Biso   1.000  C
  H67      1.0000 0.74340  0.77590  0.84880  Biso   1.000  H
  C113     1.0000 0.75170  0.81970  0.89200  Biso   1.000  C
  H68      1.0000 0.78670  0.82180  0.89270  Biso   1.000  H
  C114     1.0000 0.72250  0.84280  0.91710  Biso   1.000  C
  C115     1.0000 0.67160  0.84000  0.91610  Biso   1.000  C
  H69      1.0000 0.65240  0.85610  0.93320  Biso   1.000  H
  C116     1.0000 0.64940  0.81240  0.88890  Biso   1.000  C
  H70      1.0000 0.61470  0.80840  0.88820  Biso   1.000  H
  C117     1.0000 0.74610  0.87080  0.94720  Biso   1.000  C
  C118     1.0000 0.93510  0.97220  0.10490  Biso   1.000  C
  C119     1.0000 0.98510  0.97910  0.11250  Biso   1.000  C
  H71      1.0000 0.00120  0.00260  0.10100  Biso   1.000  H
  C120     1.0000 0.01160  0.95180  0.13700  Biso   1.000  C
  H72      1.0000 0.04580  0.95660  0.14220  Biso   1.000  H
  C121     1.0000 0.98810  0.91750  0.15390  Biso   1.000  C
  C122     1.0000 0.93800  0.91060  0.14630  Biso   1.000  C
  H73      1.0000 0.92190  0.88720  0.15790  Biso   1.000  H
  C123     1.0000 0.91150  0.93790  0.12180  Biso   1.000  C
  H74      1.0000 0.87730  0.93320  0.11660  Biso   1.000  H
  C124     1.0000 0.01580  0.88990  0.17980  Biso   1.000  C
  N10      1.0000 0.11120  0.78580  0.28270  Biso   1.000  N
  C125     1.0000 0.08320  0.76960  0.25400  Biso   1.000  C
  H75      1.0000 0.08030  0.73940  0.25250  Biso   1.000  H
  C126     1.0000 0.05830  0.79330  0.22630  Biso   1.000  C
  H76      1.0000 0.03850  0.78030  0.20650  Biso   1.000  H
  C127     1.0000 0.06380  0.83800  0.22900  Biso   1.000  C
  C128     1.0000 0.09330  0.85650  0.25860  Biso   1.000  C
  H77      1.0000 0.09790  0.88650  0.26050  Biso   1.000  H
  C129     1.0000 0.11590  0.82780  0.28550  Biso   1.000  C
  H78      1.0000 0.13520  0.83920  0.30630  Biso   1.000  H
  C130     1.0000 0.03630  0.86650  0.20160  Biso   1.000  C
  C131     1.0000 0.85930  0.04380  0.10540  Biso   1.000  C
  C132     1.0000 0.84760  0.08550  0.09460  Biso   1.000  C
  H79      1.0000 0.85890  0.09660  0.07110  Biso   1.000  H
  C133     1.0000 0.81930  0.11080  0.11800  Biso   1.000  C
  H80      1.0000 0.81130  0.13930  0.11060  Biso   1.000  H
  C134     1.0000 0.80260  0.09450  0.15220  Biso   1.000  C
  C135     1.0000 0.81430  0.05290  0.16310  Biso   1.000  C
  H81      1.0000 0.80290  0.04170  0.18650  Biso   1.000  H
  C136     1.0000 0.84260  0.02750  0.13970  Biso   1.000  C
  H82      1.0000 0.85060  0.99900  0.14710  Biso   1.000  H
  C137     1.0000 0.77280  0.11990  0.17800  Biso   1.000  C
  N11      1.0000 0.67760  0.21400  0.28080  Biso   1.000  N
  C138     1.0000 0.67320  0.17180  0.28110  Biso   1.000  C
  H83      1.0000 0.65380  0.15830  0.29980  Biso   1.000  H
  C139     1.0000 0.69710  0.14670  0.25360  Biso   1.000  C
  H84      1.0000 0.69420  0.11650  0.25320  Biso   1.000  H
  C140     1.0000 0.72530  0.16830  0.22710  Biso   1.000  C
  C141     1.0000 0.72900  0.21310  0.22670  Biso   1.000  C
  H85      1.0000 0.74790  0.22770  0.20830  Biso   1.000  H
  C142     1.0000 0.70310  0.23540  0.25510  Biso   1.000  C
  H86      1.0000 0.70400  0.26580  0.25590  Biso   1.000  H
  C143     1.0000 0.75140  0.14240  0.19870  Biso   1.000  C
  C144     1.0000 0.93420  0.04330  0.04170  Biso   1.000  C
  C145     1.0000 0.92740  0.03930  0.00220  Biso   1.000  C
  H87      1.0000 0.90500  0.01870  0.99170  Biso   1.000  H
  C146     1.0000 0.95350  0.06560  0.97790  Biso   1.000  C
  H88      1.0000 0.94880  0.06290  0.95090  Biso   1.000  H
  C147     1.0000 0.98640  0.09570  0.99310  Biso   1.000  C
  C148     1.0000 0.99320  0.09970  0.03270  Biso   1.000  C
  H89      1.0000 0.01560  0.12030  0.04310  Biso   1.000  H
  C149     1.0000 0.96710  0.07340  0.05690  Biso   1.000  C
  H90      1.0000 0.97180  0.07610  0.08390  Biso   1.000  H
  C150     1.0000 0.01110  0.12620  0.96900  Biso   1.000  C
  N12      1.0000 0.10650  0.21910  0.86480  Biso   1.000  N
  C151     1.0000 0.05870  0.21550  0.86120  Biso   1.000  C
  H91      1.0000 0.04150  0.22850  0.84000  Biso   1.000  H
  C152     1.0000 0.03210  0.19250  0.88840  Biso   1.000  C
  H92      1.0000 0.99720  0.18960  0.88620  Biso   1.000  H
  C153     1.0000 0.06010  0.17410  0.91910  Biso   1.000  C
  C154     1.0000 0.11110  0.17810  0.92330  Biso   1.000  C
  C155     1.0000 0.13390  0.20230  0.89430  Biso   1.000  C
  H93      1.0000 0.16860  0.20680  0.89570  Biso   1.000  H
  C156     1.0000 0.03350  0.14740  0.94760  Biso   1.000  C
  Cu4      1.0000 0.64314  0.24771  0.32340  Biso   1.000  Cu
  Si4      1.0000 0.39604  0.50909  0.07340  Biso   1.000  Si
  C157     1.0000 0.35520  0.47350  0.04180  Biso   1.000  C
  C158     1.0000 0.30590  0.48360  0.03430  Biso   1.000  C
  H94      1.0000 0.29190  0.50810  0.04570  Biso   1.000  H
  C159     1.0000 0.27700  0.45780  0.01000  Biso   1.000  C
  H95      1.0000 0.24330  0.46470  0.00480  Biso   1.000  H
  C160     1.0000 0.29750  0.42200  0.99320  Biso   1.000  C
  C161     1.0000 0.34680  0.41190  0.00070  Biso   1.000  C
  H96      1.0000 0.36080  0.38740  0.98930  Biso   1.000  H
  C162     1.0000 0.37570  0.43770  0.02500  Biso   1.000  C
  H97      1.0000 0.40950  0.43080  0.03010  Biso   1.000  H
  C163     1.0000 0.26740  0.39390  0.96920  Biso   1.000  C
  N13      1.0000 0.17640  0.29190  0.86430  Biso   1.000  N
  C164     1.0000 0.22560  0.29320  0.86580  Biso   1.000  C
  H98      1.0000 0.24340  0.27590  0.84880  Biso   1.000  H
  C165     1.0000 0.25170  0.31970  0.89200  Biso   1.000  C
  H99      1.0000 0.28670  0.32180  0.89270  Biso   1.000  H
  C166     1.0000 0.22250  0.34280  0.91710  Biso   1.000  C
  C167     1.0000 0.17160  0.34000  0.91610  Biso   1.000  C
  H100     1.0000 0.15240  0.35610  0.93320  Biso   1.000  H
  C168     1.0000 0.14940  0.31240  0.88890  Biso   1.000  C
  H101     1.0000 0.11470  0.30840  0.88820  Biso   1.000  H
  C169     1.0000 0.24610  0.37080  0.94720  Biso   1.000  C
  C170     1.0000 0.43510  0.47220  0.10490  Biso   1.000  C
  C171     1.0000 0.48510  0.47910  0.11250  Biso   1.000  C
  H102     1.0000 0.50120  0.50260  0.10100  Biso   1.000  H
  C172     1.0000 0.51160  0.45180  0.13700  Biso   1.000  C
  H103     1.0000 0.54580  0.45660  0.14220  Biso   1.000  H
  C173     1.0000 0.48810  0.41750  0.15390  Biso   1.000  C
  C174     1.0000 0.43800  0.41060  0.14630  Biso   1.000  C
  H104     1.0000 0.42190  0.38720  0.15790  Biso   1.000  H
  C175     1.0000 0.41150  0.43790  0.12180  Biso   1.000  C
  H105     1.0000 0.37730  0.43320  0.11660  Biso   1.000  H
  C176     1.0000 0.51580  0.38990  0.17980  Biso   1.000  C
  N14      1.0000 0.61120  0.28580  0.28270  Biso   1.000  N
  C177     1.0000 0.58320  0.26960  0.25400  Biso   1.000  C
  H106     1.0000 0.58030  0.23940  0.25250  Biso   1.000  H
  C178     1.0000 0.55830  0.29330  0.22630  Biso   1.000  C
  H107     1.0000 0.53850  0.28030  0.20650  Biso   1.000  H
  C179     1.0000 0.56380  0.33800  0.22900  Biso   1.000  C
  C180     1.0000 0.59330  0.35650  0.25860  Biso   1.000  C
  H108     1.0000 0.59790  0.38650  0.26050  Biso   1.000  H
  C181     1.0000 0.61590  0.32780  0.28550  Biso   1.000  C
  H109     1.0000 0.63520  0.33920  0.30630  Biso   1.000  H
  C182     1.0000 0.53630  0.36650  0.20160  Biso   1.000  C
  C183     1.0000 0.35930  0.54380  0.10540  Biso   1.000  C
  C184     1.0000 0.34760  0.58550  0.09460  Biso   1.000  C
  H110     1.0000 0.35890  0.59660  0.07110  Biso   1.000  H
  C185     1.0000 0.31930  0.61080  0.11800  Biso   1.000  C
  H111     1.0000 0.31130  0.63930  0.11060  Biso   1.000  H
  C186     1.0000 0.30260  0.59450  0.15220  Biso   1.000  C
  C187     1.0000 0.31430  0.55290  0.16310  Biso   1.000  C
  H112     1.0000 0.30290  0.54170  0.18650  Biso   1.000  H
  C188     1.0000 0.34260  0.52750  0.13970  Biso   1.000  C
  H113     1.0000 0.35060  0.49900  0.14710  Biso   1.000  H
  C189     1.0000 0.27280  0.61990  0.17800  Biso   1.000  C
  N15      1.0000 0.17760  0.71400  0.28080  Biso   1.000  N
  C190     1.0000 0.17320  0.67180  0.28110  Biso   1.000  C
  H114     1.0000 0.15380  0.65830  0.29980  Biso   1.000  H
  C191     1.0000 0.19710  0.64670  0.25360  Biso   1.000  C
  H115     1.0000 0.19420  0.61650  0.25320  Biso   1.000  H
  C192     1.0000 0.22530  0.66830  0.22710  Biso   1.000  C
  C193     1.0000 0.22900  0.71310  0.22670  Biso   1.000  C
  H116     1.0000 0.24790  0.72770  0.20830  Biso   1.000  H
  C194     1.0000 0.20310  0.73540  0.25510  Biso   1.000  C
  H117     1.0000 0.20400  0.76580  0.25590  Biso   1.000  H
  C195     1.0000 0.25140  0.64240  0.19870  Biso   1.000  C
  C196     1.0000 0.43420  0.54330  0.04170  Biso   1.000  C
  C197     1.0000 0.42740  0.53930  0.00220  Biso   1.000  C
  H118     1.0000 0.40500  0.51870  0.99170  Biso   1.000  H
  C198     1.0000 0.45350  0.56560  0.97790  Biso   1.000  C
  H119     1.0000 0.44880  0.56290  0.95090  Biso   1.000  H
  C199     1.0000 0.48640  0.59570  0.99310  Biso   1.000  C
  C200     1.0000 0.49320  0.59970  0.03270  Biso   1.000  C
  H120     1.0000 0.51560  0.62030  0.04310  Biso   1.000  H
  C201     1.0000 0.46710  0.57340  0.05690  Biso   1.000  C
  H121     1.0000 0.47180  0.57610  0.08390  Biso   1.000  H
  C202     1.0000 0.51110  0.62620  0.96900  Biso   1.000  C
  N16      1.0000 0.60650  0.71910  0.86480  Biso   1.000  N
  C203     1.0000 0.55870  0.71550  0.86120  Biso   1.000  C
  H122     1.0000 0.54150  0.72850  0.84000  Biso   1.000  H
  C204     1.0000 0.53210  0.69250  0.88840  Biso   1.000  C
  H123     1.0000 0.49720  0.68960  0.88620  Biso   1.000  H
  C205     1.0000 0.56010  0.67410  0.91910  Biso   1.000  C
  C206     1.0000 0.61110  0.67810  0.92330  Biso   1.000  C
  C207     1.0000 0.63390  0.70230  0.89430  Biso   1.000  C
  H124     1.0000 0.66860  0.70680  0.89570  Biso   1.000  H
  C208     1.0000 0.53350  0.64740  0.94760  Biso   1.000  C
  Cu5      1.0000 0.85686  0.25229  0.67660  Biso   1.000  Cu
  Si5      1.0000 0.10396  0.99091  0.92660  Biso   1.000  Si
  C209     1.0000 0.14480  0.02650  0.95820  Biso   1.000  C
  C210     1.0000 0.19410  0.01640  0.96570  Biso   1.000  C
  H125     1.0000 0.20810  0.99190  0.95430  Biso   1.000  H
  C211     1.0000 0.22300  0.04220  0.99000  Biso   1.000  C
  H126     1.0000 0.25670  0.03530  0.99520  Biso   1.000  H
  C212     1.0000 0.20250  0.07800  0.00680  Biso   1.000  C
  C213     1.0000 0.15320  0.08810  0.99930  Biso   1.000  C
  H127     1.0000 0.13920  0.11260  0.01070  Biso   1.000  H
  C214     1.0000 0.12430  0.06230  0.97500  Biso   1.000  C
  H128     1.0000 0.09050  0.06920  0.96990  Biso   1.000  H
  C215     1.0000 0.23260  0.10610  0.03080  Biso   1.000  C
  N17      1.0000 0.32360  0.20810  0.13570  Biso   1.000  N
  C216     1.0000 0.27440  0.20680  0.13420  Biso   1.000  C
  H129     1.0000 0.25660  0.22410  0.15120  Biso   1.000  H
  C217     1.0000 0.24830  0.18030  0.10800  Biso   1.000  C
  H130     1.0000 0.21330  0.17820  0.10730  Biso   1.000  H
  C218     1.0000 0.27750  0.15720  0.08290  Biso   1.000  C
  C219     1.0000 0.32840  0.16000  0.08390  Biso   1.000  C
  H131     1.0000 0.34760  0.14390  0.06680  Biso   1.000  H
  C220     1.0000 0.35060  0.18760  0.11110  Biso   1.000  C
  H132     1.0000 0.38530  0.19160  0.11180  Biso   1.000  H
  C221     1.0000 0.25390  0.12920  0.05280  Biso   1.000  C
  C222     1.0000 0.06490  0.02780  0.89510  Biso   1.000  C
  C223     1.0000 0.01490  0.02090  0.88750  Biso   1.000  C
  H133     1.0000 0.99880  0.99740  0.89900  Biso   1.000  H
  C224     1.0000 0.98840  0.04820  0.86300  Biso   1.000  C
  H134     1.0000 0.95420  0.04340  0.85780  Biso   1.000  H
  C225     1.0000 0.01190  0.08250  0.84610  Biso   1.000  C
  C226     1.0000 0.06200  0.08940  0.85370  Biso   1.000  C
  H135     1.0000 0.07810  0.11280  0.84210  Biso   1.000  H
  C227     1.0000 0.08850  0.06210  0.87820  Biso   1.000  C
  H136     1.0000 0.12270  0.06680  0.88340  Biso   1.000  H
  C228     1.0000 0.98420  0.11010  0.82020  Biso   1.000  C
  N18      1.0000 0.88880  0.21420  0.71730  Biso   1.000  N
  C229     1.0000 0.91680  0.23040  0.74600  Biso   1.000  C
  H137     1.0000 0.91970  0.26060  0.74750  Biso   1.000  H
  C230     1.0000 0.94170  0.20670  0.77370  Biso   1.000  C
  H138     1.0000 0.96150  0.21970  0.79350  Biso   1.000  H
  C231     1.0000 0.93620  0.16200  0.77100  Biso   1.000  C
  C232     1.0000 0.90670  0.14350  0.74140  Biso   1.000  C
  H139     1.0000 0.90210  0.11350  0.73950  Biso   1.000  H
  C233     1.0000 0.88410  0.17220  0.71450  Biso   1.000  C
  H140     1.0000 0.86480  0.16080  0.69370  Biso   1.000  H
  C234     1.0000 0.96370  0.13350  0.79840  Biso   1.000  C
  C235     1.0000 0.14070  0.95620  0.89460  Biso   1.000  C
  C236     1.0000 0.15240  0.91450  0.90540  Biso   1.000  C
  H141     1.0000 0.14110  0.90340  0.92890  Biso   1.000  H
  C237     1.0000 0.18070  0.88920  0.88200  Biso   1.000  C
  H142     1.0000 0.18870  0.86070  0.88940  Biso   1.000  H
  C238     1.0000 0.19740  0.90550  0.84780  Biso   1.000  C
  C239     1.0000 0.18570  0.94710  0.83690  Biso   1.000  C
  H143     1.0000 0.19710  0.95830  0.81350  Biso   1.000  H
  C240     1.0000 0.15740  0.97250  0.86030  Biso   1.000  C
  H144     1.0000 0.14940  0.00100  0.85290  Biso   1.000  H
  C241     1.0000 0.22720  0.88010  0.82200  Biso   1.000  C
  N19      1.0000 0.32240  0.78600  0.71920  Biso   1.000  N
  C242     1.0000 0.32680  0.82820  0.71890  Biso   1.000  C
  H145     1.0000 0.34620  0.84170  0.70020  Biso   1.000  H
  C243     1.0000 0.30290  0.85330  0.74640  Biso   1.000  C
  H146     1.0000 0.30580  0.88350  0.74680  Biso   1.000  H
  C244     1.0000 0.27470  0.83170  0.77290  Biso   1.000  C
  C245     1.0000 0.27100  0.78690  0.77330  Biso   1.000  C
  H147     1.0000 0.25210  0.77230  0.79170  Biso   1.000  H
  C246     1.0000 0.29690  0.76460  0.74490  Biso   1.000  C
  H148     1.0000 0.29600  0.73420  0.74410  Biso   1.000  H
  C247     1.0000 0.24860  0.85760  0.80130  Biso   1.000  C
  C248     1.0000 0.06580  0.95670  0.95830  Biso   1.000  C
  C249     1.0000 0.07260  0.96070  0.99780  Biso   1.000  C
  H149     1.0000 0.09500  0.98130  0.00830  Biso   1.000  H
  C250     1.0000 0.04650  0.93440  0.02210  Biso   1.000  C
  H150     1.0000 0.05120  0.93710  0.04910  Biso   1.000  H
  C251     1.0000 0.01360  0.90430  0.00690  Biso   1.000  C
  C252     1.0000 0.00680  0.90030  0.96730  Biso   1.000  C
  H151     1.0000 0.98440  0.87970  0.95690  Biso   1.000  H
  C253     1.0000 0.03290  0.92660  0.94310  Biso   1.000  C
  H152     1.0000 0.02820  0.92390  0.91610  Biso   1.000  H
  C254     1.0000 0.98890  0.87380  0.03100  Biso   1.000  C
  N20      1.0000 0.89350  0.78090  0.13520  Biso   1.000  N
  C255     1.0000 0.94130  0.78450  0.13880  Biso   1.000  C
  H153     1.0000 0.95850  0.77150  0.16000  Biso   1.000  H
  C256     1.0000 0.96790  0.80750  0.11160  Biso   1.000  C
  H154     1.0000 0.00280  0.81040  0.11380  Biso   1.000  H
  C257     1.0000 0.93990  0.82590  0.08090  Biso   1.000  C
  C258     1.0000 0.88890  0.82190  0.07670  Biso   1.000  C
  C259     1.0000 0.86610  0.79770  0.10570  Biso   1.000  C
  H155     1.0000 0.83140  0.79320  0.10430  Biso   1.000  H
  C260     1.0000 0.96650  0.85260  0.05240  Biso   1.000  C
  Cu6      1.0000 0.35686  0.75229  0.67660  Biso   1.000  Cu
  Si6      1.0000 0.60396  0.49091  0.92660  Biso   1.000  Si
  C261     1.0000 0.64480  0.52650  0.95820  Biso   1.000  C
  C262     1.0000 0.69410  0.51640  0.96570  Biso   1.000  C
  H156     1.0000 0.70810  0.49190  0.95430  Biso   1.000  H
  C263     1.0000 0.72300  0.54220  0.99000  Biso   1.000  C
  H157     1.0000 0.75670  0.53530  0.99520  Biso   1.000  H
  C264     1.0000 0.70250  0.57800  0.00680  Biso   1.000  C
  C265     1.0000 0.65320  0.58810  0.99930  Biso   1.000  C
  H158     1.0000 0.63920  0.61260  0.01070  Biso   1.000  H
  C266     1.0000 0.62430  0.56230  0.97500  Biso   1.000  C
  H159     1.0000 0.59050  0.56920  0.96990  Biso   1.000  H
  C267     1.0000 0.73260  0.60610  0.03080  Biso   1.000  C
  N21      1.0000 0.82360  0.70810  0.13570  Biso   1.000  N
  C268     1.0000 0.77440  0.70680  0.13420  Biso   1.000  C
  H160     1.0000 0.75660  0.72410  0.15120  Biso   1.000  H
  C269     1.0000 0.74830  0.68030  0.10800  Biso   1.000  C
  H161     1.0000 0.71330  0.67820  0.10730  Biso   1.000  H
  C270     1.0000 0.77750  0.65720  0.08290  Biso   1.000  C
  C271     1.0000 0.82840  0.66000  0.08390  Biso   1.000  C
  H162     1.0000 0.84760  0.64390  0.06680  Biso   1.000  H
  C272     1.0000 0.85060  0.68760  0.11110  Biso   1.000  C
  H163     1.0000 0.88530  0.69160  0.11180  Biso   1.000  H
  C273     1.0000 0.75390  0.62920  0.05280  Biso   1.000  C
  C274     1.0000 0.56490  0.52780  0.89510  Biso   1.000  C
  C275     1.0000 0.51490  0.52090  0.88750  Biso   1.000  C
  H164     1.0000 0.49880  0.49740  0.89900  Biso   1.000  H
  C276     1.0000 0.48840  0.54820  0.86300  Biso   1.000  C
  H165     1.0000 0.45420  0.54340  0.85780  Biso   1.000  H
  C277     1.0000 0.51190  0.58250  0.84610  Biso   1.000  C
  C278     1.0000 0.56200  0.58940  0.85370  Biso   1.000  C
  H166     1.0000 0.57810  0.61280  0.84210  Biso   1.000  H
  C279     1.0000 0.58850  0.56210  0.87820  Biso   1.000  C
  H167     1.0000 0.62270  0.56680  0.88340  Biso   1.000  H
  C280     1.0000 0.48420  0.61010  0.82020  Biso   1.000  C
  N22      1.0000 0.38880  0.71420  0.71730  Biso   1.000  N
  C281     1.0000 0.41680  0.73040  0.74600  Biso   1.000  C
  H168     1.0000 0.41970  0.76060  0.74750  Biso   1.000  H
  C282     1.0000 0.44170  0.70670  0.77370  Biso   1.000  C
  H169     1.0000 0.46150  0.71970  0.79350  Biso   1.000  H
  C283     1.0000 0.43620  0.66200  0.77100  Biso   1.000  C
  C284     1.0000 0.40670  0.64350  0.74140  Biso   1.000  C
  H170     1.0000 0.40210  0.61350  0.73950  Biso   1.000  H
  C285     1.0000 0.38410  0.67220  0.71450  Biso   1.000  C
  H171     1.0000 0.36480  0.66080  0.69370  Biso   1.000  H
  C286     1.0000 0.46370  0.63350  0.79840  Biso   1.000  C
  C287     1.0000 0.64070  0.45620  0.89460  Biso   1.000  C
  C288     1.0000 0.65240  0.41450  0.90540  Biso   1.000  C
  H172     1.0000 0.64110  0.40340  0.92890  Biso   1.000  H
  C289     1.0000 0.68070  0.38920  0.88200  Biso   1.000  C
  H173     1.0000 0.68870  0.36070  0.88940  Biso   1.000  H
  C290     1.0000 0.69740  0.40550  0.84780  Biso   1.000  C
  C291     1.0000 0.68570  0.44710  0.83690  Biso   1.000  C
  H174     1.0000 0.69710  0.45830  0.81350  Biso   1.000  H
  C292     1.0000 0.65740  0.47250  0.86030  Biso   1.000  C
  H175     1.0000 0.64940  0.50100  0.85290  Biso   1.000  H
  C293     1.0000 0.72720  0.38010  0.82200  Biso   1.000  C
  N23      1.0000 0.82240  0.28600  0.71920  Biso   1.000  N
  C294     1.0000 0.82680  0.32820  0.71890  Biso   1.000  C
  H176     1.0000 0.84620  0.34170  0.70020  Biso   1.000  H
  C295     1.0000 0.80290  0.35330  0.74640  Biso   1.000  C
  H177     1.0000 0.80580  0.38350  0.74680  Biso   1.000  H
  C296     1.0000 0.77470  0.33170  0.77290  Biso   1.000  C
  C297     1.0000 0.77100  0.28690  0.77330  Biso   1.000  C
  H178     1.0000 0.75210  0.27230  0.79170  Biso   1.000  H
  C298     1.0000 0.79690  0.26460  0.74490  Biso   1.000  C
  H179     1.0000 0.79600  0.23420  0.74410  Biso   1.000  H
  C299     1.0000 0.74860  0.35760  0.80130  Biso   1.000  C
  C300     1.0000 0.56580  0.45670  0.95830  Biso   1.000  C
  C301     1.0000 0.57260  0.46070  0.99780  Biso   1.000  C
  H180     1.0000 0.59500  0.48130  0.00830  Biso   1.000  H
  C302     1.0000 0.54650  0.43440  0.02210  Biso   1.000  C
  H181     1.0000 0.55120  0.43710  0.04910  Biso   1.000  H
  C303     1.0000 0.51360  0.40430  0.00690  Biso   1.000  C
  C304     1.0000 0.50680  0.40030  0.96730  Biso   1.000  C
  H182     1.0000 0.48440  0.37970  0.95690  Biso   1.000  H
  C305     1.0000 0.53290  0.42660  0.94310  Biso   1.000  C
  H183     1.0000 0.52820  0.42390  0.91610  Biso   1.000  H
  C306     1.0000 0.48890  0.37380  0.03100  Biso   1.000  C
  N24      1.0000 0.39350  0.28090  0.13520  Biso   1.000  N
  C307     1.0000 0.44130  0.28450  0.13880  Biso   1.000  C
  H184     1.0000 0.45850  0.27150  0.16000  Biso   1.000  H
  C308     1.0000 0.46790  0.30750  0.11160  Biso   1.000  C
  H185     1.0000 0.50280  0.31040  0.11380  Biso   1.000  H
  C309     1.0000 0.43990  0.32590  0.08090  Biso   1.000  C
  C310     1.0000 0.38890  0.32190  0.07670  Biso   1.000  C
  C311     1.0000 0.36610  0.29770  0.10570  Biso   1.000  C
  H186     1.0000 0.33140  0.29320  0.10430  Biso   1.000  H
  C312     1.0000 0.46650  0.35260  0.05240  Biso   1.000  C
  Cu7      1.0000 0.85686  0.74771  0.17660  Biso   1.000  Cu
  Si7      1.0000 0.10396  0.00909  0.42660  Biso   1.000  Si
  C313     1.0000 0.14480  0.97350  0.45820  Biso   1.000  C
  C314     1.0000 0.19410  0.98360  0.46570  Biso   1.000  C
  H187     1.0000 0.20810  0.00810  0.45430  Biso   1.000  H
  C315     1.0000 0.22300  0.95780  0.49000  Biso   1.000  C
  H188     1.0000 0.25670  0.96470  0.49520  Biso   1.000  H
  C316     1.0000 0.20250  0.92200  0.50680  Biso   1.000  C
  C317     1.0000 0.15320  0.91190  0.49930  Biso   1.000  C
  H189     1.0000 0.13920  0.88740  0.51070  Biso   1.000  H
  C318     1.0000 0.12430  0.93770  0.47500  Biso   1.000  C
  H190     1.0000 0.09050  0.93080  0.46990  Biso   1.000  H
  C319     1.0000 0.23260  0.89390  0.53080  Biso   1.000  C
  N25      1.0000 0.32360  0.79190  0.63570  Biso   1.000  N
  C320     1.0000 0.27440  0.79320  0.63420  Biso   1.000  C
  H191     1.0000 0.25660  0.77590  0.65120  Biso   1.000  H
  C321     1.0000 0.24830  0.81970  0.60800  Biso   1.000  C
  H192     1.0000 0.21330  0.82180  0.60730  Biso   1.000  H
  C322     1.0000 0.27750  0.84280  0.58290  Biso   1.000  C
  C323     1.0000 0.32840  0.84000  0.58390  Biso   1.000  C
  H193     1.0000 0.34760  0.85610  0.56680  Biso   1.000  H
  C324     1.0000 0.35060  0.81240  0.61110  Biso   1.000  C
  H194     1.0000 0.38530  0.80840  0.61180  Biso   1.000  H
  C325     1.0000 0.25390  0.87080  0.55280  Biso   1.000  C
  C326     1.0000 0.06490  0.97220  0.39510  Biso   1.000  C
  C327     1.0000 0.01490  0.97910  0.38750  Biso   1.000  C
  H195     1.0000 0.99880  0.00260  0.39900  Biso   1.000  H
  C328     1.0000 0.98840  0.95180  0.36300  Biso   1.000  C
  H196     1.0000 0.95420  0.95660  0.35780  Biso   1.000  H
  C329     1.0000 0.01190  0.91750  0.34610  Biso   1.000  C
  C330     1.0000 0.06200  0.91060  0.35370  Biso   1.000  C
  H197     1.0000 0.07810  0.88720  0.34210  Biso   1.000  H
  C331     1.0000 0.08850  0.93790  0.37820  Biso   1.000  C
  H198     1.0000 0.12270  0.93320  0.38340  Biso   1.000  H
  C332     1.0000 0.98420  0.88990  0.32020  Biso   1.000  C
  N26      1.0000 0.88880  0.78580  0.21730  Biso   1.000  N
  C333     1.0000 0.91680  0.76960  0.24600  Biso   1.000  C
  H199     1.0000 0.91970  0.73940  0.24750  Biso   1.000  H
  C334     1.0000 0.94170  0.79330  0.27370  Biso   1.000  C
  H200     1.0000 0.96150  0.78030  0.29350  Biso   1.000  H
  C335     1.0000 0.93620  0.83800  0.27100  Biso   1.000  C
  C336     1.0000 0.90670  0.85650  0.24140  Biso   1.000  C
  H201     1.0000 0.90210  0.88650  0.23950  Biso   1.000  H
  C337     1.0000 0.88410  0.82780  0.21450  Biso   1.000  C
  H202     1.0000 0.86480  0.83920  0.19370  Biso   1.000  H
  C338     1.0000 0.96370  0.86650  0.29840  Biso   1.000  C
  C339     1.0000 0.14070  0.04380  0.39460  Biso   1.000  C
  C340     1.0000 0.15240  0.08550  0.40540  Biso   1.000  C
  H203     1.0000 0.14110  0.09660  0.42890  Biso   1.000  H
  C341     1.0000 0.18070  0.11080  0.38200  Biso   1.000  C
  H204     1.0000 0.18870  0.13930  0.38940  Biso   1.000  H
  C342     1.0000 0.19740  0.09450  0.34780  Biso   1.000  C
  C343     1.0000 0.18570  0.05290  0.33690  Biso   1.000  C
  H205     1.0000 0.19710  0.04170  0.31350  Biso   1.000  H
  C344     1.0000 0.15740  0.02750  0.36030  Biso   1.000  C
  H206     1.0000 0.14940  0.99900  0.35290  Biso   1.000  H
  C345     1.0000 0.22720  0.11990  0.32200  Biso   1.000  C
  N27      1.0000 0.32240  0.21400  0.21920  Biso   1.000  N
  C346     1.0000 0.32680  0.17180  0.21890  Biso   1.000  C
  H207     1.0000 0.34620  0.15830  0.20020  Biso   1.000  H
  C347     1.0000 0.30290  0.14670  0.24640  Biso   1.000  C
  H208     1.0000 0.30580  0.11650  0.24680  Biso   1.000  H
  C348     1.0000 0.27470  0.16830  0.27290  Biso   1.000  C
  C349     1.0000 0.27100  0.21310  0.27330  Biso   1.000  C
  H209     1.0000 0.25210  0.22770  0.29170  Biso   1.000  H
  C350     1.0000 0.29690  0.23540  0.24490  Biso   1.000  C
  H210     1.0000 0.29600  0.26580  0.24410  Biso   1.000  H
  C351     1.0000 0.24860  0.14240  0.30130  Biso   1.000  C
  C352     1.0000 0.06580  0.04330  0.45830  Biso   1.000  C
  C353     1.0000 0.07260  0.03930  0.49780  Biso   1.000  C
  H211     1.0000 0.09500  0.01870  0.50830  Biso   1.000  H
  C354     1.0000 0.04650  0.06560  0.52210  Biso   1.000  C
  H212     1.0000 0.05120  0.06290  0.54910  Biso   1.000  H
  C355     1.0000 0.01360  0.09570  0.50690  Biso   1.000  C
  C356     1.0000 0.00680  0.09970  0.46730  Biso   1.000  C
  H213     1.0000 0.98440  0.12030  0.45690  Biso   1.000  H
  C357     1.0000 0.03290  0.07340  0.44310  Biso   1.000  C
  H214     1.0000 0.02820  0.07610  0.41610  Biso   1.000  H
  C358     1.0000 0.98890  0.12620  0.53100  Biso   1.000  C
  N28      1.0000 0.89350  0.21910  0.63520  Biso   1.000  N
  C359     1.0000 0.94130  0.21550  0.63880  Biso   1.000  C
  H215     1.0000 0.95850  0.22850  0.66000  Biso   1.000  H
  C360     1.0000 0.96790  0.19250  0.61160  Biso   1.000  C
  H216     1.0000 0.00280  0.18960  0.61380  Biso   1.000  H
  C361     1.0000 0.93990  0.17410  0.58090  Biso   1.000  C
  C362     1.0000 0.88890  0.17810  0.57670  Biso   1.000  C
  C363     1.0000 0.86610  0.20230  0.60570  Biso   1.000  C
  H217     1.0000 0.83140  0.20680  0.60430  Biso   1.000  H
  C364     1.0000 0.96650  0.14740  0.55240  Biso   1.000  C
  Cu8      1.0000 0.35686  0.24771  0.17660  Biso   1.000  Cu
  Si8      1.0000 0.60396  0.50909  0.42660  Biso   1.000  Si
  C365     1.0000 0.64480  0.47350  0.45820  Biso   1.000  C
  C366     1.0000 0.69410  0.48360  0.46570  Biso   1.000  C
  H218     1.0000 0.70810  0.50810  0.45430  Biso   1.000  H
  C367     1.0000 0.72300  0.45780  0.49000  Biso   1.000  C
  H219     1.0000 0.75670  0.46470  0.49520  Biso   1.000  H
  C368     1.0000 0.70250  0.42200  0.50680  Biso   1.000  C
  C369     1.0000 0.65320  0.41190  0.49930  Biso   1.000  C
  H220     1.0000 0.63920  0.38740  0.51070  Biso   1.000  H
  C370     1.0000 0.62430  0.43770  0.47500  Biso   1.000  C
  H221     1.0000 0.59050  0.43080  0.46990  Biso   1.000  H
  C371     1.0000 0.73260  0.39390  0.53080  Biso   1.000  C
  N29      1.0000 0.82360  0.29190  0.63570  Biso   1.000  N
  C372     1.0000 0.77440  0.29320  0.63420  Biso   1.000  C
  H222     1.0000 0.75660  0.27590  0.65120  Biso   1.000  H
  C373     1.0000 0.74830  0.31970  0.60800  Biso   1.000  C
  H223     1.0000 0.71330  0.32180  0.60730  Biso   1.000  H
  C374     1.0000 0.77750  0.34280  0.58290  Biso   1.000  C
  C375     1.0000 0.82840  0.34000  0.58390  Biso   1.000  C
  H224     1.0000 0.84760  0.35610  0.56680  Biso   1.000  H
  C376     1.0000 0.85060  0.31240  0.61110  Biso   1.000  C
  H225     1.0000 0.88530  0.30840  0.61180  Biso   1.000  H
  C377     1.0000 0.75390  0.37080  0.55280  Biso   1.000  C
  C378     1.0000 0.56490  0.47220  0.39510  Biso   1.000  C
  C379     1.0000 0.51490  0.47910  0.38750  Biso   1.000  C
  H226     1.0000 0.49880  0.50260  0.39900  Biso   1.000  H
  C380     1.0000 0.48840  0.45180  0.36300  Biso   1.000  C
  H227     1.0000 0.45420  0.45660  0.35780  Biso   1.000  H
  C381     1.0000 0.51190  0.41750  0.34610  Biso   1.000  C
  C382     1.0000 0.56200  0.41060  0.35370  Biso   1.000  C
  H228     1.0000 0.57810  0.38720  0.34210  Biso   1.000  H
  C383     1.0000 0.58850  0.43790  0.37820  Biso   1.000  C
  H229     1.0000 0.62270  0.43320  0.38340  Biso   1.000  H
  C384     1.0000 0.48420  0.38990  0.32020  Biso   1.000  C
  N30      1.0000 0.38880  0.28580  0.21730  Biso   1.000  N
  C385     1.0000 0.41680  0.26960  0.24600  Biso   1.000  C
  H230     1.0000 0.41970  0.23940  0.24750  Biso   1.000  H
  C386     1.0000 0.44170  0.29330  0.27370  Biso   1.000  C
  H231     1.0000 0.46150  0.28030  0.29350  Biso   1.000  H
  C387     1.0000 0.43620  0.33800  0.27100  Biso   1.000  C
  C388     1.0000 0.40670  0.35650  0.24140  Biso   1.000  C
  H232     1.0000 0.40210  0.38650  0.23950  Biso   1.000  H
  C389     1.0000 0.38410  0.32780  0.21450  Biso   1.000  C
  H233     1.0000 0.36480  0.33920  0.19370  Biso   1.000  H
  C390     1.0000 0.46370  0.36650  0.29840  Biso   1.000  C
  C391     1.0000 0.64070  0.54380  0.39460  Biso   1.000  C
  C392     1.0000 0.65240  0.58550  0.40540  Biso   1.000  C
  H234     1.0000 0.64110  0.59660  0.42890  Biso   1.000  H
  C393     1.0000 0.68070  0.61080  0.38200  Biso   1.000  C
  H235     1.0000 0.68870  0.63930  0.38940  Biso   1.000  H
  C394     1.0000 0.69740  0.59450  0.34780  Biso   1.000  C
  C395     1.0000 0.68570  0.55290  0.33690  Biso   1.000  C
  H236     1.0000 0.69710  0.54170  0.31350  Biso   1.000  H
  C396     1.0000 0.65740  0.52750  0.36030  Biso   1.000  C
  H237     1.0000 0.64940  0.49900  0.35290  Biso   1.000  H
  C397     1.0000 0.72720  0.61990  0.32200  Biso   1.000  C
  N31      1.0000 0.82240  0.71400  0.21920  Biso   1.000  N
  C398     1.0000 0.82680  0.67180  0.21890  Biso   1.000  C
  H238     1.0000 0.84620  0.65830  0.20020  Biso   1.000  H
  C399     1.0000 0.80290  0.64670  0.24640  Biso   1.000  C
  H239     1.0000 0.80580  0.61650  0.24680  Biso   1.000  H
  C400     1.0000 0.77470  0.66830  0.27290  Biso   1.000  C
  C401     1.0000 0.77100  0.71310  0.27330  Biso   1.000  C
  H240     1.0000 0.75210  0.72770  0.29170  Biso   1.000  H
  C402     1.0000 0.79690  0.73540  0.24490  Biso   1.000  C
  H241     1.0000 0.79600  0.76580  0.24410  Biso   1.000  H
  C403     1.0000 0.74860  0.64240  0.30130  Biso   1.000  C
  C404     1.0000 0.56580  0.54330  0.45830  Biso   1.000  C
  C405     1.0000 0.57260  0.53930  0.49780  Biso   1.000  C
  H242     1.0000 0.59500  0.51870  0.50830  Biso   1.000  H
  C406     1.0000 0.54650  0.56560  0.52210  Biso   1.000  C
  H243     1.0000 0.55120  0.56290  0.54910  Biso   1.000  H
  C407     1.0000 0.51360  0.59570  0.50690  Biso   1.000  C
  C408     1.0000 0.50680  0.59970  0.46730  Biso   1.000  C
  H244     1.0000 0.48440  0.62030  0.45690  Biso   1.000  H
  C409     1.0000 0.53290  0.57340  0.44310  Biso   1.000  C
  H245     1.0000 0.52820  0.57610  0.41610  Biso   1.000  H
  C410     1.0000 0.48890  0.62620  0.53100  Biso   1.000  C
  N32      1.0000 0.39350  0.71910  0.63520  Biso   1.000  N
  C411     1.0000 0.44130  0.71550  0.63880  Biso   1.000  C
  H246     1.0000 0.45850  0.72850  0.66000  Biso   1.000  H
  C412     1.0000 0.46790  0.69250  0.61160  Biso   1.000  C
  H247     1.0000 0.50280  0.68960  0.61380  Biso   1.000  H
  C413     1.0000 0.43990  0.67410  0.58090  Biso   1.000  C
  C414     1.0000 0.38890  0.67810  0.57670  Biso   1.000  C
  C415     1.0000 0.36610  0.70230  0.60570  Biso   1.000  C
  H248     1.0000 0.33140  0.70680  0.60430  Biso   1.000  H
  C416     1.0000 0.46650  0.64740  0.55240  Biso   1.000  C
