data_image0
_cell_length_a       30.5765
_cell_length_b       28.363
_cell_length_c       12.2756
_cell_angle_alpha    90
_cell_angle_beta     90
_cell_angle_gamma    90

_symmetry_space_group_name_H-M    "P 1"
_symmetry_int_tables_number       1

loop_
  _symmetry_equiv_pos_as_xyz
  'x, y, z'

loop_
  _atom_site_label
  _atom_site_occupancy
  _atom_site_fract_x
  _atom_site_fract_y
  _atom_site_fract_z
  _atom_site_thermal_displace_type
  _atom_site_B_iso_or_equiv
  _atom_site_type_symbol
  N1       1.0000 0.42976  0.07759  0.51680  Biso   1.000  N
  N2       1.0000 0.58713  0.92533  0.97090  Biso   1.000  N
  C1       1.0000 0.41570  0.03707  0.47480  Biso   1.000  C
  H1       1.0000 0.38800  0.02660  0.49450  Biso   1.000  H
  C2       1.0000 0.43967  0.00972  0.40370  Biso   1.000  C
  H2       1.0000 0.42790  0.98190  0.37650  Biso   1.000  H
  C3       1.0000 0.48052  0.02339  0.37330  Biso   1.000  C
  C4       1.0000 0.49588  0.06498  0.41780  Biso   1.000  C
  H3       1.0000 0.52380  0.07570  0.40050  Biso   1.000  H
  C5       1.0000 0.46982  0.09041  0.48790  Biso   1.000  C
  H4       1.0000 0.48100  0.11820  0.51670  Biso   1.000  H
  C6       1.0000 0.59750  0.96939  0.99990  Biso   1.000  C
  H5       1.0000 0.62370  0.98190  0.97440  Biso   1.000  H
  C7       1.0000 0.57173  0.99733  0.06540  Biso   1.000  C
  H6       1.0000 0.58080  0.02760  0.08360  Biso   1.000  H
  C8       1.0000 0.53245  0.98026  0.10400  Biso   1.000  C
  C9       1.0000 0.52106  0.93524  0.07170  Biso   1.000  C
  H7       1.0000 0.49460  0.92230  0.09430  Biso   1.000  H
  C10      1.0000 0.54857  0.90955  0.00640  Biso   1.000  C
  H8       1.0000 0.53990  0.87940  0.98570  Biso   1.000  H
  C11      1.0000 0.50853  0.99476  0.29670  Biso   1.000  C
  H9       1.0000 0.50090  0.96170  0.30430  Biso   1.000  H
  H10      1.0000 0.53890  0.99830  0.31760  Biso   1.000  H
  C12      1.0000 0.50356  0.00887  0.17830  Biso   1.000  C
  H11      1.0000 0.51080  0.04200  0.17050  Biso   1.000  H
  H12      1.0000 0.47330  0.00480  0.15650  Biso   1.000  H
  N3       1.0000 0.42976  0.57759  0.01680  Biso   1.000  N
  N4       1.0000 0.58713  0.42533  0.47090  Biso   1.000  N
  C13      1.0000 0.41570  0.53707  0.97480  Biso   1.000  C
  H13      1.0000 0.38800  0.52660  0.99450  Biso   1.000  H
  C14      1.0000 0.43967  0.50972  0.90370  Biso   1.000  C
  H14      1.0000 0.42790  0.48190  0.87650  Biso   1.000  H
  C15      1.0000 0.48052  0.52339  0.87330  Biso   1.000  C
  C16      1.0000 0.49588  0.56498  0.91780  Biso   1.000  C
  H15      1.0000 0.52380  0.57570  0.90050  Biso   1.000  H
  C17      1.0000 0.46982  0.59041  0.98790  Biso   1.000  C
  H16      1.0000 0.48100  0.61820  0.01670  Biso   1.000  H
  C18      1.0000 0.59750  0.46939  0.49990  Biso   1.000  C
  H17      1.0000 0.62370  0.48190  0.47440  Biso   1.000  H
  C19      1.0000 0.57173  0.49733  0.56540  Biso   1.000  C
  H18      1.0000 0.58080  0.52760  0.58360  Biso   1.000  H
  C20      1.0000 0.53245  0.48026  0.60400  Biso   1.000  C
  C21      1.0000 0.52106  0.43524  0.57170  Biso   1.000  C
  H19      1.0000 0.49460  0.42230  0.59430  Biso   1.000  H
  C22      1.0000 0.54857  0.40955  0.50640  Biso   1.000  C
  H20      1.0000 0.53990  0.37940  0.48570  Biso   1.000  H
  C23      1.0000 0.50853  0.49476  0.79670  Biso   1.000  C
  H21      1.0000 0.50090  0.46170  0.80430  Biso   1.000  H
  H22      1.0000 0.53890  0.49830  0.81760  Biso   1.000  H
  C24      1.0000 0.50356  0.50887  0.67830  Biso   1.000  C
  H23      1.0000 0.51080  0.54200  0.67050  Biso   1.000  H
  H24      1.0000 0.47330  0.50480  0.65650  Biso   1.000  H
  N5       1.0000 0.92976  0.07759  0.01680  Biso   1.000  N
  N6       1.0000 0.08713  0.92533  0.47090  Biso   1.000  N
  C25      1.0000 0.91570  0.03707  0.97480  Biso   1.000  C
  H25      1.0000 0.88800  0.02660  0.99450  Biso   1.000  H
  C26      1.0000 0.93967  0.00972  0.90370  Biso   1.000  C
  H26      1.0000 0.92790  0.98190  0.87650  Biso   1.000  H
  C27      1.0000 0.98052  0.02339  0.87330  Biso   1.000  C
  C28      1.0000 0.99588  0.06498  0.91780  Biso   1.000  C
  H27      1.0000 0.02380  0.07570  0.90050  Biso   1.000  H
  C29      1.0000 0.96982  0.09041  0.98790  Biso   1.000  C
  H28      1.0000 0.98100  0.11820  0.01670  Biso   1.000  H
  C30      1.0000 0.09750  0.96939  0.49990  Biso   1.000  C
  H29      1.0000 0.12370  0.98190  0.47440  Biso   1.000  H
  C31      1.0000 0.07173  0.99733  0.56540  Biso   1.000  C
  H30      1.0000 0.08080  0.02760  0.58360  Biso   1.000  H
  C32      1.0000 0.03245  0.98026  0.60400  Biso   1.000  C
  C33      1.0000 0.02106  0.93524  0.57170  Biso   1.000  C
  H31      1.0000 0.99460  0.92230  0.59430  Biso   1.000  H
  C34      1.0000 0.04857  0.90955  0.50640  Biso   1.000  C
  H32      1.0000 0.03990  0.87940  0.48570  Biso   1.000  H
  C35      1.0000 0.00853  0.99476  0.79670  Biso   1.000  C
  H33      1.0000 0.00090  0.96170  0.80430  Biso   1.000  H
  H34      1.0000 0.03890  0.99830  0.81760  Biso   1.000  H
  C36      1.0000 0.00356  0.00887  0.67830  Biso   1.000  C
  H35      1.0000 0.01080  0.04200  0.67050  Biso   1.000  H
  H36      1.0000 0.97330  0.00480  0.65650  Biso   1.000  H
  N7       1.0000 0.92976  0.57759  0.51680  Biso   1.000  N
  N8       1.0000 0.08713  0.42533  0.97090  Biso   1.000  N
  C37      1.0000 0.91570  0.53707  0.47480  Biso   1.000  C
  H37      1.0000 0.88800  0.52660  0.49450  Biso   1.000  H
  C38      1.0000 0.93967  0.50972  0.40370  Biso   1.000  C
  H38      1.0000 0.92790  0.48190  0.37650  Biso   1.000  H
  C39      1.0000 0.98052  0.52339  0.37330  Biso   1.000  C
  C40      1.0000 0.99588  0.56498  0.41780  Biso   1.000  C
  H39      1.0000 0.02380  0.57570  0.40050  Biso   1.000  H
  C41      1.0000 0.96982  0.59041  0.48790  Biso   1.000  C
  H40      1.0000 0.98100  0.61820  0.51670  Biso   1.000  H
  C42      1.0000 0.09750  0.46939  0.99990  Biso   1.000  C
  H41      1.0000 0.12370  0.48190  0.97440  Biso   1.000  H
  C43      1.0000 0.07173  0.49733  0.06540  Biso   1.000  C
  H42      1.0000 0.08080  0.52760  0.08360  Biso   1.000  H
  C44      1.0000 0.03245  0.48026  0.10400  Biso   1.000  C
  C45      1.0000 0.02106  0.43524  0.07170  Biso   1.000  C
  H43      1.0000 0.99460  0.42230  0.09430  Biso   1.000  H
  C46      1.0000 0.04857  0.40955  0.00640  Biso   1.000  C
  H44      1.0000 0.03990  0.37940  0.98570  Biso   1.000  H
  C47      1.0000 0.00853  0.49476  0.29670  Biso   1.000  C
  H45      1.0000 0.00090  0.46170  0.30430  Biso   1.000  H
  H46      1.0000 0.03890  0.49830  0.31760  Biso   1.000  H
  C48      1.0000 0.00356  0.50887  0.17830  Biso   1.000  C
  H47      1.0000 0.01080  0.54200  0.17050  Biso   1.000  H
  H48      1.0000 0.97330  0.50480  0.15650  Biso   1.000  H
  N9       1.0000 0.42976  0.67241  0.23320  Biso   1.000  N
  N10      1.0000 0.58713  0.82467  0.77910  Biso   1.000  N
  C49      1.0000 0.41570  0.71293  0.27520  Biso   1.000  C
  H49      1.0000 0.38800  0.72340  0.25550  Biso   1.000  H
  C50      1.0000 0.43967  0.74028  0.34630  Biso   1.000  C
  H50      1.0000 0.42790  0.76810  0.37350  Biso   1.000  H
  C51      1.0000 0.48052  0.72661  0.37670  Biso   1.000  C
  C52      1.0000 0.49588  0.68502  0.33220  Biso   1.000  C
  H51      1.0000 0.52380  0.67430  0.34950  Biso   1.000  H
  C53      1.0000 0.46982  0.65959  0.26210  Biso   1.000  C
  H52      1.0000 0.48100  0.63180  0.23330  Biso   1.000  H
  C54      1.0000 0.59750  0.78061  0.75010  Biso   1.000  C
  H53      1.0000 0.62370  0.76810  0.77560  Biso   1.000  H
  C55      1.0000 0.57173  0.75267  0.68460  Biso   1.000  C
  H54      1.0000 0.58080  0.72240  0.66640  Biso   1.000  H
  C56      1.0000 0.53245  0.76974  0.64600  Biso   1.000  C
  C57      1.0000 0.52106  0.81476  0.67830  Biso   1.000  C
  H55      1.0000 0.49460  0.82770  0.65570  Biso   1.000  H
  C58      1.0000 0.54857  0.84045  0.74360  Biso   1.000  C
  H56      1.0000 0.53990  0.87060  0.76430  Biso   1.000  H
  C59      1.0000 0.50853  0.75524  0.45330  Biso   1.000  C
  H57      1.0000 0.50090  0.78830  0.44570  Biso   1.000  H
  H58      1.0000 0.53890  0.75170  0.43240  Biso   1.000  H
  C60      1.0000 0.50356  0.74113  0.57170  Biso   1.000  C
  H59      1.0000 0.51080  0.70800  0.57950  Biso   1.000  H
  H60      1.0000 0.47330  0.74520  0.59350  Biso   1.000  H
  N11      1.0000 0.42976  0.17241  0.73320  Biso   1.000  N
  N12      1.0000 0.58713  0.32467  0.27910  Biso   1.000  N
  C61      1.0000 0.41570  0.21293  0.77520  Biso   1.000  C
  H61      1.0000 0.38800  0.22340  0.75550  Biso   1.000  H
  C62      1.0000 0.43967  0.24028  0.84630  Biso   1.000  C
  H62      1.0000 0.42790  0.26810  0.87350  Biso   1.000  H
  C63      1.0000 0.48052  0.22661  0.87670  Biso   1.000  C
  C64      1.0000 0.49588  0.18502  0.83220  Biso   1.000  C
  H63      1.0000 0.52380  0.17430  0.84950  Biso   1.000  H
  C65      1.0000 0.46982  0.15959  0.76210  Biso   1.000  C
  H64      1.0000 0.48100  0.13180  0.73330  Biso   1.000  H
  C66      1.0000 0.59750  0.28061  0.25010  Biso   1.000  C
  H65      1.0000 0.62370  0.26810  0.27560  Biso   1.000  H
  C67      1.0000 0.57173  0.25267  0.18460  Biso   1.000  C
  H66      1.0000 0.58080  0.22240  0.16640  Biso   1.000  H
  C68      1.0000 0.53245  0.26974  0.14600  Biso   1.000  C
  C69      1.0000 0.52106  0.31476  0.17830  Biso   1.000  C
  H67      1.0000 0.49460  0.32770  0.15570  Biso   1.000  H
  C70      1.0000 0.54857  0.34045  0.24360  Biso   1.000  C
  H68      1.0000 0.53990  0.37060  0.26430  Biso   1.000  H
  C71      1.0000 0.50853  0.25524  0.95330  Biso   1.000  C
  H69      1.0000 0.50090  0.28830  0.94570  Biso   1.000  H
  H70      1.0000 0.53890  0.25170  0.93240  Biso   1.000  H
  C72      1.0000 0.50356  0.24113  0.07170  Biso   1.000  C
  H71      1.0000 0.51080  0.20800  0.07950  Biso   1.000  H
  H72      1.0000 0.47330  0.24520  0.09350  Biso   1.000  H
  N13      1.0000 0.92976  0.67241  0.73320  Biso   1.000  N
  N14      1.0000 0.08713  0.82467  0.27910  Biso   1.000  N
  C73      1.0000 0.91570  0.71293  0.77520  Biso   1.000  C
  H73      1.0000 0.88800  0.72340  0.75550  Biso   1.000  H
  C74      1.0000 0.93967  0.74028  0.84630  Biso   1.000  C
  H74      1.0000 0.92790  0.76810  0.87350  Biso   1.000  H
  C75      1.0000 0.98052  0.72661  0.87670  Biso   1.000  C
  C76      1.0000 0.99588  0.68502  0.83220  Biso   1.000  C
  H75      1.0000 0.02380  0.67430  0.84950  Biso   1.000  H
  C77      1.0000 0.96982  0.65959  0.76210  Biso   1.000  C
  H76      1.0000 0.98100  0.63180  0.73330  Biso   1.000  H
  C78      1.0000 0.09750  0.78061  0.25010  Biso   1.000  C
  H77      1.0000 0.12370  0.76810  0.27560  Biso   1.000  H
  C79      1.0000 0.07173  0.75267  0.18460  Biso   1.000  C
  H78      1.0000 0.08080  0.72240  0.16640  Biso   1.000  H
  C80      1.0000 0.03245  0.76974  0.14600  Biso   1.000  C
  C81      1.0000 0.02106  0.81476  0.17830  Biso   1.000  C
  H79      1.0000 0.99460  0.82770  0.15570  Biso   1.000  H
  C82      1.0000 0.04857  0.84045  0.24360  Biso   1.000  C
  H80      1.0000 0.03990  0.87060  0.26430  Biso   1.000  H
  C83      1.0000 0.00853  0.75524  0.95330  Biso   1.000  C
  H81      1.0000 0.00090  0.78830  0.94570  Biso   1.000  H
  H82      1.0000 0.03890  0.75170  0.93240  Biso   1.000  H
  C84      1.0000 0.00356  0.74113  0.07170  Biso   1.000  C
  H83      1.0000 0.01080  0.70800  0.07950  Biso   1.000  H
  H84      1.0000 0.97330  0.74520  0.09350  Biso   1.000  H
  N15      1.0000 0.92976  0.17241  0.23320  Biso   1.000  N
  N16      1.0000 0.08713  0.32467  0.77910  Biso   1.000  N
  C85      1.0000 0.91570  0.21293  0.27520  Biso   1.000  C
  H85      1.0000 0.88800  0.22340  0.25550  Biso   1.000  H
  C86      1.0000 0.93967  0.24028  0.34630  Biso   1.000  C
  H86      1.0000 0.92790  0.26810  0.37350  Biso   1.000  H
  C87      1.0000 0.98052  0.22661  0.37670  Biso   1.000  C
  C88      1.0000 0.99588  0.18502  0.33220  Biso   1.000  C
  H87      1.0000 0.02380  0.17430  0.34950  Biso   1.000  H
  C89      1.0000 0.96982  0.15959  0.26210  Biso   1.000  C
  H88      1.0000 0.98100  0.13180  0.23330  Biso   1.000  H
  C90      1.0000 0.09750  0.28061  0.75010  Biso   1.000  C
  H89      1.0000 0.12370  0.26810  0.77560  Biso   1.000  H
  C91      1.0000 0.07173  0.25267  0.68460  Biso   1.000  C
  H90      1.0000 0.08080  0.22240  0.66640  Biso   1.000  H
  C92      1.0000 0.03245  0.26974  0.64600  Biso   1.000  C
  C93      1.0000 0.02106  0.31476  0.67830  Biso   1.000  C
  H91      1.0000 0.99460  0.32770  0.65570  Biso   1.000  H
  C94      1.0000 0.04857  0.34045  0.74360  Biso   1.000  C
  H92      1.0000 0.03990  0.37060  0.76430  Biso   1.000  H
  C95      1.0000 0.00853  0.25524  0.45330  Biso   1.000  C
  H93      1.0000 0.00090  0.28830  0.44570  Biso   1.000  H
  H94      1.0000 0.03890  0.25170  0.43240  Biso   1.000  H
  C96      1.0000 0.00356  0.24113  0.57170  Biso   1.000  C
  H95      1.0000 0.01080  0.20800  0.57950  Biso   1.000  H
  H96      1.0000 0.97330  0.24520  0.59350  Biso   1.000  H
  N17      1.0000 0.67976  0.32759  0.48320  Biso   1.000  N
  N18      1.0000 0.83713  0.17533  0.02910  Biso   1.000  N
  C97      1.0000 0.66570  0.28707  0.52520  Biso   1.000  C
  H97      1.0000 0.63800  0.27660  0.50550  Biso   1.000  H
  C98      1.0000 0.68967  0.25972  0.59630  Biso   1.000  C
  H98      1.0000 0.67790  0.23190  0.62350  Biso   1.000  H
  C99      1.0000 0.73052  0.27339  0.62670  Biso   1.000  C
  C100     1.0000 0.74588  0.31498  0.58220  Biso   1.000  C
  H99      1.0000 0.77380  0.32570  0.59950  Biso   1.000  H
  C101     1.0000 0.71982  0.34041  0.51210  Biso   1.000  C
  H100     1.0000 0.73100  0.36820  0.48330  Biso   1.000  H
  C102     1.0000 0.84750  0.21939  0.00010  Biso   1.000  C
  H101     1.0000 0.87370  0.23190  0.02560  Biso   1.000  H
  C103     1.0000 0.82173  0.24733  0.93460  Biso   1.000  C
  H102     1.0000 0.83080  0.27760  0.91640  Biso   1.000  H
  C104     1.0000 0.78245  0.23026  0.89600  Biso   1.000  C
  C105     1.0000 0.77106  0.18524  0.92830  Biso   1.000  C
  H103     1.0000 0.74460  0.17230  0.90570  Biso   1.000  H
  C106     1.0000 0.79857  0.15955  0.99360  Biso   1.000  C
  H104     1.0000 0.78990  0.12940  0.01430  Biso   1.000  H
  C107     1.0000 0.75853  0.24476  0.70330  Biso   1.000  C
  H105     1.0000 0.75090  0.21170  0.69570  Biso   1.000  H
  H106     1.0000 0.78890  0.24830  0.68240  Biso   1.000  H
  C108     1.0000 0.75356  0.25887  0.82170  Biso   1.000  C
  H107     1.0000 0.76080  0.29200  0.82950  Biso   1.000  H
  H108     1.0000 0.72330  0.25480  0.84350  Biso   1.000  H
  N19      1.0000 0.67976  0.82759  0.98320  Biso   1.000  N
  N20      1.0000 0.83713  0.67533  0.52910  Biso   1.000  N
  C109     1.0000 0.66570  0.78707  0.02520  Biso   1.000  C
  H109     1.0000 0.63800  0.77660  0.00550  Biso   1.000  H
  C110     1.0000 0.68967  0.75972  0.09630  Biso   1.000  C
  H110     1.0000 0.67790  0.73190  0.12350  Biso   1.000  H
  C111     1.0000 0.73052  0.77339  0.12670  Biso   1.000  C
  C112     1.0000 0.74588  0.81498  0.08220  Biso   1.000  C
  H111     1.0000 0.77380  0.82570  0.09950  Biso   1.000  H
  C113     1.0000 0.71982  0.84041  0.01210  Biso   1.000  C
  H112     1.0000 0.73100  0.86820  0.98330  Biso   1.000  H
  C114     1.0000 0.84750  0.71939  0.50010  Biso   1.000  C
  H113     1.0000 0.87370  0.73190  0.52560  Biso   1.000  H
  C115     1.0000 0.82173  0.74733  0.43460  Biso   1.000  C
  H114     1.0000 0.83080  0.77760  0.41640  Biso   1.000  H
  C116     1.0000 0.78245  0.73026  0.39600  Biso   1.000  C
  C117     1.0000 0.77106  0.68524  0.42830  Biso   1.000  C
  H115     1.0000 0.74460  0.67230  0.40570  Biso   1.000  H
  C118     1.0000 0.79857  0.65955  0.49360  Biso   1.000  C
  H116     1.0000 0.78990  0.62940  0.51430  Biso   1.000  H
  C119     1.0000 0.75853  0.74476  0.20330  Biso   1.000  C
  H117     1.0000 0.75090  0.71170  0.19570  Biso   1.000  H
  H118     1.0000 0.78890  0.74830  0.18240  Biso   1.000  H
  C120     1.0000 0.75356  0.75887  0.32170  Biso   1.000  C
  H119     1.0000 0.76080  0.79200  0.32950  Biso   1.000  H
  H120     1.0000 0.72330  0.75480  0.34350  Biso   1.000  H
  N21      1.0000 0.17976  0.32759  0.98320  Biso   1.000  N
  N22      1.0000 0.33713  0.17533  0.52910  Biso   1.000  N
  C121     1.0000 0.16570  0.28707  0.02520  Biso   1.000  C
  H121     1.0000 0.13800  0.27660  0.00550  Biso   1.000  H
  C122     1.0000 0.18967  0.25972  0.09630  Biso   1.000  C
  H122     1.0000 0.17790  0.23190  0.12350  Biso   1.000  H
  C123     1.0000 0.23052  0.27339  0.12670  Biso   1.000  C
  C124     1.0000 0.24588  0.31498  0.08220  Biso   1.000  C
  H123     1.0000 0.27380  0.32570  0.09950  Biso   1.000  H
  C125     1.0000 0.21982  0.34041  0.01210  Biso   1.000  C
  H124     1.0000 0.23100  0.36820  0.98330  Biso   1.000  H
  C126     1.0000 0.34750  0.21939  0.50010  Biso   1.000  C
  H125     1.0000 0.37370  0.23190  0.52560  Biso   1.000  H
  C127     1.0000 0.32173  0.24733  0.43460  Biso   1.000  C
  H126     1.0000 0.33080  0.27760  0.41640  Biso   1.000  H
  C128     1.0000 0.28245  0.23026  0.39600  Biso   1.000  C
  C129     1.0000 0.27106  0.18524  0.42830  Biso   1.000  C
  H127     1.0000 0.24460  0.17230  0.40570  Biso   1.000  H
  C130     1.0000 0.29857  0.15955  0.49360  Biso   1.000  C
  H128     1.0000 0.28990  0.12940  0.51430  Biso   1.000  H
  C131     1.0000 0.25853  0.24476  0.20330  Biso   1.000  C
  H129     1.0000 0.25090  0.21170  0.19570  Biso   1.000  H
  H130     1.0000 0.28890  0.24830  0.18240  Biso   1.000  H
  C132     1.0000 0.25356  0.25887  0.32170  Biso   1.000  C
  H131     1.0000 0.26080  0.29200  0.32950  Biso   1.000  H
  H132     1.0000 0.22330  0.25480  0.34350  Biso   1.000  H
  N23      1.0000 0.17976  0.82759  0.48320  Biso   1.000  N
  N24      1.0000 0.33713  0.67533  0.02910  Biso   1.000  N
  C133     1.0000 0.16570  0.78707  0.52520  Biso   1.000  C
  H133     1.0000 0.13800  0.77660  0.50550  Biso   1.000  H
  C134     1.0000 0.18967  0.75972  0.59630  Biso   1.000  C
  H134     1.0000 0.17790  0.73190  0.62350  Biso   1.000  H
  C135     1.0000 0.23052  0.77339  0.62670  Biso   1.000  C
  C136     1.0000 0.24588  0.81498  0.58220  Biso   1.000  C
  H135     1.0000 0.27380  0.82570  0.59950  Biso   1.000  H
  C137     1.0000 0.21982  0.84041  0.51210  Biso   1.000  C
  H136     1.0000 0.23100  0.86820  0.48330  Biso   1.000  H
  C138     1.0000 0.34750  0.71939  0.00010  Biso   1.000  C
  H137     1.0000 0.37370  0.73190  0.02560  Biso   1.000  H
  C139     1.0000 0.32173  0.74733  0.93460  Biso   1.000  C
  H138     1.0000 0.33080  0.77760  0.91640  Biso   1.000  H
  C140     1.0000 0.28245  0.73026  0.89600  Biso   1.000  C
  C141     1.0000 0.27106  0.68524  0.92830  Biso   1.000  C
  H139     1.0000 0.24460  0.67230  0.90570  Biso   1.000  H
  C142     1.0000 0.29857  0.65955  0.99360  Biso   1.000  C
  H140     1.0000 0.28990  0.62940  0.01430  Biso   1.000  H
  C143     1.0000 0.25853  0.74476  0.70330  Biso   1.000  C
  H141     1.0000 0.25090  0.71170  0.69570  Biso   1.000  H
  H142     1.0000 0.28890  0.74830  0.68240  Biso   1.000  H
  C144     1.0000 0.25356  0.75887  0.82170  Biso   1.000  C
  H143     1.0000 0.26080  0.79200  0.82950  Biso   1.000  H
  H144     1.0000 0.22330  0.75480  0.84350  Biso   1.000  H
  N25      1.0000 0.67976  0.92241  0.76680  Biso   1.000  N
  N26      1.0000 0.83713  0.07467  0.22090  Biso   1.000  N
  C145     1.0000 0.66570  0.96293  0.72480  Biso   1.000  C
  H145     1.0000 0.63800  0.97340  0.74450  Biso   1.000  H
  C146     1.0000 0.68967  0.99028  0.65370  Biso   1.000  C
  H146     1.0000 0.67790  0.01810  0.62650  Biso   1.000  H
  C147     1.0000 0.73052  0.97661  0.62330  Biso   1.000  C
  C148     1.0000 0.74588  0.93502  0.66780  Biso   1.000  C
  H147     1.0000 0.77380  0.92430  0.65050  Biso   1.000  H
  C149     1.0000 0.71982  0.90959  0.73790  Biso   1.000  C
  H148     1.0000 0.73100  0.88180  0.76670  Biso   1.000  H
  C150     1.0000 0.84750  0.03061  0.24990  Biso   1.000  C
  H149     1.0000 0.87370  0.01810  0.22440  Biso   1.000  H
  C151     1.0000 0.82173  0.00267  0.31540  Biso   1.000  C
  H150     1.0000 0.83080  0.97240  0.33360  Biso   1.000  H
  C152     1.0000 0.78245  0.01974  0.35400  Biso   1.000  C
  C153     1.0000 0.77106  0.06476  0.32170  Biso   1.000  C
  H151     1.0000 0.74460  0.07770  0.34430  Biso   1.000  H
  C154     1.0000 0.79857  0.09045  0.25640  Biso   1.000  C
  H152     1.0000 0.78990  0.12060  0.23570  Biso   1.000  H
  C155     1.0000 0.75853  0.00524  0.54670  Biso   1.000  C
  H153     1.0000 0.75090  0.03830  0.55430  Biso   1.000  H
  H154     1.0000 0.78890  0.00170  0.56760  Biso   1.000  H
  C156     1.0000 0.75356  0.99113  0.42830  Biso   1.000  C
  H155     1.0000 0.76080  0.95800  0.42050  Biso   1.000  H
  H156     1.0000 0.72330  0.99520  0.40650  Biso   1.000  H
  N27      1.0000 0.67976  0.42241  0.26680  Biso   1.000  N
  N28      1.0000 0.83713  0.57467  0.72090  Biso   1.000  N
  C157     1.0000 0.66570  0.46293  0.22480  Biso   1.000  C
  H157     1.0000 0.63800  0.47340  0.24450  Biso   1.000  H
  C158     1.0000 0.68967  0.49028  0.15370  Biso   1.000  C
  H158     1.0000 0.67790  0.51810  0.12650  Biso   1.000  H
  C159     1.0000 0.73052  0.47661  0.12330  Biso   1.000  C
  C160     1.0000 0.74588  0.43502  0.16780  Biso   1.000  C
  H159     1.0000 0.77380  0.42430  0.15050  Biso   1.000  H
  C161     1.0000 0.71982  0.40959  0.23790  Biso   1.000  C
  H160     1.0000 0.73100  0.38180  0.26670  Biso   1.000  H
  C162     1.0000 0.84750  0.53061  0.74990  Biso   1.000  C
  H161     1.0000 0.87370  0.51810  0.72440  Biso   1.000  H
  C163     1.0000 0.82173  0.50267  0.81540  Biso   1.000  C
  H162     1.0000 0.83080  0.47240  0.83360  Biso   1.000  H
  C164     1.0000 0.78245  0.51974  0.85400  Biso   1.000  C
  C165     1.0000 0.77106  0.56476  0.82170  Biso   1.000  C
  H163     1.0000 0.74460  0.57770  0.84430  Biso   1.000  H
  C166     1.0000 0.79857  0.59045  0.75640  Biso   1.000  C
  H164     1.0000 0.78990  0.62060  0.73570  Biso   1.000  H
  C167     1.0000 0.75853  0.50524  0.04670  Biso   1.000  C
  H165     1.0000 0.75090  0.53830  0.05430  Biso   1.000  H
  H166     1.0000 0.78890  0.50170  0.06760  Biso   1.000  H
  C168     1.0000 0.75356  0.49113  0.92830  Biso   1.000  C
  H167     1.0000 0.76080  0.45800  0.92050  Biso   1.000  H
  H168     1.0000 0.72330  0.49520  0.90650  Biso   1.000  H
  N29      1.0000 0.17976  0.92241  0.26680  Biso   1.000  N
  N30      1.0000 0.33713  0.07467  0.72090  Biso   1.000  N
  C169     1.0000 0.16570  0.96293  0.22480  Biso   1.000  C
  H169     1.0000 0.13800  0.97340  0.24450  Biso   1.000  H
  C170     1.0000 0.18967  0.99028  0.15370  Biso   1.000  C
  H170     1.0000 0.17790  0.01810  0.12650  Biso   1.000  H
  C171     1.0000 0.23052  0.97661  0.12330  Biso   1.000  C
  C172     1.0000 0.24588  0.93502  0.16780  Biso   1.000  C
  H171     1.0000 0.27380  0.92430  0.15050  Biso   1.000  H
  C173     1.0000 0.21982  0.90959  0.23790  Biso   1.000  C
  H172     1.0000 0.23100  0.88180  0.26670  Biso   1.000  H
  C174     1.0000 0.34750  0.03061  0.74990  Biso   1.000  C
  H173     1.0000 0.37370  0.01810  0.72440  Biso   1.000  H
  C175     1.0000 0.32173  0.00267  0.81540  Biso   1.000  C
  H174     1.0000 0.33080  0.97240  0.83360  Biso   1.000  H
  C176     1.0000 0.28245  0.01974  0.85400  Biso   1.000  C
  C177     1.0000 0.27106  0.06476  0.82170  Biso   1.000  C
  H175     1.0000 0.24460  0.07770  0.84430  Biso   1.000  H
  C178     1.0000 0.29857  0.09045  0.75640  Biso   1.000  C
  H176     1.0000 0.28990  0.12060  0.73570  Biso   1.000  H
  C179     1.0000 0.25853  0.00524  0.04670  Biso   1.000  C
  H177     1.0000 0.25090  0.03830  0.05430  Biso   1.000  H
  H178     1.0000 0.28890  0.00170  0.06760  Biso   1.000  H
  C180     1.0000 0.25356  0.99113  0.92830  Biso   1.000  C
  H179     1.0000 0.26080  0.95800  0.92050  Biso   1.000  H
  H180     1.0000 0.22330  0.99520  0.90650  Biso   1.000  H
  N31      1.0000 0.17976  0.42241  0.76680  Biso   1.000  N
  N32      1.0000 0.33713  0.57467  0.22090  Biso   1.000  N
  C181     1.0000 0.16570  0.46293  0.72480  Biso   1.000  C
  H181     1.0000 0.13800  0.47340  0.74450  Biso   1.000  H
  C182     1.0000 0.18967  0.49028  0.65370  Biso   1.000  C
  H182     1.0000 0.17790  0.51810  0.62650  Biso   1.000  H
  C183     1.0000 0.23052  0.47661  0.62330  Biso   1.000  C
  C184     1.0000 0.24588  0.43502  0.66780  Biso   1.000  C
  H183     1.0000 0.27380  0.42430  0.65050  Biso   1.000  H
  C185     1.0000 0.21982  0.40959  0.73790  Biso   1.000  C
  H184     1.0000 0.23100  0.38180  0.76670  Biso   1.000  H
  C186     1.0000 0.34750  0.53061  0.24990  Biso   1.000  C
  H185     1.0000 0.37370  0.51810  0.22440  Biso   1.000  H
  C187     1.0000 0.32173  0.50267  0.31540  Biso   1.000  C
  H186     1.0000 0.33080  0.47240  0.33360  Biso   1.000  H
  C188     1.0000 0.28245  0.51974  0.35400  Biso   1.000  C
  C189     1.0000 0.27106  0.56476  0.32170  Biso   1.000  C
  H187     1.0000 0.24460  0.57770  0.34430  Biso   1.000  H
  C190     1.0000 0.29857  0.59045  0.25640  Biso   1.000  C
  H188     1.0000 0.28990  0.62060  0.23570  Biso   1.000  H
  C191     1.0000 0.25853  0.50524  0.54670  Biso   1.000  C
  H189     1.0000 0.25090  0.53830  0.55430  Biso   1.000  H
  H190     1.0000 0.28890  0.50170  0.56760  Biso   1.000  H
  C192     1.0000 0.25356  0.49113  0.42830  Biso   1.000  C
  H191     1.0000 0.26080  0.45800  0.42050  Biso   1.000  H
  H192     1.0000 0.22330  0.49520  0.40650  Biso   1.000  H
  Ag1      1.0000 0.38446  0.12500  0.62500  Biso   1.000  Ag
  Ag2      1.0000 0.88446  0.12500  0.12500  Biso   1.000  Ag
  Ag3      1.0000 0.88446  0.62500  0.62500  Biso   1.000  Ag
  Ag4      1.0000 0.38446  0.62500  0.12500  Biso   1.000  Ag
  Ag5      1.0000 0.63446  0.37500  0.37500  Biso   1.000  Ag
  Ag6      1.0000 0.13446  0.37500  0.87500  Biso   1.000  Ag
  Ag7      1.0000 0.63446  0.87500  0.87500  Biso   1.000  Ag
  Ag8      1.0000 0.13446  0.87500  0.37500  Biso   1.000  Ag
  N33      1.0000 0.32024  0.67241  0.51680  Biso   1.000  N
  N34      1.0000 0.16287  0.82467  0.97090  Biso   1.000  N
  C193     1.0000 0.33430  0.71293  0.47480  Biso   1.000  C
  H193     1.0000 0.36200  0.72340  0.49450  Biso   1.000  H
  C194     1.0000 0.31033  0.74028  0.40370  Biso   1.000  C
  H194     1.0000 0.32210  0.76810  0.37650  Biso   1.000  H
  C195     1.0000 0.26948  0.72661  0.37330  Biso   1.000  C
  C196     1.0000 0.25412  0.68502  0.41780  Biso   1.000  C
  H195     1.0000 0.22620  0.67430  0.40050  Biso   1.000  H
  C197     1.0000 0.28018  0.65959  0.48790  Biso   1.000  C
  H196     1.0000 0.26900  0.63180  0.51670  Biso   1.000  H
  C198     1.0000 0.15250  0.78061  0.99990  Biso   1.000  C
  H197     1.0000 0.12630  0.76810  0.97440  Biso   1.000  H
  C199     1.0000 0.17827  0.75267  0.06540  Biso   1.000  C
  H198     1.0000 0.16920  0.72240  0.08360  Biso   1.000  H
  C200     1.0000 0.21755  0.76974  0.10400  Biso   1.000  C
  C201     1.0000 0.22894  0.81476  0.07170  Biso   1.000  C
  H199     1.0000 0.25540  0.82770  0.09430  Biso   1.000  H
  C202     1.0000 0.20143  0.84045  0.00640  Biso   1.000  C
  H200     1.0000 0.21010  0.87060  0.98570  Biso   1.000  H
  C203     1.0000 0.24147  0.75524  0.29670  Biso   1.000  C
  H201     1.0000 0.24910  0.78830  0.30430  Biso   1.000  H
  H202     1.0000 0.21110  0.75170  0.31760  Biso   1.000  H
  C204     1.0000 0.24644  0.74113  0.17830  Biso   1.000  C
  H203     1.0000 0.23920  0.70800  0.17050  Biso   1.000  H
  H204     1.0000 0.27670  0.74520  0.15650  Biso   1.000  H
  N35      1.0000 0.32024  0.17241  0.01680  Biso   1.000  N
  N36      1.0000 0.16287  0.32467  0.47090  Biso   1.000  N
  C205     1.0000 0.33430  0.21293  0.97480  Biso   1.000  C
  H205     1.0000 0.36200  0.22340  0.99450  Biso   1.000  H
  C206     1.0000 0.31033  0.24028  0.90370  Biso   1.000  C
  H206     1.0000 0.32210  0.26810  0.87650  Biso   1.000  H
  C207     1.0000 0.26948  0.22661  0.87330  Biso   1.000  C
  C208     1.0000 0.25412  0.18502  0.91780  Biso   1.000  C
  H207     1.0000 0.22620  0.17430  0.90050  Biso   1.000  H
  C209     1.0000 0.28018  0.15959  0.98790  Biso   1.000  C
  H208     1.0000 0.26900  0.13180  0.01670  Biso   1.000  H
  C210     1.0000 0.15250  0.28061  0.49990  Biso   1.000  C
  H209     1.0000 0.12630  0.26810  0.47440  Biso   1.000  H
  C211     1.0000 0.17827  0.25267  0.56540  Biso   1.000  C
  H210     1.0000 0.16920  0.22240  0.58360  Biso   1.000  H
  C212     1.0000 0.21755  0.26974  0.60400  Biso   1.000  C
  C213     1.0000 0.22894  0.31476  0.57170  Biso   1.000  C
  H211     1.0000 0.25540  0.32770  0.59430  Biso   1.000  H
  C214     1.0000 0.20143  0.34045  0.50640  Biso   1.000  C
  H212     1.0000 0.21010  0.37060  0.48570  Biso   1.000  H
  C215     1.0000 0.24147  0.25524  0.79670  Biso   1.000  C
  H213     1.0000 0.24910  0.28830  0.80430  Biso   1.000  H
  H214     1.0000 0.21110  0.25170  0.81760  Biso   1.000  H
  C216     1.0000 0.24644  0.24113  0.67830  Biso   1.000  C
  H215     1.0000 0.23920  0.20800  0.67050  Biso   1.000  H
  H216     1.0000 0.27670  0.24520  0.65650  Biso   1.000  H
  N37      1.0000 0.82024  0.67241  0.01680  Biso   1.000  N
  N38      1.0000 0.66287  0.82467  0.47090  Biso   1.000  N
  C217     1.0000 0.83430  0.71293  0.97480  Biso   1.000  C
  H217     1.0000 0.86200  0.72340  0.99450  Biso   1.000  H
  C218     1.0000 0.81033  0.74028  0.90370  Biso   1.000  C
  H218     1.0000 0.82210  0.76810  0.87650  Biso   1.000  H
  C219     1.0000 0.76948  0.72661  0.87330  Biso   1.000  C
  C220     1.0000 0.75412  0.68502  0.91780  Biso   1.000  C
  H219     1.0000 0.72620  0.67430  0.90050  Biso   1.000  H
  C221     1.0000 0.78018  0.65959  0.98790  Biso   1.000  C
  H220     1.0000 0.76900  0.63180  0.01670  Biso   1.000  H
  C222     1.0000 0.65250  0.78061  0.49990  Biso   1.000  C
  H221     1.0000 0.62630  0.76810  0.47440  Biso   1.000  H
  C223     1.0000 0.67827  0.75267  0.56540  Biso   1.000  C
  H222     1.0000 0.66920  0.72240  0.58360  Biso   1.000  H
  C224     1.0000 0.71755  0.76974  0.60400  Biso   1.000  C
  C225     1.0000 0.72894  0.81476  0.57170  Biso   1.000  C
  H223     1.0000 0.75540  0.82770  0.59430  Biso   1.000  H
  C226     1.0000 0.70143  0.84045  0.50640  Biso   1.000  C
  H224     1.0000 0.71010  0.87060  0.48570  Biso   1.000  H
  C227     1.0000 0.74147  0.75524  0.79670  Biso   1.000  C
  H225     1.0000 0.74910  0.78830  0.80430  Biso   1.000  H
  H226     1.0000 0.71110  0.75170  0.81760  Biso   1.000  H
  C228     1.0000 0.74644  0.74113  0.67830  Biso   1.000  C
  H227     1.0000 0.73920  0.70800  0.67050  Biso   1.000  H
  H228     1.0000 0.77670  0.74520  0.65650  Biso   1.000  H
  N39      1.0000 0.82024  0.17241  0.51680  Biso   1.000  N
  N40      1.0000 0.66287  0.32467  0.97090  Biso   1.000  N
  C229     1.0000 0.83430  0.21293  0.47480  Biso   1.000  C
  H229     1.0000 0.86200  0.22340  0.49450  Biso   1.000  H
  C230     1.0000 0.81033  0.24028  0.40370  Biso   1.000  C
  H230     1.0000 0.82210  0.26810  0.37650  Biso   1.000  H
  C231     1.0000 0.76948  0.22661  0.37330  Biso   1.000  C
  C232     1.0000 0.75412  0.18502  0.41780  Biso   1.000  C
  H231     1.0000 0.72620  0.17430  0.40050  Biso   1.000  H
  C233     1.0000 0.78018  0.15959  0.48790  Biso   1.000  C
  H232     1.0000 0.76900  0.13180  0.51670  Biso   1.000  H
  C234     1.0000 0.65250  0.28061  0.99990  Biso   1.000  C
  H233     1.0000 0.62630  0.26810  0.97440  Biso   1.000  H
  C235     1.0000 0.67827  0.25267  0.06540  Biso   1.000  C
  H234     1.0000 0.66920  0.22240  0.08360  Biso   1.000  H
  C236     1.0000 0.71755  0.26974  0.10400  Biso   1.000  C
  C237     1.0000 0.72894  0.31476  0.07170  Biso   1.000  C
  H235     1.0000 0.75540  0.32770  0.09430  Biso   1.000  H
  C238     1.0000 0.70143  0.34045  0.00640  Biso   1.000  C
  H236     1.0000 0.71010  0.37060  0.98570  Biso   1.000  H
  C239     1.0000 0.74147  0.25524  0.29670  Biso   1.000  C
  H237     1.0000 0.74910  0.28830  0.30430  Biso   1.000  H
  H238     1.0000 0.71110  0.25170  0.31760  Biso   1.000  H
  C240     1.0000 0.74644  0.24113  0.17830  Biso   1.000  C
  H239     1.0000 0.73920  0.20800  0.17050  Biso   1.000  H
  H240     1.0000 0.77670  0.24520  0.15650  Biso   1.000  H
  N41      1.0000 0.32024  0.07759  0.23320  Biso   1.000  N
  N42      1.0000 0.16287  0.92533  0.77910  Biso   1.000  N
  C241     1.0000 0.33430  0.03707  0.27520  Biso   1.000  C
  H241     1.0000 0.36200  0.02660  0.25550  Biso   1.000  H
  C242     1.0000 0.31033  0.00972  0.34630  Biso   1.000  C
  H242     1.0000 0.32210  0.98190  0.37350  Biso   1.000  H
  C243     1.0000 0.26948  0.02339  0.37670  Biso   1.000  C
  C244     1.0000 0.25412  0.06498  0.33220  Biso   1.000  C
  H243     1.0000 0.22620  0.07570  0.34950  Biso   1.000  H
  C245     1.0000 0.28018  0.09041  0.26210  Biso   1.000  C
  H244     1.0000 0.26900  0.11820  0.23330  Biso   1.000  H
  C246     1.0000 0.15250  0.96939  0.75010  Biso   1.000  C
  H245     1.0000 0.12630  0.98190  0.77560  Biso   1.000  H
  C247     1.0000 0.17827  0.99733  0.68460  Biso   1.000  C
  H246     1.0000 0.16920  0.02760  0.66640  Biso   1.000  H
  C248     1.0000 0.21755  0.98026  0.64600  Biso   1.000  C
  C249     1.0000 0.22894  0.93524  0.67830  Biso   1.000  C
  H247     1.0000 0.25540  0.92230  0.65570  Biso   1.000  H
  C250     1.0000 0.20143  0.90955  0.74360  Biso   1.000  C
  H248     1.0000 0.21010  0.87940  0.76430  Biso   1.000  H
  C251     1.0000 0.24147  0.99476  0.45330  Biso   1.000  C
  H249     1.0000 0.24910  0.96170  0.44570  Biso   1.000  H
  H250     1.0000 0.21110  0.99830  0.43240  Biso   1.000  H
  C252     1.0000 0.24644  0.00887  0.57170  Biso   1.000  C
  H251     1.0000 0.23920  0.04200  0.57950  Biso   1.000  H
  H252     1.0000 0.27670  0.00480  0.59350  Biso   1.000  H
  N43      1.0000 0.32024  0.57759  0.73320  Biso   1.000  N
  N44      1.0000 0.16287  0.42533  0.27910  Biso   1.000  N
  C253     1.0000 0.33430  0.53707  0.77520  Biso   1.000  C
  H253     1.0000 0.36200  0.52660  0.75550  Biso   1.000  H
  C254     1.0000 0.31033  0.50972  0.84630  Biso   1.000  C
  H254     1.0000 0.32210  0.48190  0.87350  Biso   1.000  H
  C255     1.0000 0.26948  0.52339  0.87670  Biso   1.000  C
  C256     1.0000 0.25412  0.56498  0.83220  Biso   1.000  C
  H255     1.0000 0.22620  0.57570  0.84950  Biso   1.000  H
  C257     1.0000 0.28018  0.59041  0.76210  Biso   1.000  C
  H256     1.0000 0.26900  0.61820  0.73330  Biso   1.000  H
  C258     1.0000 0.15250  0.46939  0.25010  Biso   1.000  C
  H257     1.0000 0.12630  0.48190  0.27560  Biso   1.000  H
  C259     1.0000 0.17827  0.49733  0.18460  Biso   1.000  C
  H258     1.0000 0.16920  0.52760  0.16640  Biso   1.000  H
  C260     1.0000 0.21755  0.48026  0.14600  Biso   1.000  C
  C261     1.0000 0.22894  0.43524  0.17830  Biso   1.000  C
  H259     1.0000 0.25540  0.42230  0.15570  Biso   1.000  H
  C262     1.0000 0.20143  0.40955  0.24360  Biso   1.000  C
  H260     1.0000 0.21010  0.37940  0.26430  Biso   1.000  H
  C263     1.0000 0.24147  0.49476  0.95330  Biso   1.000  C
  H261     1.0000 0.24910  0.46170  0.94570  Biso   1.000  H
  H262     1.0000 0.21110  0.49830  0.93240  Biso   1.000  H
  C264     1.0000 0.24644  0.50887  0.07170  Biso   1.000  C
  H263     1.0000 0.23920  0.54200  0.07950  Biso   1.000  H
  H264     1.0000 0.27670  0.50480  0.09350  Biso   1.000  H
  N45      1.0000 0.82024  0.07759  0.73320  Biso   1.000  N
  N46      1.0000 0.66287  0.92533  0.27910  Biso   1.000  N
  C265     1.0000 0.83430  0.03707  0.77520  Biso   1.000  C
  H265     1.0000 0.86200  0.02660  0.75550  Biso   1.000  H
  C266     1.0000 0.81033  0.00972  0.84630  Biso   1.000  C
  H266     1.0000 0.82210  0.98190  0.87350  Biso   1.000  H
  C267     1.0000 0.76948  0.02339  0.87670  Biso   1.000  C
  C268     1.0000 0.75412  0.06498  0.83220  Biso   1.000  C
  H267     1.0000 0.72620  0.07570  0.84950  Biso   1.000  H
  C269     1.0000 0.78018  0.09041  0.76210  Biso   1.000  C
  H268     1.0000 0.76900  0.11820  0.73330  Biso   1.000  H
  C270     1.0000 0.65250  0.96939  0.25010  Biso   1.000  C
  H269     1.0000 0.62630  0.98190  0.27560  Biso   1.000  H
  C271     1.0000 0.67827  0.99733  0.18460  Biso   1.000  C
  H270     1.0000 0.66920  0.02760  0.16640  Biso   1.000  H
  C272     1.0000 0.71755  0.98026  0.14600  Biso   1.000  C
  C273     1.0000 0.72894  0.93524  0.17830  Biso   1.000  C
  H271     1.0000 0.75540  0.92230  0.15570  Biso   1.000  H
  C274     1.0000 0.70143  0.90955  0.24360  Biso   1.000  C
  H272     1.0000 0.71010  0.87940  0.26430  Biso   1.000  H
  C275     1.0000 0.74147  0.99476  0.95330  Biso   1.000  C
  H273     1.0000 0.74910  0.96170  0.94570  Biso   1.000  H
  H274     1.0000 0.71110  0.99830  0.93240  Biso   1.000  H
  C276     1.0000 0.74644  0.00887  0.07170  Biso   1.000  C
  H275     1.0000 0.73920  0.04200  0.07950  Biso   1.000  H
  H276     1.0000 0.77670  0.00480  0.09350  Biso   1.000  H
  N47      1.0000 0.82024  0.57759  0.23320  Biso   1.000  N
  N48      1.0000 0.66287  0.42533  0.77910  Biso   1.000  N
  C277     1.0000 0.83430  0.53707  0.27520  Biso   1.000  C
  H277     1.0000 0.86200  0.52660  0.25550  Biso   1.000  H
  C278     1.0000 0.81033  0.50972  0.34630  Biso   1.000  C
  H278     1.0000 0.82210  0.48190  0.37350  Biso   1.000  H
  C279     1.0000 0.76948  0.52339  0.37670  Biso   1.000  C
  C280     1.0000 0.75412  0.56498  0.33220  Biso   1.000  C
  H279     1.0000 0.72620  0.57570  0.34950  Biso   1.000  H
  C281     1.0000 0.78018  0.59041  0.26210  Biso   1.000  C
  H280     1.0000 0.76900  0.61820  0.23330  Biso   1.000  H
  C282     1.0000 0.65250  0.46939  0.75010  Biso   1.000  C
  H281     1.0000 0.62630  0.48190  0.77560  Biso   1.000  H
  C283     1.0000 0.67827  0.49733  0.68460  Biso   1.000  C
  H282     1.0000 0.66920  0.52760  0.66640  Biso   1.000  H
  C284     1.0000 0.71755  0.48026  0.64600  Biso   1.000  C
  C285     1.0000 0.72894  0.43524  0.67830  Biso   1.000  C
  H283     1.0000 0.75540  0.42230  0.65570  Biso   1.000  H
  C286     1.0000 0.70143  0.40955  0.74360  Biso   1.000  C
  H284     1.0000 0.71010  0.37940  0.76430  Biso   1.000  H
  C287     1.0000 0.74147  0.49476  0.45330  Biso   1.000  C
  H285     1.0000 0.74910  0.46170  0.44570  Biso   1.000  H
  H286     1.0000 0.71110  0.49830  0.43240  Biso   1.000  H
  C288     1.0000 0.74644  0.50887  0.57170  Biso   1.000  C
  H287     1.0000 0.73920  0.54200  0.57950  Biso   1.000  H
  H288     1.0000 0.77670  0.50480  0.59350  Biso   1.000  H
  N49      1.0000 0.57024  0.92241  0.48320  Biso   1.000  N
  N50      1.0000 0.41287  0.07467  0.02910  Biso   1.000  N
  C289     1.0000 0.58430  0.96293  0.52520  Biso   1.000  C
  H289     1.0000 0.61200  0.97340  0.50550  Biso   1.000  H
  C290     1.0000 0.56033  0.99028  0.59630  Biso   1.000  C
  H290     1.0000 0.57210  0.01810  0.62350  Biso   1.000  H
  C291     1.0000 0.51948  0.97661  0.62670  Biso   1.000  C
  C292     1.0000 0.50412  0.93502  0.58220  Biso   1.000  C
  H291     1.0000 0.47620  0.92430  0.59950  Biso   1.000  H
  C293     1.0000 0.53018  0.90959  0.51210  Biso   1.000  C
  H292     1.0000 0.51900  0.88180  0.48330  Biso   1.000  H
  C294     1.0000 0.40250  0.03061  0.00010  Biso   1.000  C
  H293     1.0000 0.37630  0.01810  0.02560  Biso   1.000  H
  C295     1.0000 0.42827  0.00267  0.93460  Biso   1.000  C
  H294     1.0000 0.41920  0.97240  0.91640  Biso   1.000  H
  C296     1.0000 0.46755  0.01974  0.89600  Biso   1.000  C
  C297     1.0000 0.47894  0.06476  0.92830  Biso   1.000  C
  H295     1.0000 0.50540  0.07770  0.90570  Biso   1.000  H
  C298     1.0000 0.45143  0.09045  0.99360  Biso   1.000  C
  H296     1.0000 0.46010  0.12060  0.01430  Biso   1.000  H
  C299     1.0000 0.49147  0.00524  0.70330  Biso   1.000  C
  H297     1.0000 0.49910  0.03830  0.69570  Biso   1.000  H
  H298     1.0000 0.46110  0.00170  0.68240  Biso   1.000  H
  C300     1.0000 0.49644  0.99113  0.82170  Biso   1.000  C
  H299     1.0000 0.48920  0.95800  0.82950  Biso   1.000  H
  H300     1.0000 0.52670  0.99520  0.84350  Biso   1.000  H
  N51      1.0000 0.57024  0.42241  0.98320  Biso   1.000  N
  N52      1.0000 0.41287  0.57467  0.52910  Biso   1.000  N
  C301     1.0000 0.58430  0.46293  0.02520  Biso   1.000  C
  H301     1.0000 0.61200  0.47340  0.00550  Biso   1.000  H
  C302     1.0000 0.56033  0.49028  0.09630  Biso   1.000  C
  H302     1.0000 0.57210  0.51810  0.12350  Biso   1.000  H
  C303     1.0000 0.51948  0.47661  0.12670  Biso   1.000  C
  C304     1.0000 0.50412  0.43502  0.08220  Biso   1.000  C
  H303     1.0000 0.47620  0.42430  0.09950  Biso   1.000  H
  C305     1.0000 0.53018  0.40959  0.01210  Biso   1.000  C
  H304     1.0000 0.51900  0.38180  0.98330  Biso   1.000  H
  C306     1.0000 0.40250  0.53061  0.50010  Biso   1.000  C
  H305     1.0000 0.37630  0.51810  0.52560  Biso   1.000  H
  C307     1.0000 0.42827  0.50267  0.43460  Biso   1.000  C
  H306     1.0000 0.41920  0.47240  0.41640  Biso   1.000  H
  C308     1.0000 0.46755  0.51974  0.39600  Biso   1.000  C
  C309     1.0000 0.47894  0.56476  0.42830  Biso   1.000  C
  H307     1.0000 0.50540  0.57770  0.40570  Biso   1.000  H
  C310     1.0000 0.45143  0.59045  0.49360  Biso   1.000  C
  H308     1.0000 0.46010  0.62060  0.51430  Biso   1.000  H
  C311     1.0000 0.49147  0.50524  0.20330  Biso   1.000  C
  H309     1.0000 0.49910  0.53830  0.19570  Biso   1.000  H
  H310     1.0000 0.46110  0.50170  0.18240  Biso   1.000  H
  C312     1.0000 0.49644  0.49113  0.32170  Biso   1.000  C
  H311     1.0000 0.48920  0.45800  0.32950  Biso   1.000  H
  H312     1.0000 0.52670  0.49520  0.34350  Biso   1.000  H
  N53      1.0000 0.07024  0.92241  0.98320  Biso   1.000  N
  N54      1.0000 0.91287  0.07467  0.52910  Biso   1.000  N
  C313     1.0000 0.08430  0.96293  0.02520  Biso   1.000  C
  H313     1.0000 0.11200  0.97340  0.00550  Biso   1.000  H
  C314     1.0000 0.06033  0.99028  0.09630  Biso   1.000  C
  H314     1.0000 0.07210  0.01810  0.12350  Biso   1.000  H
  C315     1.0000 0.01948  0.97661  0.12670  Biso   1.000  C
  C316     1.0000 0.00412  0.93502  0.08220  Biso   1.000  C
  H315     1.0000 0.97620  0.92430  0.09950  Biso   1.000  H
  C317     1.0000 0.03018  0.90959  0.01210  Biso   1.000  C
  H316     1.0000 0.01900  0.88180  0.98330  Biso   1.000  H
  C318     1.0000 0.90250  0.03061  0.50010  Biso   1.000  C
  H317     1.0000 0.87630  0.01810  0.52560  Biso   1.000  H
  C319     1.0000 0.92827  0.00267  0.43460  Biso   1.000  C
  H318     1.0000 0.91920  0.97240  0.41640  Biso   1.000  H
  C320     1.0000 0.96755  0.01974  0.39600  Biso   1.000  C
  C321     1.0000 0.97894  0.06476  0.42830  Biso   1.000  C
  H319     1.0000 0.00540  0.07770  0.40570  Biso   1.000  H
  C322     1.0000 0.95143  0.09045  0.49360  Biso   1.000  C
  H320     1.0000 0.96010  0.12060  0.51430  Biso   1.000  H
  C323     1.0000 0.99147  0.00524  0.20330  Biso   1.000  C
  H321     1.0000 0.99910  0.03830  0.19570  Biso   1.000  H
  H322     1.0000 0.96110  0.00170  0.18240  Biso   1.000  H
  C324     1.0000 0.99644  0.99113  0.32170  Biso   1.000  C
  H323     1.0000 0.98920  0.95800  0.32950  Biso   1.000  H
  H324     1.0000 0.02670  0.99520  0.34350  Biso   1.000  H
  N55      1.0000 0.07024  0.42241  0.48320  Biso   1.000  N
  N56      1.0000 0.91287  0.57467  0.02910  Biso   1.000  N
  C325     1.0000 0.08430  0.46293  0.52520  Biso   1.000  C
  H325     1.0000 0.11200  0.47340  0.50550  Biso   1.000  H
  C326     1.0000 0.06033  0.49028  0.59630  Biso   1.000  C
  H326     1.0000 0.07210  0.51810  0.62350  Biso   1.000  H
  C327     1.0000 0.01948  0.47661  0.62670  Biso   1.000  C
  C328     1.0000 0.00412  0.43502  0.58220  Biso   1.000  C
  H327     1.0000 0.97620  0.42430  0.59950  Biso   1.000  H
  C329     1.0000 0.03018  0.40959  0.51210  Biso   1.000  C
  H328     1.0000 0.01900  0.38180  0.48330  Biso   1.000  H
  C330     1.0000 0.90250  0.53061  0.00010  Biso   1.000  C
  H329     1.0000 0.87630  0.51810  0.02560  Biso   1.000  H
  C331     1.0000 0.92827  0.50267  0.93460  Biso   1.000  C
  H330     1.0000 0.91920  0.47240  0.91640  Biso   1.000  H
  C332     1.0000 0.96755  0.51974  0.89600  Biso   1.000  C
  C333     1.0000 0.97894  0.56476  0.92830  Biso   1.000  C
  H331     1.0000 0.00540  0.57770  0.90570  Biso   1.000  H
  C334     1.0000 0.95143  0.59045  0.99360  Biso   1.000  C
  H332     1.0000 0.96010  0.62060  0.01430  Biso   1.000  H
  C335     1.0000 0.99147  0.50524  0.70330  Biso   1.000  C
  H333     1.0000 0.99910  0.53830  0.69570  Biso   1.000  H
  H334     1.0000 0.96110  0.50170  0.68240  Biso   1.000  H
  C336     1.0000 0.99644  0.49113  0.82170  Biso   1.000  C
  H335     1.0000 0.98920  0.45800  0.82950  Biso   1.000  H
  H336     1.0000 0.02670  0.49520  0.84350  Biso   1.000  H
  N57      1.0000 0.57024  0.32759  0.76680  Biso   1.000  N
  N58      1.0000 0.41287  0.17533  0.22090  Biso   1.000  N
  C337     1.0000 0.58430  0.28707  0.72480  Biso   1.000  C
  H337     1.0000 0.61200  0.27660  0.74450  Biso   1.000  H
  C338     1.0000 0.56033  0.25972  0.65370  Biso   1.000  C
  H338     1.0000 0.57210  0.23190  0.62650  Biso   1.000  H
  C339     1.0000 0.51948  0.27339  0.62330  Biso   1.000  C
  C340     1.0000 0.50412  0.31498  0.66780  Biso   1.000  C
  H339     1.0000 0.47620  0.32570  0.65050  Biso   1.000  H
  C341     1.0000 0.53018  0.34041  0.73790  Biso   1.000  C
  H340     1.0000 0.51900  0.36820  0.76670  Biso   1.000  H
  C342     1.0000 0.40250  0.21939  0.24990  Biso   1.000  C
  H341     1.0000 0.37630  0.23190  0.22440  Biso   1.000  H
  C343     1.0000 0.42827  0.24733  0.31540  Biso   1.000  C
  H342     1.0000 0.41920  0.27760  0.33360  Biso   1.000  H
  C344     1.0000 0.46755  0.23026  0.35400  Biso   1.000  C
  C345     1.0000 0.47894  0.18524  0.32170  Biso   1.000  C
  H343     1.0000 0.50540  0.17230  0.34430  Biso   1.000  H
  C346     1.0000 0.45143  0.15955  0.25640  Biso   1.000  C
  H344     1.0000 0.46010  0.12940  0.23570  Biso   1.000  H
  C347     1.0000 0.49147  0.24476  0.54670  Biso   1.000  C
  H345     1.0000 0.49910  0.21170  0.55430  Biso   1.000  H
  H346     1.0000 0.46110  0.24830  0.56760  Biso   1.000  H
  C348     1.0000 0.49644  0.25887  0.42830  Biso   1.000  C
  H347     1.0000 0.48920  0.29200  0.42050  Biso   1.000  H
  H348     1.0000 0.52670  0.25480  0.40650  Biso   1.000  H
  N59      1.0000 0.57024  0.82759  0.26680  Biso   1.000  N
  N60      1.0000 0.41287  0.67533  0.72090  Biso   1.000  N
  C349     1.0000 0.58430  0.78707  0.22480  Biso   1.000  C
  H349     1.0000 0.61200  0.77660  0.24450  Biso   1.000  H
  C350     1.0000 0.56033  0.75972  0.15370  Biso   1.000  C
  H350     1.0000 0.57210  0.73190  0.12650  Biso   1.000  H
  C351     1.0000 0.51948  0.77339  0.12330  Biso   1.000  C
  C352     1.0000 0.50412  0.81498  0.16780  Biso   1.000  C
  H351     1.0000 0.47620  0.82570  0.15050  Biso   1.000  H
  C353     1.0000 0.53018  0.84041  0.23790  Biso   1.000  C
  H352     1.0000 0.51900  0.86820  0.26670  Biso   1.000  H
  C354     1.0000 0.40250  0.71939  0.74990  Biso   1.000  C
  H353     1.0000 0.37630  0.73190  0.72440  Biso   1.000  H
  C355     1.0000 0.42827  0.74733  0.81540  Biso   1.000  C
  H354     1.0000 0.41920  0.77760  0.83360  Biso   1.000  H
  C356     1.0000 0.46755  0.73026  0.85400  Biso   1.000  C
  C357     1.0000 0.47894  0.68524  0.82170  Biso   1.000  C
  H355     1.0000 0.50540  0.67230  0.84430  Biso   1.000  H
  C358     1.0000 0.45143  0.65955  0.75640  Biso   1.000  C
  H356     1.0000 0.46010  0.62940  0.73570  Biso   1.000  H
  C359     1.0000 0.49147  0.74476  0.04670  Biso   1.000  C
  H357     1.0000 0.49910  0.71170  0.05430  Biso   1.000  H
  H358     1.0000 0.46110  0.74830  0.06760  Biso   1.000  H
  C360     1.0000 0.49644  0.75887  0.92830  Biso   1.000  C
  H359     1.0000 0.48920  0.79200  0.92050  Biso   1.000  H
  H360     1.0000 0.52670  0.75480  0.90650  Biso   1.000  H
  N61      1.0000 0.07024  0.32759  0.26680  Biso   1.000  N
  N62      1.0000 0.91287  0.17533  0.72090  Biso   1.000  N
  C361     1.0000 0.08430  0.28707  0.22480  Biso   1.000  C
  H361     1.0000 0.11200  0.27660  0.24450  Biso   1.000  H
  C362     1.0000 0.06033  0.25972  0.15370  Biso   1.000  C
  H362     1.0000 0.07210  0.23190  0.12650  Biso   1.000  H
  C363     1.0000 0.01948  0.27339  0.12330  Biso   1.000  C
  C364     1.0000 0.00412  0.31498  0.16780  Biso   1.000  C
  H363     1.0000 0.97620  0.32570  0.15050  Biso   1.000  H
  C365     1.0000 0.03018  0.34041  0.23790  Biso   1.000  C
  H364     1.0000 0.01900  0.36820  0.26670  Biso   1.000  H
  C366     1.0000 0.90250  0.21939  0.74990  Biso   1.000  C
  H365     1.0000 0.87630  0.23190  0.72440  Biso   1.000  H
  C367     1.0000 0.92827  0.24733  0.81540  Biso   1.000  C
  H366     1.0000 0.91920  0.27760  0.83360  Biso   1.000  H
  C368     1.0000 0.96755  0.23026  0.85400  Biso   1.000  C
  C369     1.0000 0.97894  0.18524  0.82170  Biso   1.000  C
  H367     1.0000 0.00540  0.17230  0.84430  Biso   1.000  H
  C370     1.0000 0.95143  0.15955  0.75640  Biso   1.000  C
  H368     1.0000 0.96010  0.12940  0.73570  Biso   1.000  H
  C371     1.0000 0.99147  0.24476  0.04670  Biso   1.000  C
  H369     1.0000 0.99910  0.21170  0.05430  Biso   1.000  H
  H370     1.0000 0.96110  0.24830  0.06760  Biso   1.000  H
  C372     1.0000 0.99644  0.25887  0.92830  Biso   1.000  C
  H371     1.0000 0.98920  0.29200  0.92050  Biso   1.000  H
  H372     1.0000 0.02670  0.25480  0.90650  Biso   1.000  H
  N63      1.0000 0.07024  0.82759  0.76680  Biso   1.000  N
  N64      1.0000 0.91287  0.67533  0.22090  Biso   1.000  N
  C373     1.0000 0.08430  0.78707  0.72480  Biso   1.000  C
  H373     1.0000 0.11200  0.77660  0.74450  Biso   1.000  H
  C374     1.0000 0.06033  0.75972  0.65370  Biso   1.000  C
  H374     1.0000 0.07210  0.73190  0.62650  Biso   1.000  H
  C375     1.0000 0.01948  0.77339  0.62330  Biso   1.000  C
  C376     1.0000 0.00412  0.81498  0.66780  Biso   1.000  C
  H375     1.0000 0.97620  0.82570  0.65050  Biso   1.000  H
  C377     1.0000 0.03018  0.84041  0.73790  Biso   1.000  C
  H376     1.0000 0.01900  0.86820  0.76670  Biso   1.000  H
  C378     1.0000 0.90250  0.71939  0.24990  Biso   1.000  C
  H377     1.0000 0.87630  0.73190  0.22440  Biso   1.000  H
  C379     1.0000 0.92827  0.74733  0.31540  Biso   1.000  C
  H378     1.0000 0.91920  0.77760  0.33360  Biso   1.000  H
  C380     1.0000 0.96755  0.73026  0.35400  Biso   1.000  C
  C381     1.0000 0.97894  0.68524  0.32170  Biso   1.000  C
  H379     1.0000 0.00540  0.67230  0.34430  Biso   1.000  H
  C382     1.0000 0.95143  0.65955  0.25640  Biso   1.000  C
  H380     1.0000 0.96010  0.62940  0.23570  Biso   1.000  H
  C383     1.0000 0.99147  0.74476  0.54670  Biso   1.000  C
  H381     1.0000 0.99910  0.71170  0.55430  Biso   1.000  H
  H382     1.0000 0.96110  0.74830  0.56760  Biso   1.000  H
  C384     1.0000 0.99644  0.75887  0.42830  Biso   1.000  C
  H383     1.0000 0.98920  0.79200  0.42050  Biso   1.000  H
  H384     1.0000 0.02670  0.75480  0.40650  Biso   1.000  H
  Ag9      1.0000 0.36554  0.62500  0.62500  Biso   1.000  Ag
  Ag10     1.0000 0.86554  0.62500  0.12500  Biso   1.000  Ag
  Ag11     1.0000 0.36554  0.12500  0.12500  Biso   1.000  Ag
  Ag12     1.0000 0.86554  0.12500  0.62500  Biso   1.000  Ag
  Ag13     1.0000 0.61554  0.87500  0.37500  Biso   1.000  Ag
  Ag14     1.0000 0.11554  0.87500  0.87500  Biso   1.000  Ag
  Ag15     1.0000 0.61554  0.37500  0.87500  Biso   1.000  Ag
  Ag16     1.0000 0.11554  0.37500  0.37500  Biso   1.000  Ag
