data_image0
_cell_length_a       34.1414
_cell_length_b       14.5641
_cell_length_c       34.9597
_cell_angle_alpha    90
_cell_angle_beta     108.633
_cell_angle_gamma    90

_symmetry_space_group_name_H-M    "P 1"
_symmetry_int_tables_number       1

loop_
  _symmetry_equiv_pos_as_xyz
  'x, y, z'

loop_
  _atom_site_label
  _atom_site_occupancy
  _atom_site_fract_x
  _atom_site_fract_y
  _atom_site_fract_z
  _atom_site_thermal_displace_type
  _atom_site_B_iso_or_equiv
  _atom_site_type_symbol
  Zn1      1.0000 0.11301  0.07383  0.05483  Biso   1.000  Zn
  Zn2      1.0000 0.34960  0.11268  0.42556  Biso   1.000  Zn
  Zn3      1.0000 0.33789  0.34611  0.23754  Biso   1.000  Zn
  I1       1.0000 0.09620  0.22880  0.08015  Biso   1.000  I
  I2       1.0000 0.12400  0.05269  0.98722  Biso   1.000  I
  I3       1.0000 0.27586  0.14605  0.42362  Biso   1.000  I
  I4       1.0000 0.40331  0.23722  0.43839  Biso   1.000  I
  I5       1.0000 0.38148  0.31663  0.31010  Biso   1.000  I
  I6       1.0000 0.27341  0.24753  0.20764  Biso   1.000  I
  N1       1.0000 0.16190  0.01710  0.09980  Biso   1.000  N
  C1       1.0000 0.17950  0.06280  0.13470  Biso   1.000  C
  H1       1.0000 0.17060  0.12360  0.13750  Biso   1.000  H
  C2       1.0000 0.21030  0.02290  0.16650  Biso   1.000  C
  H2       1.0000 0.22260  0.05660  0.19060  Biso   1.000  H
  C3       1.0000 0.22280  0.93470  0.16310  Biso   1.000  C
  C4       1.0000 0.20450  0.88720  0.12730  Biso   1.000  C
  H3       1.0000 0.21240  0.82590  0.12400  Biso   1.000  H
  C5       1.0000 0.17430  0.93180  0.09660  Biso   1.000  C
  H4       1.0000 0.16190  0.89980  0.07200  Biso   1.000  H
  N2       1.0000 0.34250  0.04440  0.37210  Biso   1.000  N
  C6       1.0000 0.34300  0.95340  0.37080  Biso   1.000  C
  H5       1.0000 0.35230  0.92040  0.39550  Biso   1.000  H
  C7       1.0000 0.33060  0.90450  0.33500  Biso   1.000  C
  H6       1.0000 0.33260  0.83950  0.33500  Biso   1.000  H
  C8       1.0000 0.31540  0.95270  0.29920  Biso   1.000  C
  C9       1.0000 0.31520  0.04770  0.30040  Biso   1.000  C
  H7       1.0000 0.30580  0.08200  0.27610  Biso   1.000  H
  C10      1.0000 0.32880  0.09270  0.33740  Biso   1.000  C
  H8       1.0000 0.32850  0.15790  0.33820  Biso   1.000  H
  N3       1.0000 0.32350  0.48300  0.23100  Biso   1.000  N
  C11      1.0000 0.34190  0.54030  0.26170  Biso   1.000  C
  H9       1.0000 0.36190  0.51590  0.28500  Biso   1.000  H
  C12      1.0000 0.33280  0.63310  0.26090  Biso   1.000  C
  H10      1.0000 0.34650  0.67150  0.28310  Biso   1.000  H
  C13      1.0000 0.30310  0.66930  0.22690  Biso   1.000  C
  C14      1.0000 0.28450  0.61030  0.19460  Biso   1.000  C
  H11      1.0000 0.26470  0.63300  0.17070  Biso   1.000  H
  C15      1.0000 0.29530  0.51930  0.19800  Biso   1.000  C
  H12      1.0000 0.28230  0.47970  0.17610  Biso   1.000  H
  C16      1.0000 0.25420  0.89070  0.19750  Biso   1.000  C
  N4       1.0000 0.27040  0.94260  0.23030  Biso   1.000  N
  C17      1.0000 0.29870  0.89910  0.26080  Biso   1.000  C
  N5       1.0000 0.31090  0.81400  0.26040  Biso   1.000  N
  C18      1.0000 0.29150  0.76750  0.22660  Biso   1.000  C
  N6       1.0000 0.26320  0.80160  0.19420  Biso   1.000  N
  N7       1.0000 0.37530  0.01310  0.46770  Biso   1.000  N
  C19      1.0000 0.35460  0.97640  0.49120  Biso   1.000  C
  H13      1.0000 0.32750  0.99790  0.48800  Biso   1.000  H
  C20      1.0000 0.37080  0.91030  0.51900  Biso   1.000  C
  H14      1.0000 0.35560  0.88770  0.53540  Biso   1.000  H
  C21      1.0000 0.41020  0.87550  0.52330  Biso   1.000  C
  C22      1.0000 0.43060  0.90940  0.49860  Biso   1.000  C
  H15      1.0000 0.45690  0.88610  0.49990  Biso   1.000  H
  C23      1.0000 0.41210  0.97830  0.47160  Biso   1.000  C
  H16      1.0000 0.42680  0.00210  0.45490  Biso   1.000  H
  N8       1.0000 0.37150  0.67170  0.69820  Biso   1.000  N
  C24      1.0000 0.38680  0.60110  0.68300  Biso   1.000  C
  H17      1.0000 0.38420  0.54070  0.69200  Biso   1.000  H
  C25      1.0000 0.40630  0.61440  0.65410  Biso   1.000  C
  H18      1.0000 0.41820  0.56380  0.64460  Biso   1.000  H
  C26      1.0000 0.40850  0.70230  0.63940  Biso   1.000  C
  C27      1.0000 0.39290  0.77390  0.65560  Biso   1.000  C
  H19      1.0000 0.39520  0.83500  0.64700  Biso   1.000  H
  C28      1.0000 0.37380  0.75740  0.68450  Biso   1.000  C
  H20      1.0000 0.36210  0.80720  0.69480  Biso   1.000  H
  N9       1.0000 0.56590  0.51060  0.55890  Biso   1.000  N
  C29      1.0000 0.55860  0.51800  0.59480  Biso   1.000  C
  H21      1.0000 0.57570  0.48440  0.61730  Biso   1.000  H
  C30      1.0000 0.52830  0.57110  0.60020  Biso   1.000  C
  H22      1.0000 0.52420  0.57410  0.62580  Biso   1.000  H
  C31      1.0000 0.50310  0.62120  0.56780  Biso   1.000  C
  C32      1.0000 0.50990  0.61480  0.53120  Biso   1.000  C
  H23      1.0000 0.49310  0.64760  0.50840  Biso   1.000  H
  C33      1.0000 0.54170  0.55970  0.52840  Biso   1.000  C
  H24      1.0000 0.54670  0.55660  0.50320  Biso   1.000  H
  C34      1.0000 0.42630  0.80160  0.55240  Biso   1.000  C
  N10      1.0000 0.41060  0.78910  0.58250  Biso   1.000  N
  C35      1.0000 0.42710  0.71840  0.60690  Biso   1.000  C
  N11      1.0000 0.45560  0.66300  0.60390  Biso   1.000  N
  C36      1.0000 0.46990  0.68040  0.57330  Biso   1.000  C
  N12      1.0000 0.45670  0.75050  0.54680  Biso   1.000  N
  Zn4      1.0000 0.61301  0.57383  0.05483  Biso   1.000  Zn
  Zn5      1.0000 0.84960  0.61268  0.42556  Biso   1.000  Zn
  Zn6      1.0000 0.83789  0.84611  0.23754  Biso   1.000  Zn
  I7       1.0000 0.59620  0.72880  0.08015  Biso   1.000  I
  I8       1.0000 0.62400  0.55269  0.98722  Biso   1.000  I
  I9       1.0000 0.77586  0.64605  0.42362  Biso   1.000  I
  I10      1.0000 0.90331  0.73722  0.43839  Biso   1.000  I
  I11      1.0000 0.88148  0.81663  0.31010  Biso   1.000  I
  I12      1.0000 0.77341  0.74753  0.20764  Biso   1.000  I
  N13      1.0000 0.66190  0.51710  0.09980  Biso   1.000  N
  C37      1.0000 0.67950  0.56280  0.13470  Biso   1.000  C
  H25      1.0000 0.67060  0.62360  0.13750  Biso   1.000  H
  C38      1.0000 0.71030  0.52290  0.16650  Biso   1.000  C
  H26      1.0000 0.72260  0.55660  0.19060  Biso   1.000  H
  C39      1.0000 0.72280  0.43470  0.16310  Biso   1.000  C
  C40      1.0000 0.70450  0.38720  0.12730  Biso   1.000  C
  H27      1.0000 0.71240  0.32590  0.12400  Biso   1.000  H
  C41      1.0000 0.67430  0.43180  0.09660  Biso   1.000  C
  H28      1.0000 0.66190  0.39980  0.07200  Biso   1.000  H
  N14      1.0000 0.84250  0.54440  0.37210  Biso   1.000  N
  C42      1.0000 0.84300  0.45340  0.37080  Biso   1.000  C
  H29      1.0000 0.85230  0.42040  0.39550  Biso   1.000  H
  C43      1.0000 0.83060  0.40450  0.33500  Biso   1.000  C
  H30      1.0000 0.83260  0.33950  0.33500  Biso   1.000  H
  C44      1.0000 0.81540  0.45270  0.29920  Biso   1.000  C
  C45      1.0000 0.81520  0.54770  0.30040  Biso   1.000  C
  H31      1.0000 0.80580  0.58200  0.27610  Biso   1.000  H
  C46      1.0000 0.82880  0.59270  0.33740  Biso   1.000  C
  H32      1.0000 0.82850  0.65790  0.33820  Biso   1.000  H
  N15      1.0000 0.82350  0.98300  0.23100  Biso   1.000  N
  C47      1.0000 0.84190  0.04030  0.26170  Biso   1.000  C
  H33      1.0000 0.86190  0.01590  0.28500  Biso   1.000  H
  C48      1.0000 0.83280  0.13310  0.26090  Biso   1.000  C
  H34      1.0000 0.84650  0.17150  0.28310  Biso   1.000  H
  C49      1.0000 0.80310  0.16930  0.22690  Biso   1.000  C
  C50      1.0000 0.78450  0.11030  0.19460  Biso   1.000  C
  H35      1.0000 0.76470  0.13300  0.17070  Biso   1.000  H
  C51      1.0000 0.79530  0.01930  0.19800  Biso   1.000  C
  H36      1.0000 0.78230  0.97970  0.17610  Biso   1.000  H
  C52      1.0000 0.75420  0.39070  0.19750  Biso   1.000  C
  N16      1.0000 0.77040  0.44260  0.23030  Biso   1.000  N
  C53      1.0000 0.79870  0.39910  0.26080  Biso   1.000  C
  N17      1.0000 0.81090  0.31400  0.26040  Biso   1.000  N
  C54      1.0000 0.79150  0.26750  0.22660  Biso   1.000  C
  N18      1.0000 0.76320  0.30160  0.19420  Biso   1.000  N
  N19      1.0000 0.87530  0.51310  0.46770  Biso   1.000  N
  C55      1.0000 0.85460  0.47640  0.49120  Biso   1.000  C
  H37      1.0000 0.82750  0.49790  0.48800  Biso   1.000  H
  C56      1.0000 0.87080  0.41030  0.51900  Biso   1.000  C
  H38      1.0000 0.85560  0.38770  0.53540  Biso   1.000  H
  C57      1.0000 0.91020  0.37550  0.52330  Biso   1.000  C
  C58      1.0000 0.93060  0.40940  0.49860  Biso   1.000  C
  H39      1.0000 0.95690  0.38610  0.49990  Biso   1.000  H
  C59      1.0000 0.91210  0.47830  0.47160  Biso   1.000  C
  H40      1.0000 0.92680  0.50210  0.45490  Biso   1.000  H
  N20      1.0000 0.87150  0.17170  0.69820  Biso   1.000  N
  C60      1.0000 0.88680  0.10110  0.68300  Biso   1.000  C
  H41      1.0000 0.88420  0.04070  0.69200  Biso   1.000  H
  C61      1.0000 0.90630  0.11440  0.65410  Biso   1.000  C
  H42      1.0000 0.91820  0.06380  0.64460  Biso   1.000  H
  C62      1.0000 0.90850  0.20230  0.63940  Biso   1.000  C
  C63      1.0000 0.89290  0.27390  0.65560  Biso   1.000  C
  H43      1.0000 0.89520  0.33500  0.64700  Biso   1.000  H
  C64      1.0000 0.87380  0.25740  0.68450  Biso   1.000  C
  H44      1.0000 0.86210  0.30720  0.69480  Biso   1.000  H
  N21      1.0000 0.06590  0.01060  0.55890  Biso   1.000  N
  C65      1.0000 0.05860  0.01800  0.59480  Biso   1.000  C
  H45      1.0000 0.07570  0.98440  0.61730  Biso   1.000  H
  C66      1.0000 0.02830  0.07110  0.60020  Biso   1.000  C
  H46      1.0000 0.02420  0.07410  0.62580  Biso   1.000  H
  C67      1.0000 0.00310  0.12120  0.56780  Biso   1.000  C
  C68      1.0000 0.00990  0.11480  0.53120  Biso   1.000  C
  H47      1.0000 0.99310  0.14760  0.50840  Biso   1.000  H
  C69      1.0000 0.04170  0.05970  0.52840  Biso   1.000  C
  H48      1.0000 0.04670  0.05660  0.50320  Biso   1.000  H
  C70      1.0000 0.92630  0.30160  0.55240  Biso   1.000  C
  N22      1.0000 0.91060  0.28910  0.58250  Biso   1.000  N
  C71      1.0000 0.92710  0.21840  0.60690  Biso   1.000  C
  N23      1.0000 0.95560  0.16300  0.60390  Biso   1.000  N
  C72      1.0000 0.96990  0.18040  0.57330  Biso   1.000  C
  N24      1.0000 0.95670  0.25050  0.54680  Biso   1.000  N
  Zn7      1.0000 0.11301  0.92617  0.55483  Biso   1.000  Zn
  Zn8      1.0000 0.34960  0.88732  0.92556  Biso   1.000  Zn
  Zn9      1.0000 0.33789  0.65389  0.73754  Biso   1.000  Zn
  I13      1.0000 0.09620  0.77120  0.58015  Biso   1.000  I
  I14      1.0000 0.12400  0.94731  0.48722  Biso   1.000  I
  I15      1.0000 0.27586  0.85395  0.92362  Biso   1.000  I
  I16      1.0000 0.40331  0.76278  0.93839  Biso   1.000  I
  I17      1.0000 0.38148  0.68337  0.81010  Biso   1.000  I
  I18      1.0000 0.27341  0.75247  0.70764  Biso   1.000  I
  N25      1.0000 0.16190  0.98290  0.59980  Biso   1.000  N
  C73      1.0000 0.17950  0.93720  0.63470  Biso   1.000  C
  H49      1.0000 0.17060  0.87640  0.63750  Biso   1.000  H
  C74      1.0000 0.21030  0.97710  0.66650  Biso   1.000  C
  H50      1.0000 0.22260  0.94340  0.69060  Biso   1.000  H
  C75      1.0000 0.22280  0.06530  0.66310  Biso   1.000  C
  C76      1.0000 0.20450  0.11280  0.62730  Biso   1.000  C
  H51      1.0000 0.21240  0.17410  0.62400  Biso   1.000  H
  C77      1.0000 0.17430  0.06820  0.59660  Biso   1.000  C
  H52      1.0000 0.16190  0.10020  0.57200  Biso   1.000  H
  N26      1.0000 0.34250  0.95560  0.87210  Biso   1.000  N
  C78      1.0000 0.34300  0.04660  0.87080  Biso   1.000  C
  H53      1.0000 0.35230  0.07960  0.89550  Biso   1.000  H
  C79      1.0000 0.33060  0.09550  0.83500  Biso   1.000  C
  H54      1.0000 0.33260  0.16050  0.83500  Biso   1.000  H
  C80      1.0000 0.31540  0.04730  0.79920  Biso   1.000  C
  C81      1.0000 0.31520  0.95230  0.80040  Biso   1.000  C
  H55      1.0000 0.30580  0.91800  0.77610  Biso   1.000  H
  C82      1.0000 0.32880  0.90730  0.83740  Biso   1.000  C
  H56      1.0000 0.32850  0.84210  0.83820  Biso   1.000  H
  N27      1.0000 0.32350  0.51700  0.73100  Biso   1.000  N
  C83      1.0000 0.34190  0.45970  0.76170  Biso   1.000  C
  H57      1.0000 0.36190  0.48410  0.78500  Biso   1.000  H
  C84      1.0000 0.33280  0.36690  0.76090  Biso   1.000  C
  H58      1.0000 0.34650  0.32850  0.78310  Biso   1.000  H
  C85      1.0000 0.30310  0.33070  0.72690  Biso   1.000  C
  C86      1.0000 0.28450  0.38970  0.69460  Biso   1.000  C
  H59      1.0000 0.26470  0.36700  0.67070  Biso   1.000  H
  C87      1.0000 0.29530  0.48070  0.69800  Biso   1.000  C
  H60      1.0000 0.28230  0.52030  0.67610  Biso   1.000  H
  C88      1.0000 0.25420  0.10930  0.69750  Biso   1.000  C
  N28      1.0000 0.27040  0.05740  0.73030  Biso   1.000  N
  C89      1.0000 0.29870  0.10090  0.76080  Biso   1.000  C
  N29      1.0000 0.31090  0.18600  0.76040  Biso   1.000  N
  C90      1.0000 0.29150  0.23250  0.72660  Biso   1.000  C
  N30      1.0000 0.26320  0.19840  0.69420  Biso   1.000  N
  N31      1.0000 0.37530  0.98690  0.96770  Biso   1.000  N
  C91      1.0000 0.35460  0.02360  0.99120  Biso   1.000  C
  H61      1.0000 0.32750  0.00210  0.98800  Biso   1.000  H
  C92      1.0000 0.37080  0.08970  0.01900  Biso   1.000  C
  H62      1.0000 0.35560  0.11230  0.03540  Biso   1.000  H
  C93      1.0000 0.41020  0.12450  0.02330  Biso   1.000  C
  C94      1.0000 0.43060  0.09060  0.99860  Biso   1.000  C
  H63      1.0000 0.45690  0.11390  0.99990  Biso   1.000  H
  C95      1.0000 0.41210  0.02170  0.97160  Biso   1.000  C
  H64      1.0000 0.42680  0.99790  0.95490  Biso   1.000  H
  N32      1.0000 0.37150  0.32830  0.19820  Biso   1.000  N
  C96      1.0000 0.38680  0.39890  0.18300  Biso   1.000  C
  H65      1.0000 0.38420  0.45930  0.19200  Biso   1.000  H
  C97      1.0000 0.40630  0.38560  0.15410  Biso   1.000  C
  H66      1.0000 0.41820  0.43620  0.14460  Biso   1.000  H
  C98      1.0000 0.40850  0.29770  0.13940  Biso   1.000  C
  C99      1.0000 0.39290  0.22610  0.15560  Biso   1.000  C
  H67      1.0000 0.39520  0.16500  0.14700  Biso   1.000  H
  C100     1.0000 0.37380  0.24260  0.18450  Biso   1.000  C
  H68      1.0000 0.36210  0.19280  0.19480  Biso   1.000  H
  N33      1.0000 0.56590  0.48940  0.05890  Biso   1.000  N
  C101     1.0000 0.55860  0.48200  0.09480  Biso   1.000  C
  H69      1.0000 0.57570  0.51560  0.11730  Biso   1.000  H
  C102     1.0000 0.52830  0.42890  0.10020  Biso   1.000  C
  H70      1.0000 0.52420  0.42590  0.12580  Biso   1.000  H
  C103     1.0000 0.50310  0.37880  0.06780  Biso   1.000  C
  C104     1.0000 0.50990  0.38520  0.03120  Biso   1.000  C
  H71      1.0000 0.49310  0.35240  0.00840  Biso   1.000  H
  C105     1.0000 0.54170  0.44030  0.02840  Biso   1.000  C
  H72      1.0000 0.54670  0.44340  0.00320  Biso   1.000  H
  C106     1.0000 0.42630  0.19840  0.05240  Biso   1.000  C
  N34      1.0000 0.41060  0.21090  0.08250  Biso   1.000  N
  C107     1.0000 0.42710  0.28160  0.10690  Biso   1.000  C
  N35      1.0000 0.45560  0.33700  0.10390  Biso   1.000  N
  C108     1.0000 0.46990  0.31960  0.07330  Biso   1.000  C
  N36      1.0000 0.45670  0.24950  0.04680  Biso   1.000  N
  Zn10     1.0000 0.61301  0.42617  0.55483  Biso   1.000  Zn
  Zn11     1.0000 0.84960  0.38732  0.92556  Biso   1.000  Zn
  Zn12     1.0000 0.83789  0.15389  0.73754  Biso   1.000  Zn
  I19      1.0000 0.59620  0.27120  0.58015  Biso   1.000  I
  I20      1.0000 0.62400  0.44731  0.48722  Biso   1.000  I
  I21      1.0000 0.77586  0.35395  0.92362  Biso   1.000  I
  I22      1.0000 0.90331  0.26278  0.93839  Biso   1.000  I
  I23      1.0000 0.88148  0.18337  0.81010  Biso   1.000  I
  I24      1.0000 0.77341  0.25247  0.70764  Biso   1.000  I
  N37      1.0000 0.66190  0.48290  0.59980  Biso   1.000  N
  C109     1.0000 0.67950  0.43720  0.63470  Biso   1.000  C
  H73      1.0000 0.67060  0.37640  0.63750  Biso   1.000  H
  C110     1.0000 0.71030  0.47710  0.66650  Biso   1.000  C
  H74      1.0000 0.72260  0.44340  0.69060  Biso   1.000  H
  C111     1.0000 0.72280  0.56530  0.66310  Biso   1.000  C
  C112     1.0000 0.70450  0.61280  0.62730  Biso   1.000  C
  H75      1.0000 0.71240  0.67410  0.62400  Biso   1.000  H
  C113     1.0000 0.67430  0.56820  0.59660  Biso   1.000  C
  H76      1.0000 0.66190  0.60020  0.57200  Biso   1.000  H
  N38      1.0000 0.84250  0.45560  0.87210  Biso   1.000  N
  C114     1.0000 0.84300  0.54660  0.87080  Biso   1.000  C
  H77      1.0000 0.85230  0.57960  0.89550  Biso   1.000  H
  C115     1.0000 0.83060  0.59550  0.83500  Biso   1.000  C
  H78      1.0000 0.83260  0.66050  0.83500  Biso   1.000  H
  C116     1.0000 0.81540  0.54730  0.79920  Biso   1.000  C
  C117     1.0000 0.81520  0.45230  0.80040  Biso   1.000  C
  H79      1.0000 0.80580  0.41800  0.77610  Biso   1.000  H
  C118     1.0000 0.82880  0.40730  0.83740  Biso   1.000  C
  H80      1.0000 0.82850  0.34210  0.83820  Biso   1.000  H
  N39      1.0000 0.82350  0.01700  0.73100  Biso   1.000  N
  C119     1.0000 0.84190  0.95970  0.76170  Biso   1.000  C
  H81      1.0000 0.86190  0.98410  0.78500  Biso   1.000  H
  C120     1.0000 0.83280  0.86690  0.76090  Biso   1.000  C
  H82      1.0000 0.84650  0.82850  0.78310  Biso   1.000  H
  C121     1.0000 0.80310  0.83070  0.72690  Biso   1.000  C
  C122     1.0000 0.78450  0.88970  0.69460  Biso   1.000  C
  H83      1.0000 0.76470  0.86700  0.67070  Biso   1.000  H
  C123     1.0000 0.79530  0.98070  0.69800  Biso   1.000  C
  H84      1.0000 0.78230  0.02030  0.67610  Biso   1.000  H
  C124     1.0000 0.75420  0.60930  0.69750  Biso   1.000  C
  N40      1.0000 0.77040  0.55740  0.73030  Biso   1.000  N
  C125     1.0000 0.79870  0.60090  0.76080  Biso   1.000  C
  N41      1.0000 0.81090  0.68600  0.76040  Biso   1.000  N
  C126     1.0000 0.79150  0.73250  0.72660  Biso   1.000  C
  N42      1.0000 0.76320  0.69840  0.69420  Biso   1.000  N
  N43      1.0000 0.87530  0.48690  0.96770  Biso   1.000  N
  C127     1.0000 0.85460  0.52360  0.99120  Biso   1.000  C
  H85      1.0000 0.82750  0.50210  0.98800  Biso   1.000  H
  C128     1.0000 0.87080  0.58970  0.01900  Biso   1.000  C
  H86      1.0000 0.85560  0.61230  0.03540  Biso   1.000  H
  C129     1.0000 0.91020  0.62450  0.02330  Biso   1.000  C
  C130     1.0000 0.93060  0.59060  0.99860  Biso   1.000  C
  H87      1.0000 0.95690  0.61390  0.99990  Biso   1.000  H
  C131     1.0000 0.91210  0.52170  0.97160  Biso   1.000  C
  H88      1.0000 0.92680  0.49790  0.95490  Biso   1.000  H
  N44      1.0000 0.87150  0.82830  0.19820  Biso   1.000  N
  C132     1.0000 0.88680  0.89890  0.18300  Biso   1.000  C
  H89      1.0000 0.88420  0.95930  0.19200  Biso   1.000  H
  C133     1.0000 0.90630  0.88560  0.15410  Biso   1.000  C
  H90      1.0000 0.91820  0.93620  0.14460  Biso   1.000  H
  C134     1.0000 0.90850  0.79770  0.13940  Biso   1.000  C
  C135     1.0000 0.89290  0.72610  0.15560  Biso   1.000  C
  H91      1.0000 0.89520  0.66500  0.14700  Biso   1.000  H
  C136     1.0000 0.87380  0.74260  0.18450  Biso   1.000  C
  H92      1.0000 0.86210  0.69280  0.19480  Biso   1.000  H
  N45      1.0000 0.06590  0.98940  0.05890  Biso   1.000  N
  C137     1.0000 0.05860  0.98200  0.09480  Biso   1.000  C
  H93      1.0000 0.07570  0.01560  0.11730  Biso   1.000  H
  C138     1.0000 0.02830  0.92890  0.10020  Biso   1.000  C
  H94      1.0000 0.02420  0.92590  0.12580  Biso   1.000  H
  C139     1.0000 0.00310  0.87880  0.06780  Biso   1.000  C
  C140     1.0000 0.00990  0.88520  0.03120  Biso   1.000  C
  H95      1.0000 0.99310  0.85240  0.00840  Biso   1.000  H
  C141     1.0000 0.04170  0.94030  0.02840  Biso   1.000  C
  H96      1.0000 0.04670  0.94340  0.00320  Biso   1.000  H
  C142     1.0000 0.92630  0.69840  0.05240  Biso   1.000  C
  N46      1.0000 0.91060  0.71090  0.08250  Biso   1.000  N
  C143     1.0000 0.92710  0.78160  0.10690  Biso   1.000  C
  N47      1.0000 0.95560  0.83700  0.10390  Biso   1.000  N
  C144     1.0000 0.96990  0.81960  0.07330  Biso   1.000  C
  N48      1.0000 0.95670  0.74950  0.04680  Biso   1.000  N
  Zn13     1.0000 0.88699  0.07383  0.44517  Biso   1.000  Zn
  Zn14     1.0000 0.65040  0.11268  0.07444  Biso   1.000  Zn
  Zn15     1.0000 0.66211  0.34611  0.26246  Biso   1.000  Zn
  I25      1.0000 0.90380  0.22880  0.41985  Biso   1.000  I
  I26      1.0000 0.87600  0.05269  0.51278  Biso   1.000  I
  I27      1.0000 0.72414  0.14605  0.07638  Biso   1.000  I
  I28      1.0000 0.59669  0.23722  0.06161  Biso   1.000  I
  I29      1.0000 0.61852  0.31663  0.18990  Biso   1.000  I
  I30      1.0000 0.72659  0.24753  0.29236  Biso   1.000  I
  N49      1.0000 0.83810  0.01710  0.40020  Biso   1.000  N
  C145     1.0000 0.82050  0.06280  0.36530  Biso   1.000  C
  H97      1.0000 0.82940  0.12360  0.36250  Biso   1.000  H
  C146     1.0000 0.78970  0.02290  0.33350  Biso   1.000  C
  H98      1.0000 0.77740  0.05660  0.30940  Biso   1.000  H
  C147     1.0000 0.77720  0.93470  0.33690  Biso   1.000  C
  C148     1.0000 0.79550  0.88720  0.37270  Biso   1.000  C
  H99      1.0000 0.78760  0.82590  0.37600  Biso   1.000  H
  C149     1.0000 0.82570  0.93180  0.40340  Biso   1.000  C
  H100     1.0000 0.83810  0.89980  0.42800  Biso   1.000  H
  N50      1.0000 0.65750  0.04440  0.12790  Biso   1.000  N
  C150     1.0000 0.65700  0.95340  0.12920  Biso   1.000  C
  H101     1.0000 0.64770  0.92040  0.10450  Biso   1.000  H
  C151     1.0000 0.66940  0.90450  0.16500  Biso   1.000  C
  H102     1.0000 0.66740  0.83950  0.16500  Biso   1.000  H
  C152     1.0000 0.68460  0.95270  0.20080  Biso   1.000  C
  C153     1.0000 0.68480  0.04770  0.19960  Biso   1.000  C
  H103     1.0000 0.69420  0.08200  0.22390  Biso   1.000  H
  C154     1.0000 0.67120  0.09270  0.16260  Biso   1.000  C
  H104     1.0000 0.67150  0.15790  0.16180  Biso   1.000  H
  N51      1.0000 0.67650  0.48300  0.26900  Biso   1.000  N
  C155     1.0000 0.65810  0.54030  0.23830  Biso   1.000  C
  H105     1.0000 0.63810  0.51590  0.21500  Biso   1.000  H
  C156     1.0000 0.66720  0.63310  0.23910  Biso   1.000  C
  H106     1.0000 0.65350  0.67150  0.21690  Biso   1.000  H
  C157     1.0000 0.69690  0.66930  0.27310  Biso   1.000  C
  C158     1.0000 0.71550  0.61030  0.30540  Biso   1.000  C
  H107     1.0000 0.73530  0.63300  0.32930  Biso   1.000  H
  C159     1.0000 0.70470  0.51930  0.30200  Biso   1.000  C
  H108     1.0000 0.71770  0.47970  0.32390  Biso   1.000  H
  C160     1.0000 0.74580  0.89070  0.30250  Biso   1.000  C
  N52      1.0000 0.72960  0.94260  0.26970  Biso   1.000  N
  C161     1.0000 0.70130  0.89910  0.23920  Biso   1.000  C
  N53      1.0000 0.68910  0.81400  0.23960  Biso   1.000  N
  C162     1.0000 0.70850  0.76750  0.27340  Biso   1.000  C
  N54      1.0000 0.73680  0.80160  0.30580  Biso   1.000  N
  N55      1.0000 0.62470  0.01310  0.03230  Biso   1.000  N
  C163     1.0000 0.64540  0.97640  0.00880  Biso   1.000  C
  H109     1.0000 0.67250  0.99790  0.01200  Biso   1.000  H
  C164     1.0000 0.62920  0.91030  0.98100  Biso   1.000  C
  H110     1.0000 0.64440  0.88770  0.96460  Biso   1.000  H
  C165     1.0000 0.58980  0.87550  0.97670  Biso   1.000  C
  C166     1.0000 0.56940  0.90940  0.00140  Biso   1.000  C
  H111     1.0000 0.54310  0.88610  0.00010  Biso   1.000  H
  C167     1.0000 0.58790  0.97830  0.02840  Biso   1.000  C
  H112     1.0000 0.57320  0.00210  0.04510  Biso   1.000  H
  N56      1.0000 0.62850  0.67170  0.80180  Biso   1.000  N
  C168     1.0000 0.61320  0.60110  0.81700  Biso   1.000  C
  H113     1.0000 0.61580  0.54070  0.80800  Biso   1.000  H
  C169     1.0000 0.59370  0.61440  0.84590  Biso   1.000  C
  H114     1.0000 0.58180  0.56380  0.85540  Biso   1.000  H
  C170     1.0000 0.59150  0.70230  0.86060  Biso   1.000  C
  C171     1.0000 0.60710  0.77390  0.84440  Biso   1.000  C
  H115     1.0000 0.60480  0.83500  0.85300  Biso   1.000  H
  C172     1.0000 0.62620  0.75740  0.81550  Biso   1.000  C
  H116     1.0000 0.63790  0.80720  0.80520  Biso   1.000  H
  N57      1.0000 0.43410  0.51060  0.94110  Biso   1.000  N
  C173     1.0000 0.44140  0.51800  0.90520  Biso   1.000  C
  H117     1.0000 0.42430  0.48440  0.88270  Biso   1.000  H
  C174     1.0000 0.47170  0.57110  0.89980  Biso   1.000  C
  H118     1.0000 0.47580  0.57410  0.87420  Biso   1.000  H
  C175     1.0000 0.49690  0.62120  0.93220  Biso   1.000  C
  C176     1.0000 0.49010  0.61480  0.96880  Biso   1.000  C
  H119     1.0000 0.50690  0.64760  0.99160  Biso   1.000  H
  C177     1.0000 0.45830  0.55970  0.97160  Biso   1.000  C
  H120     1.0000 0.45330  0.55660  0.99680  Biso   1.000  H
  C178     1.0000 0.57370  0.80160  0.94760  Biso   1.000  C
  N58      1.0000 0.58940  0.78910  0.91750  Biso   1.000  N
  C179     1.0000 0.57290  0.71840  0.89310  Biso   1.000  C
  N59      1.0000 0.54440  0.66300  0.89610  Biso   1.000  N
  C180     1.0000 0.53010  0.68040  0.92670  Biso   1.000  C
  N60      1.0000 0.54330  0.75050  0.95320  Biso   1.000  N
  Zn16     1.0000 0.38699  0.57383  0.44517  Biso   1.000  Zn
  Zn17     1.0000 0.15040  0.61268  0.07444  Biso   1.000  Zn
  Zn18     1.0000 0.16211  0.84611  0.26246  Biso   1.000  Zn
  I31      1.0000 0.40380  0.72880  0.41985  Biso   1.000  I
  I32      1.0000 0.37600  0.55269  0.51278  Biso   1.000  I
  I33      1.0000 0.22414  0.64605  0.07638  Biso   1.000  I
  I34      1.0000 0.09669  0.73722  0.06161  Biso   1.000  I
  I35      1.0000 0.11852  0.81663  0.18990  Biso   1.000  I
  I36      1.0000 0.22659  0.74753  0.29236  Biso   1.000  I
  N61      1.0000 0.33810  0.51710  0.40020  Biso   1.000  N
  C181     1.0000 0.32050  0.56280  0.36530  Biso   1.000  C
  H121     1.0000 0.32940  0.62360  0.36250  Biso   1.000  H
  C182     1.0000 0.28970  0.52290  0.33350  Biso   1.000  C
  H122     1.0000 0.27740  0.55660  0.30940  Biso   1.000  H
  C183     1.0000 0.27720  0.43470  0.33690  Biso   1.000  C
  C184     1.0000 0.29550  0.38720  0.37270  Biso   1.000  C
  H123     1.0000 0.28760  0.32590  0.37600  Biso   1.000  H
  C185     1.0000 0.32570  0.43180  0.40340  Biso   1.000  C
  H124     1.0000 0.33810  0.39980  0.42800  Biso   1.000  H
  N62      1.0000 0.15750  0.54440  0.12790  Biso   1.000  N
  C186     1.0000 0.15700  0.45340  0.12920  Biso   1.000  C
  H125     1.0000 0.14770  0.42040  0.10450  Biso   1.000  H
  C187     1.0000 0.16940  0.40450  0.16500  Biso   1.000  C
  H126     1.0000 0.16740  0.33950  0.16500  Biso   1.000  H
  C188     1.0000 0.18460  0.45270  0.20080  Biso   1.000  C
  C189     1.0000 0.18480  0.54770  0.19960  Biso   1.000  C
  H127     1.0000 0.19420  0.58200  0.22390  Biso   1.000  H
  C190     1.0000 0.17120  0.59270  0.16260  Biso   1.000  C
  H128     1.0000 0.17150  0.65790  0.16180  Biso   1.000  H
  N63      1.0000 0.17650  0.98300  0.26900  Biso   1.000  N
  C191     1.0000 0.15810  0.04030  0.23830  Biso   1.000  C
  H129     1.0000 0.13810  0.01590  0.21500  Biso   1.000  H
  C192     1.0000 0.16720  0.13310  0.23910  Biso   1.000  C
  H130     1.0000 0.15350  0.17150  0.21690  Biso   1.000  H
  C193     1.0000 0.19690  0.16930  0.27310  Biso   1.000  C
  C194     1.0000 0.21550  0.11030  0.30540  Biso   1.000  C
  H131     1.0000 0.23530  0.13300  0.32930  Biso   1.000  H
  C195     1.0000 0.20470  0.01930  0.30200  Biso   1.000  C
  H132     1.0000 0.21770  0.97970  0.32390  Biso   1.000  H
  C196     1.0000 0.24580  0.39070  0.30250  Biso   1.000  C
  N64      1.0000 0.22960  0.44260  0.26970  Biso   1.000  N
  C197     1.0000 0.20130  0.39910  0.23920  Biso   1.000  C
  N65      1.0000 0.18910  0.31400  0.23960  Biso   1.000  N
  C198     1.0000 0.20850  0.26750  0.27340  Biso   1.000  C
  N66      1.0000 0.23680  0.30160  0.30580  Biso   1.000  N
  N67      1.0000 0.12470  0.51310  0.03230  Biso   1.000  N
  C199     1.0000 0.14540  0.47640  0.00880  Biso   1.000  C
  H133     1.0000 0.17250  0.49790  0.01200  Biso   1.000  H
  C200     1.0000 0.12920  0.41030  0.98100  Biso   1.000  C
  H134     1.0000 0.14440  0.38770  0.96460  Biso   1.000  H
  C201     1.0000 0.08980  0.37550  0.97670  Biso   1.000  C
  C202     1.0000 0.06940  0.40940  0.00140  Biso   1.000  C
  H135     1.0000 0.04310  0.38610  0.00010  Biso   1.000  H
  C203     1.0000 0.08790  0.47830  0.02840  Biso   1.000  C
  H136     1.0000 0.07320  0.50210  0.04510  Biso   1.000  H
  N68      1.0000 0.12850  0.17170  0.80180  Biso   1.000  N
  C204     1.0000 0.11320  0.10110  0.81700  Biso   1.000  C
  H137     1.0000 0.11580  0.04070  0.80800  Biso   1.000  H
  C205     1.0000 0.09370  0.11440  0.84590  Biso   1.000  C
  H138     1.0000 0.08180  0.06380  0.85540  Biso   1.000  H
  C206     1.0000 0.09150  0.20230  0.86060  Biso   1.000  C
  C207     1.0000 0.10710  0.27390  0.84440  Biso   1.000  C
  H139     1.0000 0.10480  0.33500  0.85300  Biso   1.000  H
  C208     1.0000 0.12620  0.25740  0.81550  Biso   1.000  C
  H140     1.0000 0.13790  0.30720  0.80520  Biso   1.000  H
  N69      1.0000 0.93410  0.01060  0.94110  Biso   1.000  N
  C209     1.0000 0.94140  0.01800  0.90520  Biso   1.000  C
  H141     1.0000 0.92430  0.98440  0.88270  Biso   1.000  H
  C210     1.0000 0.97170  0.07110  0.89980  Biso   1.000  C
  H142     1.0000 0.97580  0.07410  0.87420  Biso   1.000  H
  C211     1.0000 0.99690  0.12120  0.93220  Biso   1.000  C
  C212     1.0000 0.99010  0.11480  0.96880  Biso   1.000  C
  H143     1.0000 0.00690  0.14760  0.99160  Biso   1.000  H
  C213     1.0000 0.95830  0.05970  0.97160  Biso   1.000  C
  H144     1.0000 0.95330  0.05660  0.99680  Biso   1.000  H
  C214     1.0000 0.07370  0.30160  0.94760  Biso   1.000  C
  N70      1.0000 0.08940  0.28910  0.91750  Biso   1.000  N
  C215     1.0000 0.07290  0.21840  0.89310  Biso   1.000  C
  N71      1.0000 0.04440  0.16300  0.89610  Biso   1.000  N
  C216     1.0000 0.03010  0.18040  0.92670  Biso   1.000  C
  N72      1.0000 0.04330  0.25050  0.95320  Biso   1.000  N
  Zn19     1.0000 0.88699  0.92617  0.94517  Biso   1.000  Zn
  Zn20     1.0000 0.65040  0.88732  0.57444  Biso   1.000  Zn
  Zn21     1.0000 0.66211  0.65389  0.76246  Biso   1.000  Zn
  I37      1.0000 0.90380  0.77120  0.91985  Biso   1.000  I
  I38      1.0000 0.87600  0.94731  0.01278  Biso   1.000  I
  I39      1.0000 0.72414  0.85395  0.57638  Biso   1.000  I
  I40      1.0000 0.59669  0.76278  0.56161  Biso   1.000  I
  I41      1.0000 0.61852  0.68337  0.68990  Biso   1.000  I
  I42      1.0000 0.72659  0.75247  0.79236  Biso   1.000  I
  N73      1.0000 0.83810  0.98290  0.90020  Biso   1.000  N
  C217     1.0000 0.82050  0.93720  0.86530  Biso   1.000  C
  H145     1.0000 0.82940  0.87640  0.86250  Biso   1.000  H
  C218     1.0000 0.78970  0.97710  0.83350  Biso   1.000  C
  H146     1.0000 0.77740  0.94340  0.80940  Biso   1.000  H
  C219     1.0000 0.77720  0.06530  0.83690  Biso   1.000  C
  C220     1.0000 0.79550  0.11280  0.87270  Biso   1.000  C
  H147     1.0000 0.78760  0.17410  0.87600  Biso   1.000  H
  C221     1.0000 0.82570  0.06820  0.90340  Biso   1.000  C
  H148     1.0000 0.83810  0.10020  0.92800  Biso   1.000  H
  N74      1.0000 0.65750  0.95560  0.62790  Biso   1.000  N
  C222     1.0000 0.65700  0.04660  0.62920  Biso   1.000  C
  H149     1.0000 0.64770  0.07960  0.60450  Biso   1.000  H
  C223     1.0000 0.66940  0.09550  0.66500  Biso   1.000  C
  H150     1.0000 0.66740  0.16050  0.66500  Biso   1.000  H
  C224     1.0000 0.68460  0.04730  0.70080  Biso   1.000  C
  C225     1.0000 0.68480  0.95230  0.69960  Biso   1.000  C
  H151     1.0000 0.69420  0.91800  0.72390  Biso   1.000  H
  C226     1.0000 0.67120  0.90730  0.66260  Biso   1.000  C
  H152     1.0000 0.67150  0.84210  0.66180  Biso   1.000  H
  N75      1.0000 0.67650  0.51700  0.76900  Biso   1.000  N
  C227     1.0000 0.65810  0.45970  0.73830  Biso   1.000  C
  H153     1.0000 0.63810  0.48410  0.71500  Biso   1.000  H
  C228     1.0000 0.66720  0.36690  0.73910  Biso   1.000  C
  H154     1.0000 0.65350  0.32850  0.71690  Biso   1.000  H
  C229     1.0000 0.69690  0.33070  0.77310  Biso   1.000  C
  C230     1.0000 0.71550  0.38970  0.80540  Biso   1.000  C
  H155     1.0000 0.73530  0.36700  0.82930  Biso   1.000  H
  C231     1.0000 0.70470  0.48070  0.80200  Biso   1.000  C
  H156     1.0000 0.71770  0.52030  0.82390  Biso   1.000  H
  C232     1.0000 0.74580  0.10930  0.80250  Biso   1.000  C
  N76      1.0000 0.72960  0.05740  0.76970  Biso   1.000  N
  C233     1.0000 0.70130  0.10090  0.73920  Biso   1.000  C
  N77      1.0000 0.68910  0.18600  0.73960  Biso   1.000  N
  C234     1.0000 0.70850  0.23250  0.77340  Biso   1.000  C
  N78      1.0000 0.73680  0.19840  0.80580  Biso   1.000  N
  N79      1.0000 0.62470  0.98690  0.53230  Biso   1.000  N
  C235     1.0000 0.64540  0.02360  0.50880  Biso   1.000  C
  H157     1.0000 0.67250  0.00210  0.51200  Biso   1.000  H
  C236     1.0000 0.62920  0.08970  0.48100  Biso   1.000  C
  H158     1.0000 0.64440  0.11230  0.46460  Biso   1.000  H
  C237     1.0000 0.58980  0.12450  0.47670  Biso   1.000  C
  C238     1.0000 0.56940  0.09060  0.50140  Biso   1.000  C
  H159     1.0000 0.54310  0.11390  0.50010  Biso   1.000  H
  C239     1.0000 0.58790  0.02170  0.52840  Biso   1.000  C
  H160     1.0000 0.57320  0.99790  0.54510  Biso   1.000  H
  N80      1.0000 0.62850  0.32830  0.30180  Biso   1.000  N
  C240     1.0000 0.61320  0.39890  0.31700  Biso   1.000  C
  H161     1.0000 0.61580  0.45930  0.30800  Biso   1.000  H
  C241     1.0000 0.59370  0.38560  0.34590  Biso   1.000  C
  H162     1.0000 0.58180  0.43620  0.35540  Biso   1.000  H
  C242     1.0000 0.59150  0.29770  0.36060  Biso   1.000  C
  C243     1.0000 0.60710  0.22610  0.34440  Biso   1.000  C
  H163     1.0000 0.60480  0.16500  0.35300  Biso   1.000  H
  C244     1.0000 0.62620  0.24260  0.31550  Biso   1.000  C
  H164     1.0000 0.63790  0.19280  0.30520  Biso   1.000  H
  N81      1.0000 0.43410  0.48940  0.44110  Biso   1.000  N
  C245     1.0000 0.44140  0.48200  0.40520  Biso   1.000  C
  H165     1.0000 0.42430  0.51560  0.38270  Biso   1.000  H
  C246     1.0000 0.47170  0.42890  0.39980  Biso   1.000  C
  H166     1.0000 0.47580  0.42590  0.37420  Biso   1.000  H
  C247     1.0000 0.49690  0.37880  0.43220  Biso   1.000  C
  C248     1.0000 0.49010  0.38520  0.46880  Biso   1.000  C
  H167     1.0000 0.50690  0.35240  0.49160  Biso   1.000  H
  C249     1.0000 0.45830  0.44030  0.47160  Biso   1.000  C
  H168     1.0000 0.45330  0.44340  0.49680  Biso   1.000  H
  C250     1.0000 0.57370  0.19840  0.44760  Biso   1.000  C
  N82      1.0000 0.58940  0.21090  0.41750  Biso   1.000  N
  C251     1.0000 0.57290  0.28160  0.39310  Biso   1.000  C
  N83      1.0000 0.54440  0.33700  0.39610  Biso   1.000  N
  C252     1.0000 0.53010  0.31960  0.42670  Biso   1.000  C
  N84      1.0000 0.54330  0.24950  0.45320  Biso   1.000  N
  Zn22     1.0000 0.38699  0.42617  0.94517  Biso   1.000  Zn
  Zn23     1.0000 0.15040  0.38732  0.57444  Biso   1.000  Zn
  Zn24     1.0000 0.16211  0.15389  0.76246  Biso   1.000  Zn
  I43      1.0000 0.40380  0.27120  0.91985  Biso   1.000  I
  I44      1.0000 0.37600  0.44731  0.01278  Biso   1.000  I
  I45      1.0000 0.22414  0.35395  0.57638  Biso   1.000  I
  I46      1.0000 0.09669  0.26278  0.56161  Biso   1.000  I
  I47      1.0000 0.11852  0.18337  0.68990  Biso   1.000  I
  I48      1.0000 0.22659  0.25247  0.79236  Biso   1.000  I
  N85      1.0000 0.33810  0.48290  0.90020  Biso   1.000  N
  C253     1.0000 0.32050  0.43720  0.86530  Biso   1.000  C
  H169     1.0000 0.32940  0.37640  0.86250  Biso   1.000  H
  C254     1.0000 0.28970  0.47710  0.83350  Biso   1.000  C
  H170     1.0000 0.27740  0.44340  0.80940  Biso   1.000  H
  C255     1.0000 0.27720  0.56530  0.83690  Biso   1.000  C
  C256     1.0000 0.29550  0.61280  0.87270  Biso   1.000  C
  H171     1.0000 0.28760  0.67410  0.87600  Biso   1.000  H
  C257     1.0000 0.32570  0.56820  0.90340  Biso   1.000  C
  H172     1.0000 0.33810  0.60020  0.92800  Biso   1.000  H
  N86      1.0000 0.15750  0.45560  0.62790  Biso   1.000  N
  C258     1.0000 0.15700  0.54660  0.62920  Biso   1.000  C
  H173     1.0000 0.14770  0.57960  0.60450  Biso   1.000  H
  C259     1.0000 0.16940  0.59550  0.66500  Biso   1.000  C
  H174     1.0000 0.16740  0.66050  0.66500  Biso   1.000  H
  C260     1.0000 0.18460  0.54730  0.70080  Biso   1.000  C
  C261     1.0000 0.18480  0.45230  0.69960  Biso   1.000  C
  H175     1.0000 0.19420  0.41800  0.72390  Biso   1.000  H
  C262     1.0000 0.17120  0.40730  0.66260  Biso   1.000  C
  H176     1.0000 0.17150  0.34210  0.66180  Biso   1.000  H
  N87      1.0000 0.17650  0.01700  0.76900  Biso   1.000  N
  C263     1.0000 0.15810  0.95970  0.73830  Biso   1.000  C
  H177     1.0000 0.13810  0.98410  0.71500  Biso   1.000  H
  C264     1.0000 0.16720  0.86690  0.73910  Biso   1.000  C
  H178     1.0000 0.15350  0.82850  0.71690  Biso   1.000  H
  C265     1.0000 0.19690  0.83070  0.77310  Biso   1.000  C
  C266     1.0000 0.21550  0.88970  0.80540  Biso   1.000  C
  H179     1.0000 0.23530  0.86700  0.82930  Biso   1.000  H
  C267     1.0000 0.20470  0.98070  0.80200  Biso   1.000  C
  H180     1.0000 0.21770  0.02030  0.82390  Biso   1.000  H
  C268     1.0000 0.24580  0.60930  0.80250  Biso   1.000  C
  N88      1.0000 0.22960  0.55740  0.76970  Biso   1.000  N
  C269     1.0000 0.20130  0.60090  0.73920  Biso   1.000  C
  N89      1.0000 0.18910  0.68600  0.73960  Biso   1.000  N
  C270     1.0000 0.20850  0.73250  0.77340  Biso   1.000  C
  N90      1.0000 0.23680  0.69840  0.80580  Biso   1.000  N
  N91      1.0000 0.12470  0.48690  0.53230  Biso   1.000  N
  C271     1.0000 0.14540  0.52360  0.50880  Biso   1.000  C
  H181     1.0000 0.17250  0.50210  0.51200  Biso   1.000  H
  C272     1.0000 0.12920  0.58970  0.48100  Biso   1.000  C
  H182     1.0000 0.14440  0.61230  0.46460  Biso   1.000  H
  C273     1.0000 0.08980  0.62450  0.47670  Biso   1.000  C
  C274     1.0000 0.06940  0.59060  0.50140  Biso   1.000  C
  H183     1.0000 0.04310  0.61390  0.50010  Biso   1.000  H
  C275     1.0000 0.08790  0.52170  0.52840  Biso   1.000  C
  H184     1.0000 0.07320  0.49790  0.54510  Biso   1.000  H
  N92      1.0000 0.12850  0.82830  0.30180  Biso   1.000  N
  C276     1.0000 0.11320  0.89890  0.31700  Biso   1.000  C
  H185     1.0000 0.11580  0.95930  0.30800  Biso   1.000  H
  C277     1.0000 0.09370  0.88560  0.34590  Biso   1.000  C
  H186     1.0000 0.08180  0.93620  0.35540  Biso   1.000  H
  C278     1.0000 0.09150  0.79770  0.36060  Biso   1.000  C
  C279     1.0000 0.10710  0.72610  0.34440  Biso   1.000  C
  H187     1.0000 0.10480  0.66500  0.35300  Biso   1.000  H
  C280     1.0000 0.12620  0.74260  0.31550  Biso   1.000  C
  H188     1.0000 0.13790  0.69280  0.30520  Biso   1.000  H
  N93      1.0000 0.93410  0.98940  0.44110  Biso   1.000  N
  C281     1.0000 0.94140  0.98200  0.40520  Biso   1.000  C
  H189     1.0000 0.92430  0.01560  0.38270  Biso   1.000  H
  C282     1.0000 0.97170  0.92890  0.39980  Biso   1.000  C
  H190     1.0000 0.97580  0.92590  0.37420  Biso   1.000  H
  C283     1.0000 0.99690  0.87880  0.43220  Biso   1.000  C
  C284     1.0000 0.99010  0.88520  0.46880  Biso   1.000  C
  H191     1.0000 0.00690  0.85240  0.49160  Biso   1.000  H
  C285     1.0000 0.95830  0.94030  0.47160  Biso   1.000  C
  H192     1.0000 0.95330  0.94340  0.49680  Biso   1.000  H
  C286     1.0000 0.07370  0.69840  0.44760  Biso   1.000  C
  N94      1.0000 0.08940  0.71090  0.41750  Biso   1.000  N
  C287     1.0000 0.07290  0.78160  0.39310  Biso   1.000  C
  N95      1.0000 0.04440  0.83700  0.39610  Biso   1.000  N
  C288     1.0000 0.03010  0.81960  0.42670  Biso   1.000  C
  N96      1.0000 0.04330  0.74950  0.45320  Biso   1.000  N
