data_image0
_cell_length_a       29.689
_cell_length_b       19.312
_cell_length_c       29.424
_cell_angle_alpha    90
_cell_angle_beta     107.292
_cell_angle_gamma    90

_symmetry_space_group_name_H-M    "P 1"
_symmetry_int_tables_number       1

loop_
  _symmetry_equiv_pos_as_xyz
  'x, y, z'

loop_
  _atom_site_label
  _atom_site_occupancy
  _atom_site_fract_x
  _atom_site_fract_y
  _atom_site_fract_z
  _atom_site_thermal_displace_type
  _atom_site_B_iso_or_equiv
  _atom_site_type_symbol
  C1       1.0000 0.27789  0.28772  0.29223  Biso   1.000  C
  C2       1.0000 0.63308  0.92624  0.30891  Biso   1.000  C
  C3       1.0000 0.39464  0.22310  0.28304  Biso   1.000  C
  H1       1.0000 0.40560  0.18810  0.26740  Biso   1.000  H
  C4       1.0000 0.27614  0.14988  0.36293  Biso   1.000  C
  C5       1.0000 0.20185  0.19424  0.48980  Biso   1.000  C
  H2       1.0000 0.19530  0.24140  0.48640  Biso   1.000  H
  C6       1.0000 0.32977  0.28245  0.29942  Biso   1.000  C
  C7       1.0000 0.61592  0.85864  0.40837  Biso   1.000  C
  C8       1.0000 0.61120  0.99414  0.31375  Biso   1.000  C
  C9       1.0000 0.64204  0.79828  0.39748  Biso   1.000  C
  C10      1.0000 0.47498  0.09290  0.44889  Biso   1.000  C
  C11      1.0000 0.64063  0.91860  0.42723  Biso   1.000  C
  H3       1.0000 0.67290  0.92130  0.43160  Biso   1.000  H
  C12      1.0000 0.55155  0.31790  0.31970  Biso   1.000  C
  C13      1.0000 0.34781  0.14110  0.43396  Biso   1.000  C
  H4       1.0000 0.32960  0.15610  0.45290  Biso   1.000  H
  C14      1.0000 0.35457  0.10881  0.35749  Biso   1.000  C
  H5       1.0000 0.34080  0.10070  0.32520  Biso   1.000  H
  C15      1.0000 0.21955  0.09538  0.54039  Biso   1.000  C
  C16      1.0000 0.64971  0.57465  0.31489  Biso   1.000  C
  C17      1.0000 0.32721  0.13205  0.38517  Biso   1.000  C
  C18      1.0000 0.34667  0.23097  0.27565  Biso   1.000  C
  H6       1.0000 0.32560  0.20170  0.25470  Biso   1.000  H
  C19      1.0000 0.50428  0.32160  0.31917  Biso   1.000  C
  H7       1.0000 0.49030  0.36460  0.31920  Biso   1.000  H
  C20      1.0000 0.64794  0.21000  0.70140  Biso   1.000  C
  C21      1.0000 0.56755  0.85590  0.40005  Biso   1.000  C
  H8       1.0000 0.55080  0.81670  0.38620  Biso   1.000  H
  C22      1.0000 0.61731  0.97350  0.43938  Biso   1.000  C
  H9       1.0000 0.63400  0.01330  0.45210  Biso   1.000  H
  C23      1.0000 0.42375  0.10700  0.42658  Biso   1.000  C
  C24      1.0000 0.56911  0.12322  0.31991  Biso   1.000  C
  C25      1.0000 0.22512  0.99440  0.59315  Biso   1.000  C
  H10      1.0000 0.22590  0.96700  0.56740  Biso   1.000  H
  C26      1.0000 0.20994  0.16486  0.53439  Biso   1.000  C
  H11      1.0000 0.20890  0.19200  0.56010  Biso   1.000  H
  C27      1.0000 0.40255  0.09753  0.37782  Biso   1.000  C
  H12      1.0000 0.42080  0.08350  0.35870  Biso   1.000  H
  C28      1.0000 0.47815  0.26210  0.31856  Biso   1.000  C
  C29      1.0000 0.42670  0.26762  0.31400  Biso   1.000  C
  C30      1.0000 0.49970  0.19792  0.31979  Biso   1.000  C
  H13      1.0000 0.48240  0.15790  0.32030  Biso   1.000  H
  C31      1.0000 0.36195  0.32596  0.33109  Biso   1.000  C
  H14      1.0000 0.35110  0.35980  0.34770  Biso   1.000  H
  C32      1.0000 0.22420  0.06160  0.58667  Biso   1.000  C
  H15      1.0000 0.22660  0.08990  0.61290  Biso   1.000  H
  C33      1.0000 0.22507  0.95820  0.63680  Biso   1.000  C
  C34      1.0000 0.49991  0.12650  0.49051  Biso   1.000  C
  H16      1.0000 0.48520  0.16120  0.50290  Biso   1.000  H
  C35      1.0000 0.57187  0.25299  0.31979  Biso   1.000  C
  H17      1.0000 0.60300  0.25020  0.31950  Biso   1.000  H
  C36      1.0000 0.57249  0.13780  0.56131  Biso   1.000  C
  C37      1.0000 0.39533  0.12780  0.45424  Biso   1.000  C
  H18      1.0000 0.40860  0.13290  0.48690  Biso   1.000  H
  C38      1.0000 0.62161  0.18620  0.65196  Biso   1.000  C
  C39      1.0000 0.54703  0.19242  0.32033  Biso   1.000  C
  C40      1.0000 0.54212  0.06380  0.30640  Biso   1.000  C
  H19      1.0000 0.50950  0.06690  0.29910  Biso   1.000  H
  C41      1.0000 0.49776  0.04350  0.42929  Biso   1.000  C
  H20      1.0000 0.48140  0.02170  0.40110  Biso   1.000  H
  C42      1.0000 0.22053  0.85080  0.67652  Biso   1.000  C
  H21      1.0000 0.22020  0.80260  0.67590  Biso   1.000  H
  C43      1.0000 0.57005  0.20710  0.57303  Biso   1.000  C
  H22      1.0000 0.55150  0.23750  0.55070  Biso   1.000  H
  C44      1.0000 0.22461  0.99078  0.67889  Biso   1.000  C
  H23      1.0000 0.22690  0.03870  0.68140  Biso   1.000  H
  C45      1.0000 0.56244  0.00040  0.30343  Biso   1.000  C
  H24      1.0000 0.54340  0.96140  0.29450  Biso   1.000  H
  C46      1.0000 0.56848  0.05900  0.49367  Biso   1.000  C
  H25      1.0000 0.59970  0.04740  0.50890  Biso   1.000  H
  C47      1.0000 0.54405  0.91150  0.41232  Biso   1.000  C
  H26      1.0000 0.51160  0.90930  0.40670  Biso   1.000  H
  C48      1.0000 0.40971  0.31870  0.33764  Biso   1.000  C
  H27      1.0000 0.43080  0.34850  0.35820  Biso   1.000  H
  C49      1.0000 0.56873  0.97070  0.43298  Biso   1.000  C
  C50      1.0000 0.54631  0.10920  0.51386  Biso   1.000  C
  C51      1.0000 0.22354  0.05930  0.50104  Biso   1.000  C
  H28      1.0000 0.23210  0.01280  0.50390  Biso   1.000  H
  C52      1.0000 0.22081  0.95203  0.71656  Biso   1.000  C
  H29      1.0000 0.22050  0.97500  0.74420  Biso   1.000  H
  C53      1.0000 0.60086  0.39370  0.28466  Biso   1.000  C
  H30      1.0000 0.60140  0.35870  0.26320  Biso   1.000  H
  C54      1.0000 0.54480  0.02610  0.45126  Biso   1.000  C
  C55      1.0000 0.60260  0.49640  0.35000  Biso   1.000  C
  H31      1.0000 0.60410  0.53010  0.37300  Biso   1.000  H
  C56      1.0000 0.59934  0.09350  0.59577  Biso   1.000  C
  H32      1.0000 0.60120  0.04690  0.58840  Biso   1.000  H
  C57      1.0000 0.57799  0.38294  0.31831  Biso   1.000  C
  C58      1.0000 0.62338  0.11660  0.64081  Biso   1.000  C
  H33      1.0000 0.64070  0.08570  0.66360  Biso   1.000  H
  C59      1.0000 0.21502  0.09190  0.45819  Biso   1.000  C
  H34      1.0000 0.21770  0.06630  0.43240  Biso   1.000  H
  C60      1.0000 0.62442  0.50737  0.31497  Biso   1.000  C
  C61      1.0000 0.59516  0.23160  0.61792  Biso   1.000  C
  H35      1.0000 0.59420  0.27830  0.62510  Biso   1.000  H
  C62      1.0000 0.61781  0.11570  0.33190  Biso   1.000  C
  H36      1.0000 0.63700  0.15420  0.34220  Biso   1.000  H
  C63      1.0000 0.63835  0.05230  0.32887  Biso   1.000  C
  H37      1.0000 0.67100  0.04890  0.33720  Biso   1.000  H
  C64      1.0000 0.62318  0.45620  0.28224  Biso   1.000  C
  H38      1.0000 0.63730  0.46340  0.25840  Biso   1.000  H
  C65      1.0000 0.57840  0.43520  0.35050  Biso   1.000  C
  H39      1.0000 0.56230  0.42910  0.37290  Biso   1.000  H
  C66      1.0000 0.22412  0.88590  0.63662  Biso   1.000  C
  H40      1.0000 0.22590  0.86150  0.61000  Biso   1.000  H
  Co1      1.0000 0.20092  0.17458  0.26970  Biso   1.000  Co
  Co2      1.0000 0.18894  0.19907  0.38114  Biso   1.000  Co
  Co3      1.0000 0.19283  0.33214  0.29956  Biso   1.000  Co
  N1       1.0000 0.20301  0.15848  0.45130  Biso   1.000  N
  N2       1.0000 0.21756  0.88253  0.71575  Biso   1.000  N
  O1       1.0000 0.64772  0.27309  0.71160  Biso   1.000  O
  O2       1.0000 0.66839  0.16246  0.72922  Biso   1.000  O
  O3       1.0000 0.25145  0.24703  0.26309  Biso   1.000  O
  O4       1.0000 0.26324  0.33272  0.31601  Biso   1.000  O
  O5       1.0000 0.65564  0.59439  0.27626  Biso   1.000  O
  O6       1.0000 0.66284  0.60547  0.35416  Biso   1.000  O
  O7       1.0000 0.25619  0.12876  0.32174  Biso   1.000  O
  O8       1.0000 0.25801  0.18737  0.38807  Biso   1.000  O
  O9       1.0000 0.17484  0.23818  0.31260  Biso   1.000  O
  O10      1.0000 0.68593  0.80210  0.40485  Biso   1.000  O
  O11      1.0000 0.62067  0.74219  0.38241  Biso   1.000  O
  O12      1.0000 0.67763  0.92329  0.32159  Biso   1.000  O
  O13      1.0000 0.60845  0.87519  0.29186  Biso   1.000  O
  C67      1.0000 0.77789  0.78772  0.29223  Biso   1.000  C
  C68      1.0000 0.13308  0.42624  0.30891  Biso   1.000  C
  C69      1.0000 0.89464  0.72310  0.28304  Biso   1.000  C
  H41      1.0000 0.90560  0.68810  0.26740  Biso   1.000  H
  C70      1.0000 0.77614  0.64988  0.36293  Biso   1.000  C
  C71      1.0000 0.70185  0.69424  0.48980  Biso   1.000  C
  H42      1.0000 0.69530  0.74140  0.48640  Biso   1.000  H
  C72      1.0000 0.82977  0.78245  0.29942  Biso   1.000  C
  C73      1.0000 0.11592  0.35864  0.40837  Biso   1.000  C
  C74      1.0000 0.11120  0.49414  0.31375  Biso   1.000  C
  C75      1.0000 0.14204  0.29828  0.39748  Biso   1.000  C
  C76      1.0000 0.97498  0.59290  0.44889  Biso   1.000  C
  C77      1.0000 0.14063  0.41860  0.42723  Biso   1.000  C
  H43      1.0000 0.17290  0.42130  0.43160  Biso   1.000  H
  C78      1.0000 0.05155  0.81790  0.31970  Biso   1.000  C
  C79      1.0000 0.84781  0.64110  0.43396  Biso   1.000  C
  H44      1.0000 0.82960  0.65610  0.45290  Biso   1.000  H
  C80      1.0000 0.85457  0.60881  0.35749  Biso   1.000  C
  H45      1.0000 0.84080  0.60070  0.32520  Biso   1.000  H
  C81      1.0000 0.71955  0.59538  0.54039  Biso   1.000  C
  C82      1.0000 0.14971  0.07465  0.31489  Biso   1.000  C
  C83      1.0000 0.82721  0.63205  0.38517  Biso   1.000  C
  C84      1.0000 0.84667  0.73097  0.27565  Biso   1.000  C
  H46      1.0000 0.82560  0.70170  0.25470  Biso   1.000  H
  C85      1.0000 0.00428  0.82160  0.31917  Biso   1.000  C
  H47      1.0000 0.99030  0.86460  0.31920  Biso   1.000  H
  C86      1.0000 0.14794  0.71000  0.70140  Biso   1.000  C
  C87      1.0000 0.06755  0.35590  0.40005  Biso   1.000  C
  H48      1.0000 0.05080  0.31670  0.38620  Biso   1.000  H
  C88      1.0000 0.11731  0.47350  0.43938  Biso   1.000  C
  H49      1.0000 0.13400  0.51330  0.45210  Biso   1.000  H
  C89      1.0000 0.92375  0.60700  0.42658  Biso   1.000  C
  C90      1.0000 0.06911  0.62322  0.31991  Biso   1.000  C
  C91      1.0000 0.72512  0.49440  0.59315  Biso   1.000  C
  H50      1.0000 0.72590  0.46700  0.56740  Biso   1.000  H
  C92      1.0000 0.70994  0.66486  0.53439  Biso   1.000  C
  H51      1.0000 0.70890  0.69200  0.56010  Biso   1.000  H
  C93      1.0000 0.90255  0.59753  0.37782  Biso   1.000  C
  H52      1.0000 0.92080  0.58350  0.35870  Biso   1.000  H
  C94      1.0000 0.97815  0.76210  0.31856  Biso   1.000  C
  C95      1.0000 0.92670  0.76762  0.31400  Biso   1.000  C
  C96      1.0000 0.99970  0.69792  0.31979  Biso   1.000  C
  H53      1.0000 0.98240  0.65790  0.32030  Biso   1.000  H
  C97      1.0000 0.86195  0.82596  0.33109  Biso   1.000  C
  H54      1.0000 0.85110  0.85980  0.34770  Biso   1.000  H
  C98      1.0000 0.72420  0.56160  0.58667  Biso   1.000  C
  H55      1.0000 0.72660  0.58990  0.61290  Biso   1.000  H
  C99      1.0000 0.72507  0.45820  0.63680  Biso   1.000  C
  C100     1.0000 0.99991  0.62650  0.49051  Biso   1.000  C
  H56      1.0000 0.98520  0.66120  0.50290  Biso   1.000  H
  C101     1.0000 0.07187  0.75299  0.31979  Biso   1.000  C
  H57      1.0000 0.10300  0.75020  0.31950  Biso   1.000  H
  C102     1.0000 0.07249  0.63780  0.56131  Biso   1.000  C
  C103     1.0000 0.89533  0.62780  0.45424  Biso   1.000  C
  H58      1.0000 0.90860  0.63290  0.48690  Biso   1.000  H
  C104     1.0000 0.12161  0.68620  0.65196  Biso   1.000  C
  C105     1.0000 0.04703  0.69242  0.32033  Biso   1.000  C
  C106     1.0000 0.04212  0.56380  0.30640  Biso   1.000  C
  H59      1.0000 0.00950  0.56690  0.29910  Biso   1.000  H
  C107     1.0000 0.99776  0.54350  0.42929  Biso   1.000  C
  H60      1.0000 0.98140  0.52170  0.40110  Biso   1.000  H
  C108     1.0000 0.72053  0.35080  0.67652  Biso   1.000  C
  H61      1.0000 0.72020  0.30260  0.67590  Biso   1.000  H
  C109     1.0000 0.07005  0.70710  0.57303  Biso   1.000  C
  H62      1.0000 0.05150  0.73750  0.55070  Biso   1.000  H
  C110     1.0000 0.72461  0.49078  0.67889  Biso   1.000  C
  H63      1.0000 0.72690  0.53870  0.68140  Biso   1.000  H
  C111     1.0000 0.06244  0.50040  0.30343  Biso   1.000  C
  H64      1.0000 0.04340  0.46140  0.29450  Biso   1.000  H
  C112     1.0000 0.06848  0.55900  0.49367  Biso   1.000  C
  H65      1.0000 0.09970  0.54740  0.50890  Biso   1.000  H
  C113     1.0000 0.04405  0.41150  0.41232  Biso   1.000  C
  H66      1.0000 0.01160  0.40930  0.40670  Biso   1.000  H
  C114     1.0000 0.90971  0.81870  0.33764  Biso   1.000  C
  H67      1.0000 0.93080  0.84850  0.35820  Biso   1.000  H
  C115     1.0000 0.06873  0.47070  0.43298  Biso   1.000  C
  C116     1.0000 0.04631  0.60920  0.51386  Biso   1.000  C
  C117     1.0000 0.72354  0.55930  0.50104  Biso   1.000  C
  H68      1.0000 0.73210  0.51280  0.50390  Biso   1.000  H
  C118     1.0000 0.72081  0.45203  0.71656  Biso   1.000  C
  H69      1.0000 0.72050  0.47500  0.74420  Biso   1.000  H
  C119     1.0000 0.10086  0.89370  0.28466  Biso   1.000  C
  H70      1.0000 0.10140  0.85870  0.26320  Biso   1.000  H
  C120     1.0000 0.04480  0.52610  0.45126  Biso   1.000  C
  C121     1.0000 0.10260  0.99640  0.35000  Biso   1.000  C
  H71      1.0000 0.10410  0.03010  0.37300  Biso   1.000  H
  C122     1.0000 0.09934  0.59350  0.59577  Biso   1.000  C
  H72      1.0000 0.10120  0.54690  0.58840  Biso   1.000  H
  C123     1.0000 0.07799  0.88294  0.31831  Biso   1.000  C
  C124     1.0000 0.12338  0.61660  0.64081  Biso   1.000  C
  H73      1.0000 0.14070  0.58570  0.66360  Biso   1.000  H
  C125     1.0000 0.71502  0.59190  0.45819  Biso   1.000  C
  H74      1.0000 0.71770  0.56630  0.43240  Biso   1.000  H
  C126     1.0000 0.12442  0.00737  0.31497  Biso   1.000  C
  C127     1.0000 0.09516  0.73160  0.61792  Biso   1.000  C
  H75      1.0000 0.09420  0.77830  0.62510  Biso   1.000  H
  C128     1.0000 0.11781  0.61570  0.33190  Biso   1.000  C
  H76      1.0000 0.13700  0.65420  0.34220  Biso   1.000  H
  C129     1.0000 0.13835  0.55230  0.32887  Biso   1.000  C
  H77      1.0000 0.17100  0.54890  0.33720  Biso   1.000  H
  C130     1.0000 0.12318  0.95620  0.28224  Biso   1.000  C
  H78      1.0000 0.13730  0.96340  0.25840  Biso   1.000  H
  C131     1.0000 0.07840  0.93520  0.35050  Biso   1.000  C
  H79      1.0000 0.06230  0.92910  0.37290  Biso   1.000  H
  C132     1.0000 0.72412  0.38590  0.63662  Biso   1.000  C
  H80      1.0000 0.72590  0.36150  0.61000  Biso   1.000  H
  Co4      1.0000 0.70092  0.67458  0.26970  Biso   1.000  Co
  Co5      1.0000 0.68894  0.69907  0.38114  Biso   1.000  Co
  Co6      1.0000 0.69283  0.83214  0.29956  Biso   1.000  Co
  N3       1.0000 0.70301  0.65848  0.45130  Biso   1.000  N
  N4       1.0000 0.71756  0.38253  0.71575  Biso   1.000  N
  O14      1.0000 0.14772  0.77309  0.71160  Biso   1.000  O
  O15      1.0000 0.16839  0.66246  0.72922  Biso   1.000  O
  O16      1.0000 0.75145  0.74703  0.26309  Biso   1.000  O
  O17      1.0000 0.76324  0.83272  0.31601  Biso   1.000  O
  O18      1.0000 0.15564  0.09439  0.27626  Biso   1.000  O
  O19      1.0000 0.16284  0.10547  0.35416  Biso   1.000  O
  O20      1.0000 0.75619  0.62876  0.32174  Biso   1.000  O
  O21      1.0000 0.75801  0.68737  0.38807  Biso   1.000  O
  O22      1.0000 0.67484  0.73818  0.31260  Biso   1.000  O
  O23      1.0000 0.18593  0.30210  0.40485  Biso   1.000  O
  O24      1.0000 0.12067  0.24219  0.38241  Biso   1.000  O
  O25      1.0000 0.17763  0.42329  0.32159  Biso   1.000  O
  O26      1.0000 0.10845  0.37519  0.29186  Biso   1.000  O
  C133     1.0000 0.27789  0.71228  0.79223  Biso   1.000  C
  C134     1.0000 0.63308  0.07376  0.80891  Biso   1.000  C
  C135     1.0000 0.39464  0.77690  0.78304  Biso   1.000  C
  H81      1.0000 0.40560  0.81190  0.76740  Biso   1.000  H
  C136     1.0000 0.27614  0.85012  0.86293  Biso   1.000  C
  C137     1.0000 0.20185  0.80576  0.98980  Biso   1.000  C
  H82      1.0000 0.19530  0.75860  0.98640  Biso   1.000  H
  C138     1.0000 0.32977  0.71755  0.79942  Biso   1.000  C
  C139     1.0000 0.61592  0.14136  0.90837  Biso   1.000  C
  C140     1.0000 0.61120  0.00586  0.81375  Biso   1.000  C
  C141     1.0000 0.64204  0.20172  0.89748  Biso   1.000  C
  C142     1.0000 0.47498  0.90710  0.94889  Biso   1.000  C
  C143     1.0000 0.64063  0.08140  0.92723  Biso   1.000  C
  H83      1.0000 0.67290  0.07870  0.93160  Biso   1.000  H
  C144     1.0000 0.55155  0.68210  0.81970  Biso   1.000  C
  C145     1.0000 0.34781  0.85890  0.93396  Biso   1.000  C
  H84      1.0000 0.32960  0.84390  0.95290  Biso   1.000  H
  C146     1.0000 0.35457  0.89119  0.85749  Biso   1.000  C
  H85      1.0000 0.34080  0.89930  0.82520  Biso   1.000  H
  C147     1.0000 0.21955  0.90462  0.04039  Biso   1.000  C
  C148     1.0000 0.64971  0.42535  0.81489  Biso   1.000  C
  C149     1.0000 0.32721  0.86795  0.88517  Biso   1.000  C
  C150     1.0000 0.34667  0.76903  0.77565  Biso   1.000  C
  H86      1.0000 0.32560  0.79830  0.75470  Biso   1.000  H
  C151     1.0000 0.50428  0.67840  0.81917  Biso   1.000  C
  H87      1.0000 0.49030  0.63540  0.81920  Biso   1.000  H
  C152     1.0000 0.64794  0.79000  0.20140  Biso   1.000  C
  C153     1.0000 0.56755  0.14410  0.90005  Biso   1.000  C
  H88      1.0000 0.55080  0.18330  0.88620  Biso   1.000  H
  C154     1.0000 0.61731  0.02650  0.93938  Biso   1.000  C
  H89      1.0000 0.63400  0.98670  0.95210  Biso   1.000  H
  C155     1.0000 0.42375  0.89300  0.92658  Biso   1.000  C
  C156     1.0000 0.56911  0.87678  0.81991  Biso   1.000  C
  C157     1.0000 0.22512  0.00560  0.09315  Biso   1.000  C
  H90      1.0000 0.22590  0.03300  0.06740  Biso   1.000  H
  C158     1.0000 0.20994  0.83514  0.03439  Biso   1.000  C
  H91      1.0000 0.20890  0.80800  0.06010  Biso   1.000  H
  C159     1.0000 0.40255  0.90247  0.87782  Biso   1.000  C
  H92      1.0000 0.42080  0.91650  0.85870  Biso   1.000  H
  C160     1.0000 0.47815  0.73790  0.81856  Biso   1.000  C
  C161     1.0000 0.42670  0.73238  0.81400  Biso   1.000  C
  C162     1.0000 0.49970  0.80208  0.81979  Biso   1.000  C
  H93      1.0000 0.48240  0.84210  0.82030  Biso   1.000  H
  C163     1.0000 0.36195  0.67404  0.83109  Biso   1.000  C
  H94      1.0000 0.35110  0.64020  0.84770  Biso   1.000  H
  C164     1.0000 0.22420  0.93840  0.08667  Biso   1.000  C
  H95      1.0000 0.22660  0.91010  0.11290  Biso   1.000  H
  C165     1.0000 0.22507  0.04180  0.13680  Biso   1.000  C
  C166     1.0000 0.49991  0.87350  0.99051  Biso   1.000  C
  H96      1.0000 0.48520  0.83880  0.00290  Biso   1.000  H
  C167     1.0000 0.57187  0.74701  0.81979  Biso   1.000  C
  H97      1.0000 0.60300  0.74980  0.81950  Biso   1.000  H
  C168     1.0000 0.57249  0.86220  0.06131  Biso   1.000  C
  C169     1.0000 0.39533  0.87220  0.95424  Biso   1.000  C
  H98      1.0000 0.40860  0.86710  0.98690  Biso   1.000  H
  C170     1.0000 0.62161  0.81380  0.15196  Biso   1.000  C
  C171     1.0000 0.54703  0.80758  0.82033  Biso   1.000  C
  C172     1.0000 0.54212  0.93620  0.80640  Biso   1.000  C
  H99      1.0000 0.50950  0.93310  0.79910  Biso   1.000  H
  C173     1.0000 0.49776  0.95650  0.92929  Biso   1.000  C
  H100     1.0000 0.48140  0.97830  0.90110  Biso   1.000  H
  C174     1.0000 0.22053  0.14920  0.17652  Biso   1.000  C
  H101     1.0000 0.22020  0.19740  0.17590  Biso   1.000  H
  C175     1.0000 0.57005  0.79290  0.07303  Biso   1.000  C
  H102     1.0000 0.55150  0.76250  0.05070  Biso   1.000  H
  C176     1.0000 0.22461  0.00922  0.17889  Biso   1.000  C
  H103     1.0000 0.22690  0.96130  0.18140  Biso   1.000  H
  C177     1.0000 0.56244  0.99960  0.80343  Biso   1.000  C
  H104     1.0000 0.54340  0.03860  0.79450  Biso   1.000  H
  C178     1.0000 0.56848  0.94100  0.99367  Biso   1.000  C
  H105     1.0000 0.59970  0.95260  0.00890  Biso   1.000  H
  C179     1.0000 0.54405  0.08850  0.91232  Biso   1.000  C
  H106     1.0000 0.51160  0.09070  0.90670  Biso   1.000  H
  C180     1.0000 0.40971  0.68130  0.83764  Biso   1.000  C
  H107     1.0000 0.43080  0.65150  0.85820  Biso   1.000  H
  C181     1.0000 0.56873  0.02930  0.93298  Biso   1.000  C
  C182     1.0000 0.54631  0.89080  0.01386  Biso   1.000  C
  C183     1.0000 0.22354  0.94070  0.00104  Biso   1.000  C
  H108     1.0000 0.23210  0.98720  0.00390  Biso   1.000  H
  C184     1.0000 0.22081  0.04797  0.21656  Biso   1.000  C
  H109     1.0000 0.22050  0.02500  0.24420  Biso   1.000  H
  C185     1.0000 0.60086  0.60630  0.78466  Biso   1.000  C
  H110     1.0000 0.60140  0.64130  0.76320  Biso   1.000  H
  C186     1.0000 0.54480  0.97390  0.95126  Biso   1.000  C
  C187     1.0000 0.60260  0.50360  0.85000  Biso   1.000  C
  H111     1.0000 0.60410  0.46990  0.87300  Biso   1.000  H
  C188     1.0000 0.59934  0.90650  0.09577  Biso   1.000  C
  H112     1.0000 0.60120  0.95310  0.08840  Biso   1.000  H
  C189     1.0000 0.57799  0.61706  0.81831  Biso   1.000  C
  C190     1.0000 0.62338  0.88340  0.14081  Biso   1.000  C
  H113     1.0000 0.64070  0.91430  0.16360  Biso   1.000  H
  C191     1.0000 0.21502  0.90810  0.95819  Biso   1.000  C
  H114     1.0000 0.21770  0.93370  0.93240  Biso   1.000  H
  C192     1.0000 0.62442  0.49263  0.81497  Biso   1.000  C
  C193     1.0000 0.59516  0.76840  0.11792  Biso   1.000  C
  H115     1.0000 0.59420  0.72170  0.12510  Biso   1.000  H
  C194     1.0000 0.61781  0.88430  0.83190  Biso   1.000  C
  H116     1.0000 0.63700  0.84580  0.84220  Biso   1.000  H
  C195     1.0000 0.63835  0.94770  0.82887  Biso   1.000  C
  H117     1.0000 0.67100  0.95110  0.83720  Biso   1.000  H
  C196     1.0000 0.62318  0.54380  0.78224  Biso   1.000  C
  H118     1.0000 0.63730  0.53660  0.75840  Biso   1.000  H
  C197     1.0000 0.57840  0.56480  0.85050  Biso   1.000  C
  H119     1.0000 0.56230  0.57090  0.87290  Biso   1.000  H
  C198     1.0000 0.22412  0.11410  0.13662  Biso   1.000  C
  H120     1.0000 0.22590  0.13850  0.11000  Biso   1.000  H
  Co7      1.0000 0.20092  0.82542  0.76970  Biso   1.000  Co
  Co8      1.0000 0.18894  0.80093  0.88114  Biso   1.000  Co
  Co9      1.0000 0.19283  0.66786  0.79956  Biso   1.000  Co
  N5       1.0000 0.20301  0.84152  0.95130  Biso   1.000  N
  N6       1.0000 0.21756  0.11747  0.21575  Biso   1.000  N
  O27      1.0000 0.64772  0.72691  0.21160  Biso   1.000  O
  O28      1.0000 0.66839  0.83754  0.22922  Biso   1.000  O
  O29      1.0000 0.25145  0.75297  0.76309  Biso   1.000  O
  O30      1.0000 0.26324  0.66728  0.81601  Biso   1.000  O
  O31      1.0000 0.65564  0.40561  0.77626  Biso   1.000  O
  O32      1.0000 0.66284  0.39453  0.85416  Biso   1.000  O
  O33      1.0000 0.25619  0.87124  0.82174  Biso   1.000  O
  O34      1.0000 0.25801  0.81263  0.88807  Biso   1.000  O
  O35      1.0000 0.17484  0.76182  0.81260  Biso   1.000  O
  O36      1.0000 0.68593  0.19790  0.90485  Biso   1.000  O
  O37      1.0000 0.62067  0.25781  0.88241  Biso   1.000  O
  O38      1.0000 0.67763  0.07671  0.82159  Biso   1.000  O
  O39      1.0000 0.60845  0.12481  0.79186  Biso   1.000  O
  C199     1.0000 0.77789  0.21228  0.79223  Biso   1.000  C
  C200     1.0000 0.13308  0.57376  0.80891  Biso   1.000  C
  C201     1.0000 0.89464  0.27690  0.78304  Biso   1.000  C
  H121     1.0000 0.90560  0.31190  0.76740  Biso   1.000  H
  C202     1.0000 0.77614  0.35012  0.86293  Biso   1.000  C
  C203     1.0000 0.70185  0.30576  0.98980  Biso   1.000  C
  H122     1.0000 0.69530  0.25860  0.98640  Biso   1.000  H
  C204     1.0000 0.82977  0.21755  0.79942  Biso   1.000  C
  C205     1.0000 0.11592  0.64136  0.90837  Biso   1.000  C
  C206     1.0000 0.11120  0.50586  0.81375  Biso   1.000  C
  C207     1.0000 0.14204  0.70172  0.89748  Biso   1.000  C
  C208     1.0000 0.97498  0.40710  0.94889  Biso   1.000  C
  C209     1.0000 0.14063  0.58140  0.92723  Biso   1.000  C
  H123     1.0000 0.17290  0.57870  0.93160  Biso   1.000  H
  C210     1.0000 0.05155  0.18210  0.81970  Biso   1.000  C
  C211     1.0000 0.84781  0.35890  0.93396  Biso   1.000  C
  H124     1.0000 0.82960  0.34390  0.95290  Biso   1.000  H
  C212     1.0000 0.85457  0.39119  0.85749  Biso   1.000  C
  H125     1.0000 0.84080  0.39930  0.82520  Biso   1.000  H
  C213     1.0000 0.71955  0.40462  0.04039  Biso   1.000  C
  C214     1.0000 0.14971  0.92535  0.81489  Biso   1.000  C
  C215     1.0000 0.82721  0.36795  0.88517  Biso   1.000  C
  C216     1.0000 0.84667  0.26903  0.77565  Biso   1.000  C
  H126     1.0000 0.82560  0.29830  0.75470  Biso   1.000  H
  C217     1.0000 0.00428  0.17840  0.81917  Biso   1.000  C
  H127     1.0000 0.99030  0.13540  0.81920  Biso   1.000  H
  C218     1.0000 0.14794  0.29000  0.20140  Biso   1.000  C
  C219     1.0000 0.06755  0.64410  0.90005  Biso   1.000  C
  H128     1.0000 0.05080  0.68330  0.88620  Biso   1.000  H
  C220     1.0000 0.11731  0.52650  0.93938  Biso   1.000  C
  H129     1.0000 0.13400  0.48670  0.95210  Biso   1.000  H
  C221     1.0000 0.92375  0.39300  0.92658  Biso   1.000  C
  C222     1.0000 0.06911  0.37678  0.81991  Biso   1.000  C
  C223     1.0000 0.72512  0.50560  0.09315  Biso   1.000  C
  H130     1.0000 0.72590  0.53300  0.06740  Biso   1.000  H
  C224     1.0000 0.70994  0.33514  0.03439  Biso   1.000  C
  H131     1.0000 0.70890  0.30800  0.06010  Biso   1.000  H
  C225     1.0000 0.90255  0.40247  0.87782  Biso   1.000  C
  H132     1.0000 0.92080  0.41650  0.85870  Biso   1.000  H
  C226     1.0000 0.97815  0.23790  0.81856  Biso   1.000  C
  C227     1.0000 0.92670  0.23238  0.81400  Biso   1.000  C
  C228     1.0000 0.99970  0.30208  0.81979  Biso   1.000  C
  H133     1.0000 0.98240  0.34210  0.82030  Biso   1.000  H
  C229     1.0000 0.86195  0.17404  0.83109  Biso   1.000  C
  H134     1.0000 0.85110  0.14020  0.84770  Biso   1.000  H
  C230     1.0000 0.72420  0.43840  0.08667  Biso   1.000  C
  H135     1.0000 0.72660  0.41010  0.11290  Biso   1.000  H
  C231     1.0000 0.72507  0.54180  0.13680  Biso   1.000  C
  C232     1.0000 0.99991  0.37350  0.99051  Biso   1.000  C
  H136     1.0000 0.98520  0.33880  0.00290  Biso   1.000  H
  C233     1.0000 0.07187  0.24701  0.81979  Biso   1.000  C
  H137     1.0000 0.10300  0.24980  0.81950  Biso   1.000  H
  C234     1.0000 0.07249  0.36220  0.06131  Biso   1.000  C
  C235     1.0000 0.89533  0.37220  0.95424  Biso   1.000  C
  H138     1.0000 0.90860  0.36710  0.98690  Biso   1.000  H
  C236     1.0000 0.12161  0.31380  0.15196  Biso   1.000  C
  C237     1.0000 0.04703  0.30758  0.82033  Biso   1.000  C
  C238     1.0000 0.04212  0.43620  0.80640  Biso   1.000  C
  H139     1.0000 0.00950  0.43310  0.79910  Biso   1.000  H
  C239     1.0000 0.99776  0.45650  0.92929  Biso   1.000  C
  H140     1.0000 0.98140  0.47830  0.90110  Biso   1.000  H
  C240     1.0000 0.72053  0.64920  0.17652  Biso   1.000  C
  H141     1.0000 0.72020  0.69740  0.17590  Biso   1.000  H
  C241     1.0000 0.07005  0.29290  0.07303  Biso   1.000  C
  H142     1.0000 0.05150  0.26250  0.05070  Biso   1.000  H
  C242     1.0000 0.72461  0.50922  0.17889  Biso   1.000  C
  H143     1.0000 0.72690  0.46130  0.18140  Biso   1.000  H
  C243     1.0000 0.06244  0.49960  0.80343  Biso   1.000  C
  H144     1.0000 0.04340  0.53860  0.79450  Biso   1.000  H
  C244     1.0000 0.06848  0.44100  0.99367  Biso   1.000  C
  H145     1.0000 0.09970  0.45260  0.00890  Biso   1.000  H
  C245     1.0000 0.04405  0.58850  0.91232  Biso   1.000  C
  H146     1.0000 0.01160  0.59070  0.90670  Biso   1.000  H
  C246     1.0000 0.90971  0.18130  0.83764  Biso   1.000  C
  H147     1.0000 0.93080  0.15150  0.85820  Biso   1.000  H
  C247     1.0000 0.06873  0.52930  0.93298  Biso   1.000  C
  C248     1.0000 0.04631  0.39080  0.01386  Biso   1.000  C
  C249     1.0000 0.72354  0.44070  0.00104  Biso   1.000  C
  H148     1.0000 0.73210  0.48720  0.00390  Biso   1.000  H
  C250     1.0000 0.72081  0.54797  0.21656  Biso   1.000  C
  H149     1.0000 0.72050  0.52500  0.24420  Biso   1.000  H
  C251     1.0000 0.10086  0.10630  0.78466  Biso   1.000  C
  H150     1.0000 0.10140  0.14130  0.76320  Biso   1.000  H
  C252     1.0000 0.04480  0.47390  0.95126  Biso   1.000  C
  C253     1.0000 0.10260  0.00360  0.85000  Biso   1.000  C
  H151     1.0000 0.10410  0.96990  0.87300  Biso   1.000  H
  C254     1.0000 0.09934  0.40650  0.09577  Biso   1.000  C
  H152     1.0000 0.10120  0.45310  0.08840  Biso   1.000  H
  C255     1.0000 0.07799  0.11706  0.81831  Biso   1.000  C
  C256     1.0000 0.12338  0.38340  0.14081  Biso   1.000  C
  H153     1.0000 0.14070  0.41430  0.16360  Biso   1.000  H
  C257     1.0000 0.71502  0.40810  0.95819  Biso   1.000  C
  H154     1.0000 0.71770  0.43370  0.93240  Biso   1.000  H
  C258     1.0000 0.12442  0.99263  0.81497  Biso   1.000  C
  C259     1.0000 0.09516  0.26840  0.11792  Biso   1.000  C
  H155     1.0000 0.09420  0.22170  0.12510  Biso   1.000  H
  C260     1.0000 0.11781  0.38430  0.83190  Biso   1.000  C
  H156     1.0000 0.13700  0.34580  0.84220  Biso   1.000  H
  C261     1.0000 0.13835  0.44770  0.82887  Biso   1.000  C
  H157     1.0000 0.17100  0.45110  0.83720  Biso   1.000  H
  C262     1.0000 0.12318  0.04380  0.78224  Biso   1.000  C
  H158     1.0000 0.13730  0.03660  0.75840  Biso   1.000  H
  C263     1.0000 0.07840  0.06480  0.85050  Biso   1.000  C
  H159     1.0000 0.06230  0.07090  0.87290  Biso   1.000  H
  C264     1.0000 0.72412  0.61410  0.13662  Biso   1.000  C
  H160     1.0000 0.72590  0.63850  0.11000  Biso   1.000  H
  Co10     1.0000 0.70092  0.32542  0.76970  Biso   1.000  Co
  Co11     1.0000 0.68894  0.30093  0.88114  Biso   1.000  Co
  Co12     1.0000 0.69283  0.16786  0.79956  Biso   1.000  Co
  N7       1.0000 0.70301  0.34152  0.95130  Biso   1.000  N
  N8       1.0000 0.71756  0.61747  0.21575  Biso   1.000  N
  O40      1.0000 0.14772  0.22691  0.21160  Biso   1.000  O
  O41      1.0000 0.16839  0.33754  0.22922  Biso   1.000  O
  O42      1.0000 0.75145  0.25297  0.76309  Biso   1.000  O
  O43      1.0000 0.76324  0.16728  0.81601  Biso   1.000  O
  O44      1.0000 0.15564  0.90561  0.77626  Biso   1.000  O
  O45      1.0000 0.16284  0.89453  0.85416  Biso   1.000  O
  O46      1.0000 0.75619  0.37124  0.82174  Biso   1.000  O
  O47      1.0000 0.75801  0.31263  0.88807  Biso   1.000  O
  O48      1.0000 0.67484  0.26182  0.81260  Biso   1.000  O
  O49      1.0000 0.18593  0.69790  0.90485  Biso   1.000  O
  O50      1.0000 0.12067  0.75781  0.88241  Biso   1.000  O
  O51      1.0000 0.17763  0.57671  0.82159  Biso   1.000  O
  O52      1.0000 0.10845  0.62481  0.79186  Biso   1.000  O
  C265     1.0000 0.72211  0.28772  0.20777  Biso   1.000  C
  C266     1.0000 0.36692  0.92624  0.19109  Biso   1.000  C
  C267     1.0000 0.60536  0.22310  0.21696  Biso   1.000  C
  H161     1.0000 0.59440  0.18810  0.23260  Biso   1.000  H
  C268     1.0000 0.72386  0.14988  0.13707  Biso   1.000  C
  C269     1.0000 0.79815  0.19424  0.01020  Biso   1.000  C
  H162     1.0000 0.80470  0.24140  0.01360  Biso   1.000  H
  C270     1.0000 0.67023  0.28245  0.20058  Biso   1.000  C
  C271     1.0000 0.38408  0.85864  0.09163  Biso   1.000  C
  C272     1.0000 0.38880  0.99414  0.18625  Biso   1.000  C
  C273     1.0000 0.35796  0.79828  0.10252  Biso   1.000  C
  C274     1.0000 0.52502  0.09290  0.05111  Biso   1.000  C
  C275     1.0000 0.35937  0.91860  0.07277  Biso   1.000  C
  H163     1.0000 0.32710  0.92130  0.06840  Biso   1.000  H
  C276     1.0000 0.44845  0.31790  0.18030  Biso   1.000  C
  C277     1.0000 0.65219  0.14110  0.06604  Biso   1.000  C
  H164     1.0000 0.67040  0.15610  0.04710  Biso   1.000  H
  C278     1.0000 0.64543  0.10881  0.14251  Biso   1.000  C
  H165     1.0000 0.65920  0.10070  0.17480  Biso   1.000  H
  C279     1.0000 0.78045  0.09538  0.95961  Biso   1.000  C
  C280     1.0000 0.35029  0.57465  0.18511  Biso   1.000  C
  C281     1.0000 0.67279  0.13205  0.11483  Biso   1.000  C
  C282     1.0000 0.65333  0.23097  0.22435  Biso   1.000  C
  H166     1.0000 0.67440  0.20170  0.24530  Biso   1.000  H
  C283     1.0000 0.49572  0.32160  0.18083  Biso   1.000  C
  H167     1.0000 0.50970  0.36460  0.18080  Biso   1.000  H
  C284     1.0000 0.35206  0.21000  0.79860  Biso   1.000  C
  C285     1.0000 0.43245  0.85590  0.09995  Biso   1.000  C
  H168     1.0000 0.44920  0.81670  0.11380  Biso   1.000  H
  C286     1.0000 0.38269  0.97350  0.06062  Biso   1.000  C
  H169     1.0000 0.36600  0.01330  0.04790  Biso   1.000  H
  C287     1.0000 0.57625  0.10700  0.07342  Biso   1.000  C
  C288     1.0000 0.43089  0.12322  0.18009  Biso   1.000  C
  C289     1.0000 0.77488  0.99440  0.90685  Biso   1.000  C
  H170     1.0000 0.77410  0.96700  0.93260  Biso   1.000  H
  C290     1.0000 0.79006  0.16486  0.96561  Biso   1.000  C
  H171     1.0000 0.79110  0.19200  0.93990  Biso   1.000  H
  C291     1.0000 0.59745  0.09753  0.12218  Biso   1.000  C
  H172     1.0000 0.57920  0.08350  0.14130  Biso   1.000  H
  C292     1.0000 0.52185  0.26210  0.18144  Biso   1.000  C
  C293     1.0000 0.57330  0.26762  0.18600  Biso   1.000  C
  C294     1.0000 0.50030  0.19792  0.18021  Biso   1.000  C
  H173     1.0000 0.51760  0.15790  0.17970  Biso   1.000  H
  C295     1.0000 0.63805  0.32596  0.16891  Biso   1.000  C
  H174     1.0000 0.64890  0.35980  0.15230  Biso   1.000  H
  C296     1.0000 0.77580  0.06160  0.91333  Biso   1.000  C
  H175     1.0000 0.77340  0.08990  0.88710  Biso   1.000  H
  C297     1.0000 0.77493  0.95820  0.86320  Biso   1.000  C
  C298     1.0000 0.50009  0.12650  0.00949  Biso   1.000  C
  H176     1.0000 0.51480  0.16120  0.99710  Biso   1.000  H
  C299     1.0000 0.42813  0.25299  0.18021  Biso   1.000  C
  H177     1.0000 0.39700  0.25020  0.18050  Biso   1.000  H
  C300     1.0000 0.42751  0.13780  0.93869  Biso   1.000  C
  C301     1.0000 0.60467  0.12780  0.04576  Biso   1.000  C
  H178     1.0000 0.59140  0.13290  0.01310  Biso   1.000  H
  C302     1.0000 0.37839  0.18620  0.84804  Biso   1.000  C
  C303     1.0000 0.45297  0.19242  0.17967  Biso   1.000  C
  C304     1.0000 0.45788  0.06380  0.19360  Biso   1.000  C
  H179     1.0000 0.49050  0.06690  0.20090  Biso   1.000  H
  C305     1.0000 0.50224  0.04350  0.07071  Biso   1.000  C
  H180     1.0000 0.51860  0.02170  0.09890  Biso   1.000  H
  C306     1.0000 0.77947  0.85080  0.82348  Biso   1.000  C
  H181     1.0000 0.77980  0.80260  0.82410  Biso   1.000  H
  C307     1.0000 0.42995  0.20710  0.92697  Biso   1.000  C
  H182     1.0000 0.44850  0.23750  0.94930  Biso   1.000  H
  C308     1.0000 0.77539  0.99078  0.82111  Biso   1.000  C
  H183     1.0000 0.77310  0.03870  0.81860  Biso   1.000  H
  C309     1.0000 0.43756  0.00040  0.19657  Biso   1.000  C
  H184     1.0000 0.45660  0.96140  0.20550  Biso   1.000  H
  C310     1.0000 0.43152  0.05900  0.00633  Biso   1.000  C
  H185     1.0000 0.40030  0.04740  0.99110  Biso   1.000  H
  C311     1.0000 0.45595  0.91150  0.08768  Biso   1.000  C
  H186     1.0000 0.48840  0.90930  0.09330  Biso   1.000  H
  C312     1.0000 0.59029  0.31870  0.16236  Biso   1.000  C
  H187     1.0000 0.56920  0.34850  0.14180  Biso   1.000  H
  C313     1.0000 0.43127  0.97070  0.06702  Biso   1.000  C
  C314     1.0000 0.45369  0.10920  0.98614  Biso   1.000  C
  C315     1.0000 0.77646  0.05930  0.99896  Biso   1.000  C
  H188     1.0000 0.76790  0.01280  0.99610  Biso   1.000  H
  C316     1.0000 0.77919  0.95203  0.78344  Biso   1.000  C
  H189     1.0000 0.77950  0.97500  0.75580  Biso   1.000  H
  C317     1.0000 0.39914  0.39370  0.21534  Biso   1.000  C
  H190     1.0000 0.39860  0.35870  0.23680  Biso   1.000  H
  C318     1.0000 0.45520  0.02610  0.04874  Biso   1.000  C
  C319     1.0000 0.39740  0.49640  0.15000  Biso   1.000  C
  H191     1.0000 0.39590  0.53010  0.12700  Biso   1.000  H
  C320     1.0000 0.40066  0.09350  0.90423  Biso   1.000  C
  H192     1.0000 0.39880  0.04690  0.91160  Biso   1.000  H
  C321     1.0000 0.42201  0.38294  0.18169  Biso   1.000  C
  C322     1.0000 0.37662  0.11660  0.85919  Biso   1.000  C
  H193     1.0000 0.35930  0.08570  0.83640  Biso   1.000  H
  C323     1.0000 0.78498  0.09190  0.04181  Biso   1.000  C
  H194     1.0000 0.78230  0.06630  0.06760  Biso   1.000  H
  C324     1.0000 0.37558  0.50737  0.18503  Biso   1.000  C
  C325     1.0000 0.40484  0.23160  0.88208  Biso   1.000  C
  H195     1.0000 0.40580  0.27830  0.87490  Biso   1.000  H
  C326     1.0000 0.38219  0.11570  0.16810  Biso   1.000  C
  H196     1.0000 0.36300  0.15420  0.15780  Biso   1.000  H
  C327     1.0000 0.36165  0.05230  0.17113  Biso   1.000  C
  H197     1.0000 0.32900  0.04890  0.16280  Biso   1.000  H
  C328     1.0000 0.37682  0.45620  0.21776  Biso   1.000  C
  H198     1.0000 0.36270  0.46340  0.24160  Biso   1.000  H
  C329     1.0000 0.42160  0.43520  0.14950  Biso   1.000  C
  H199     1.0000 0.43770  0.42910  0.12710  Biso   1.000  H
  C330     1.0000 0.77588  0.88590  0.86338  Biso   1.000  C
  H200     1.0000 0.77410  0.86150  0.89000  Biso   1.000  H
  Co13     1.0000 0.79908  0.17458  0.23030  Biso   1.000  Co
  Co14     1.0000 0.81106  0.19907  0.11886  Biso   1.000  Co
  Co15     1.0000 0.80717  0.33214  0.20044  Biso   1.000  Co
  N9       1.0000 0.79699  0.15848  0.04870  Biso   1.000  N
  N10      1.0000 0.78244  0.88253  0.78425  Biso   1.000  N
  O53      1.0000 0.35228  0.27309  0.78840  Biso   1.000  O
  O54      1.0000 0.33161  0.16246  0.77078  Biso   1.000  O
  O55      1.0000 0.74855  0.24703  0.23691  Biso   1.000  O
  O56      1.0000 0.73676  0.33272  0.18399  Biso   1.000  O
  O57      1.0000 0.34436  0.59439  0.22374  Biso   1.000  O
  O58      1.0000 0.33716  0.60547  0.14584  Biso   1.000  O
  O59      1.0000 0.74381  0.12876  0.17826  Biso   1.000  O
  O60      1.0000 0.74199  0.18737  0.11193  Biso   1.000  O
  O61      1.0000 0.82516  0.23818  0.18740  Biso   1.000  O
  O62      1.0000 0.31407  0.80210  0.09515  Biso   1.000  O
  O63      1.0000 0.37933  0.74219  0.11759  Biso   1.000  O
  O64      1.0000 0.32237  0.92329  0.17841  Biso   1.000  O
  O65      1.0000 0.39155  0.87519  0.20814  Biso   1.000  O
  C331     1.0000 0.22211  0.78772  0.20777  Biso   1.000  C
  C332     1.0000 0.86692  0.42624  0.19109  Biso   1.000  C
  C333     1.0000 0.10536  0.72310  0.21696  Biso   1.000  C
  H201     1.0000 0.09440  0.68810  0.23260  Biso   1.000  H
  C334     1.0000 0.22386  0.64988  0.13707  Biso   1.000  C
  C335     1.0000 0.29815  0.69424  0.01020  Biso   1.000  C
  H202     1.0000 0.30470  0.74140  0.01360  Biso   1.000  H
  C336     1.0000 0.17023  0.78245  0.20058  Biso   1.000  C
  C337     1.0000 0.88408  0.35864  0.09163  Biso   1.000  C
  C338     1.0000 0.88880  0.49414  0.18625  Biso   1.000  C
  C339     1.0000 0.85796  0.29828  0.10252  Biso   1.000  C
  C340     1.0000 0.02502  0.59290  0.05111  Biso   1.000  C
  C341     1.0000 0.85937  0.41860  0.07277  Biso   1.000  C
  H203     1.0000 0.82710  0.42130  0.06840  Biso   1.000  H
  C342     1.0000 0.94845  0.81790  0.18030  Biso   1.000  C
  C343     1.0000 0.15219  0.64110  0.06604  Biso   1.000  C
  H204     1.0000 0.17040  0.65610  0.04710  Biso   1.000  H
  C344     1.0000 0.14543  0.60881  0.14251  Biso   1.000  C
  H205     1.0000 0.15920  0.60070  0.17480  Biso   1.000  H
  C345     1.0000 0.28045  0.59538  0.95961  Biso   1.000  C
  C346     1.0000 0.85029  0.07465  0.18511  Biso   1.000  C
  C347     1.0000 0.17279  0.63205  0.11483  Biso   1.000  C
  C348     1.0000 0.15333  0.73097  0.22435  Biso   1.000  C
  H206     1.0000 0.17440  0.70170  0.24530  Biso   1.000  H
  C349     1.0000 0.99572  0.82160  0.18083  Biso   1.000  C
  H207     1.0000 0.00970  0.86460  0.18080  Biso   1.000  H
  C350     1.0000 0.85206  0.71000  0.79860  Biso   1.000  C
  C351     1.0000 0.93245  0.35590  0.09995  Biso   1.000  C
  H208     1.0000 0.94920  0.31670  0.11380  Biso   1.000  H
  C352     1.0000 0.88269  0.47350  0.06062  Biso   1.000  C
  H209     1.0000 0.86600  0.51330  0.04790  Biso   1.000  H
  C353     1.0000 0.07625  0.60700  0.07342  Biso   1.000  C
  C354     1.0000 0.93089  0.62322  0.18009  Biso   1.000  C
  C355     1.0000 0.27488  0.49440  0.90685  Biso   1.000  C
  H210     1.0000 0.27410  0.46700  0.93260  Biso   1.000  H
  C356     1.0000 0.29006  0.66486  0.96561  Biso   1.000  C
  H211     1.0000 0.29110  0.69200  0.93990  Biso   1.000  H
  C357     1.0000 0.09745  0.59753  0.12218  Biso   1.000  C
  H212     1.0000 0.07920  0.58350  0.14130  Biso   1.000  H
  C358     1.0000 0.02185  0.76210  0.18144  Biso   1.000  C
  C359     1.0000 0.07330  0.76762  0.18600  Biso   1.000  C
  C360     1.0000 0.00030  0.69792  0.18021  Biso   1.000  C
  H213     1.0000 0.01760  0.65790  0.17970  Biso   1.000  H
  C361     1.0000 0.13805  0.82596  0.16891  Biso   1.000  C
  H214     1.0000 0.14890  0.85980  0.15230  Biso   1.000  H
  C362     1.0000 0.27580  0.56160  0.91333  Biso   1.000  C
  H215     1.0000 0.27340  0.58990  0.88710  Biso   1.000  H
  C363     1.0000 0.27493  0.45820  0.86320  Biso   1.000  C
  C364     1.0000 0.00009  0.62650  0.00949  Biso   1.000  C
  H216     1.0000 0.01480  0.66120  0.99710  Biso   1.000  H
  C365     1.0000 0.92813  0.75299  0.18021  Biso   1.000  C
  H217     1.0000 0.89700  0.75020  0.18050  Biso   1.000  H
  C366     1.0000 0.92751  0.63780  0.93869  Biso   1.000  C
  C367     1.0000 0.10467  0.62780  0.04576  Biso   1.000  C
  H218     1.0000 0.09140  0.63290  0.01310  Biso   1.000  H
  C368     1.0000 0.87839  0.68620  0.84804  Biso   1.000  C
  C369     1.0000 0.95297  0.69242  0.17967  Biso   1.000  C
  C370     1.0000 0.95788  0.56380  0.19360  Biso   1.000  C
  H219     1.0000 0.99050  0.56690  0.20090  Biso   1.000  H
  C371     1.0000 0.00224  0.54350  0.07071  Biso   1.000  C
  H220     1.0000 0.01860  0.52170  0.09890  Biso   1.000  H
  C372     1.0000 0.27947  0.35080  0.82348  Biso   1.000  C
  H221     1.0000 0.27980  0.30260  0.82410  Biso   1.000  H
  C373     1.0000 0.92995  0.70710  0.92697  Biso   1.000  C
  H222     1.0000 0.94850  0.73750  0.94930  Biso   1.000  H
  C374     1.0000 0.27539  0.49078  0.82111  Biso   1.000  C
  H223     1.0000 0.27310  0.53870  0.81860  Biso   1.000  H
  C375     1.0000 0.93756  0.50040  0.19657  Biso   1.000  C
  H224     1.0000 0.95660  0.46140  0.20550  Biso   1.000  H
  C376     1.0000 0.93152  0.55900  0.00633  Biso   1.000  C
  H225     1.0000 0.90030  0.54740  0.99110  Biso   1.000  H
  C377     1.0000 0.95595  0.41150  0.08768  Biso   1.000  C
  H226     1.0000 0.98840  0.40930  0.09330  Biso   1.000  H
  C378     1.0000 0.09029  0.81870  0.16236  Biso   1.000  C
  H227     1.0000 0.06920  0.84850  0.14180  Biso   1.000  H
  C379     1.0000 0.93127  0.47070  0.06702  Biso   1.000  C
  C380     1.0000 0.95369  0.60920  0.98614  Biso   1.000  C
  C381     1.0000 0.27646  0.55930  0.99896  Biso   1.000  C
  H228     1.0000 0.26790  0.51280  0.99610  Biso   1.000  H
  C382     1.0000 0.27919  0.45203  0.78344  Biso   1.000  C
  H229     1.0000 0.27950  0.47500  0.75580  Biso   1.000  H
  C383     1.0000 0.89914  0.89370  0.21534  Biso   1.000  C
  H230     1.0000 0.89860  0.85870  0.23680  Biso   1.000  H
  C384     1.0000 0.95520  0.52610  0.04874  Biso   1.000  C
  C385     1.0000 0.89740  0.99640  0.15000  Biso   1.000  C
  H231     1.0000 0.89590  0.03010  0.12700  Biso   1.000  H
  C386     1.0000 0.90066  0.59350  0.90423  Biso   1.000  C
  H232     1.0000 0.89880  0.54690  0.91160  Biso   1.000  H
  C387     1.0000 0.92201  0.88294  0.18169  Biso   1.000  C
  C388     1.0000 0.87662  0.61660  0.85919  Biso   1.000  C
  H233     1.0000 0.85930  0.58570  0.83640  Biso   1.000  H
  C389     1.0000 0.28498  0.59190  0.04181  Biso   1.000  C
  H234     1.0000 0.28230  0.56630  0.06760  Biso   1.000  H
  C390     1.0000 0.87558  0.00737  0.18503  Biso   1.000  C
  C391     1.0000 0.90484  0.73160  0.88208  Biso   1.000  C
  H235     1.0000 0.90580  0.77830  0.87490  Biso   1.000  H
  C392     1.0000 0.88219  0.61570  0.16810  Biso   1.000  C
  H236     1.0000 0.86300  0.65420  0.15780  Biso   1.000  H
  C393     1.0000 0.86165  0.55230  0.17113  Biso   1.000  C
  H237     1.0000 0.82900  0.54890  0.16280  Biso   1.000  H
  C394     1.0000 0.87682  0.95620  0.21776  Biso   1.000  C
  H238     1.0000 0.86270  0.96340  0.24160  Biso   1.000  H
  C395     1.0000 0.92160  0.93520  0.14950  Biso   1.000  C
  H239     1.0000 0.93770  0.92910  0.12710  Biso   1.000  H
  C396     1.0000 0.27588  0.38590  0.86338  Biso   1.000  C
  H240     1.0000 0.27410  0.36150  0.89000  Biso   1.000  H
  Co16     1.0000 0.29908  0.67458  0.23030  Biso   1.000  Co
  Co17     1.0000 0.31106  0.69907  0.11886  Biso   1.000  Co
  Co18     1.0000 0.30717  0.83214  0.20044  Biso   1.000  Co
  N11      1.0000 0.29699  0.65848  0.04870  Biso   1.000  N
  N12      1.0000 0.28244  0.38253  0.78425  Biso   1.000  N
  O66      1.0000 0.85228  0.77309  0.78840  Biso   1.000  O
  O67      1.0000 0.83161  0.66246  0.77078  Biso   1.000  O
  O68      1.0000 0.24855  0.74703  0.23691  Biso   1.000  O
  O69      1.0000 0.23676  0.83272  0.18399  Biso   1.000  O
  O70      1.0000 0.84436  0.09439  0.22374  Biso   1.000  O
  O71      1.0000 0.83716  0.10547  0.14584  Biso   1.000  O
  O72      1.0000 0.24381  0.62876  0.17826  Biso   1.000  O
  O73      1.0000 0.24199  0.68737  0.11193  Biso   1.000  O
  O74      1.0000 0.32516  0.73818  0.18740  Biso   1.000  O
  O75      1.0000 0.81407  0.30210  0.09515  Biso   1.000  O
  O76      1.0000 0.87933  0.24219  0.11759  Biso   1.000  O
  O77      1.0000 0.82237  0.42329  0.17841  Biso   1.000  O
  O78      1.0000 0.89155  0.37519  0.20814  Biso   1.000  O
  C397     1.0000 0.72211  0.71228  0.70777  Biso   1.000  C
  C398     1.0000 0.36692  0.07376  0.69109  Biso   1.000  C
  C399     1.0000 0.60536  0.77690  0.71696  Biso   1.000  C
  H241     1.0000 0.59440  0.81190  0.73260  Biso   1.000  H
  C400     1.0000 0.72386  0.85012  0.63707  Biso   1.000  C
  C401     1.0000 0.79815  0.80576  0.51020  Biso   1.000  C
  H242     1.0000 0.80470  0.75860  0.51360  Biso   1.000  H
  C402     1.0000 0.67023  0.71755  0.70058  Biso   1.000  C
  C403     1.0000 0.38408  0.14136  0.59163  Biso   1.000  C
  C404     1.0000 0.38880  0.00586  0.68625  Biso   1.000  C
  C405     1.0000 0.35796  0.20172  0.60252  Biso   1.000  C
  C406     1.0000 0.52502  0.90710  0.55111  Biso   1.000  C
  C407     1.0000 0.35937  0.08140  0.57277  Biso   1.000  C
  H243     1.0000 0.32710  0.07870  0.56840  Biso   1.000  H
  C408     1.0000 0.44845  0.68210  0.68030  Biso   1.000  C
  C409     1.0000 0.65219  0.85890  0.56604  Biso   1.000  C
  H244     1.0000 0.67040  0.84390  0.54710  Biso   1.000  H
  C410     1.0000 0.64543  0.89119  0.64251  Biso   1.000  C
  H245     1.0000 0.65920  0.89930  0.67480  Biso   1.000  H
  C411     1.0000 0.78045  0.90462  0.45961  Biso   1.000  C
  C412     1.0000 0.35029  0.42535  0.68511  Biso   1.000  C
  C413     1.0000 0.67279  0.86795  0.61483  Biso   1.000  C
  C414     1.0000 0.65333  0.76903  0.72435  Biso   1.000  C
  H246     1.0000 0.67440  0.79830  0.74530  Biso   1.000  H
  C415     1.0000 0.49572  0.67840  0.68083  Biso   1.000  C
  H247     1.0000 0.50970  0.63540  0.68080  Biso   1.000  H
  C416     1.0000 0.35206  0.79000  0.29860  Biso   1.000  C
  C417     1.0000 0.43245  0.14410  0.59995  Biso   1.000  C
  H248     1.0000 0.44920  0.18330  0.61380  Biso   1.000  H
  C418     1.0000 0.38269  0.02650  0.56062  Biso   1.000  C
  H249     1.0000 0.36600  0.98670  0.54790  Biso   1.000  H
  C419     1.0000 0.57625  0.89300  0.57342  Biso   1.000  C
  C420     1.0000 0.43089  0.87678  0.68009  Biso   1.000  C
  C421     1.0000 0.77488  0.00560  0.40685  Biso   1.000  C
  H250     1.0000 0.77410  0.03300  0.43260  Biso   1.000  H
  C422     1.0000 0.79006  0.83514  0.46561  Biso   1.000  C
  H251     1.0000 0.79110  0.80800  0.43990  Biso   1.000  H
  C423     1.0000 0.59745  0.90247  0.62218  Biso   1.000  C
  H252     1.0000 0.57920  0.91650  0.64130  Biso   1.000  H
  C424     1.0000 0.52185  0.73790  0.68144  Biso   1.000  C
  C425     1.0000 0.57330  0.73238  0.68600  Biso   1.000  C
  C426     1.0000 0.50030  0.80208  0.68021  Biso   1.000  C
  H253     1.0000 0.51760  0.84210  0.67970  Biso   1.000  H
  C427     1.0000 0.63805  0.67404  0.66891  Biso   1.000  C
  H254     1.0000 0.64890  0.64020  0.65230  Biso   1.000  H
  C428     1.0000 0.77580  0.93840  0.41333  Biso   1.000  C
  H255     1.0000 0.77340  0.91010  0.38710  Biso   1.000  H
  C429     1.0000 0.77493  0.04180  0.36320  Biso   1.000  C
  C430     1.0000 0.50009  0.87350  0.50949  Biso   1.000  C
  H256     1.0000 0.51480  0.83880  0.49710  Biso   1.000  H
  C431     1.0000 0.42813  0.74701  0.68021  Biso   1.000  C
  H257     1.0000 0.39700  0.74980  0.68050  Biso   1.000  H
  C432     1.0000 0.42751  0.86220  0.43869  Biso   1.000  C
  C433     1.0000 0.60467  0.87220  0.54576  Biso   1.000  C
  H258     1.0000 0.59140  0.86710  0.51310  Biso   1.000  H
  C434     1.0000 0.37839  0.81380  0.34804  Biso   1.000  C
  C435     1.0000 0.45297  0.80758  0.67967  Biso   1.000  C
  C436     1.0000 0.45788  0.93620  0.69360  Biso   1.000  C
  H259     1.0000 0.49050  0.93310  0.70090  Biso   1.000  H
  C437     1.0000 0.50224  0.95650  0.57071  Biso   1.000  C
  H260     1.0000 0.51860  0.97830  0.59890  Biso   1.000  H
  C438     1.0000 0.77947  0.14920  0.32348  Biso   1.000  C
  H261     1.0000 0.77980  0.19740  0.32410  Biso   1.000  H
  C439     1.0000 0.42995  0.79290  0.42697  Biso   1.000  C
  H262     1.0000 0.44850  0.76250  0.44930  Biso   1.000  H
  C440     1.0000 0.77539  0.00922  0.32111  Biso   1.000  C
  H263     1.0000 0.77310  0.96130  0.31860  Biso   1.000  H
  C441     1.0000 0.43756  0.99960  0.69657  Biso   1.000  C
  H264     1.0000 0.45660  0.03860  0.70550  Biso   1.000  H
  C442     1.0000 0.43152  0.94100  0.50633  Biso   1.000  C
  H265     1.0000 0.40030  0.95260  0.49110  Biso   1.000  H
  C443     1.0000 0.45595  0.08850  0.58768  Biso   1.000  C
  H266     1.0000 0.48840  0.09070  0.59330  Biso   1.000  H
  C444     1.0000 0.59029  0.68130  0.66236  Biso   1.000  C
  H267     1.0000 0.56920  0.65150  0.64180  Biso   1.000  H
  C445     1.0000 0.43127  0.02930  0.56702  Biso   1.000  C
  C446     1.0000 0.45369  0.89080  0.48614  Biso   1.000  C
  C447     1.0000 0.77646  0.94070  0.49896  Biso   1.000  C
  H268     1.0000 0.76790  0.98720  0.49610  Biso   1.000  H
  C448     1.0000 0.77919  0.04797  0.28344  Biso   1.000  C
  H269     1.0000 0.77950  0.02500  0.25580  Biso   1.000  H
  C449     1.0000 0.39914  0.60630  0.71534  Biso   1.000  C
  H270     1.0000 0.39860  0.64130  0.73680  Biso   1.000  H
  C450     1.0000 0.45520  0.97390  0.54874  Biso   1.000  C
  C451     1.0000 0.39740  0.50360  0.65000  Biso   1.000  C
  H271     1.0000 0.39590  0.46990  0.62700  Biso   1.000  H
  C452     1.0000 0.40066  0.90650  0.40423  Biso   1.000  C
  H272     1.0000 0.39880  0.95310  0.41160  Biso   1.000  H
  C453     1.0000 0.42201  0.61706  0.68169  Biso   1.000  C
  C454     1.0000 0.37662  0.88340  0.35919  Biso   1.000  C
  H273     1.0000 0.35930  0.91430  0.33640  Biso   1.000  H
  C455     1.0000 0.78498  0.90810  0.54181  Biso   1.000  C
  H274     1.0000 0.78230  0.93370  0.56760  Biso   1.000  H
  C456     1.0000 0.37558  0.49263  0.68503  Biso   1.000  C
  C457     1.0000 0.40484  0.76840  0.38208  Biso   1.000  C
  H275     1.0000 0.40580  0.72170  0.37490  Biso   1.000  H
  C458     1.0000 0.38219  0.88430  0.66810  Biso   1.000  C
  H276     1.0000 0.36300  0.84580  0.65780  Biso   1.000  H
  C459     1.0000 0.36165  0.94770  0.67113  Biso   1.000  C
  H277     1.0000 0.32900  0.95110  0.66280  Biso   1.000  H
  C460     1.0000 0.37682  0.54380  0.71776  Biso   1.000  C
  H278     1.0000 0.36270  0.53660  0.74160  Biso   1.000  H
  C461     1.0000 0.42160  0.56480  0.64950  Biso   1.000  C
  H279     1.0000 0.43770  0.57090  0.62710  Biso   1.000  H
  C462     1.0000 0.77588  0.11410  0.36338  Biso   1.000  C
  H280     1.0000 0.77410  0.13850  0.39000  Biso   1.000  H
  Co19     1.0000 0.79908  0.82542  0.73030  Biso   1.000  Co
  Co20     1.0000 0.81106  0.80093  0.61886  Biso   1.000  Co
  Co21     1.0000 0.80717  0.66786  0.70044  Biso   1.000  Co
  N13      1.0000 0.79699  0.84152  0.54870  Biso   1.000  N
  N14      1.0000 0.78244  0.11747  0.28425  Biso   1.000  N
  O79      1.0000 0.35228  0.72691  0.28840  Biso   1.000  O
  O80      1.0000 0.33161  0.83754  0.27078  Biso   1.000  O
  O81      1.0000 0.74855  0.75297  0.73691  Biso   1.000  O
  O82      1.0000 0.73676  0.66728  0.68399  Biso   1.000  O
  O83      1.0000 0.34436  0.40561  0.72374  Biso   1.000  O
  O84      1.0000 0.33716  0.39453  0.64584  Biso   1.000  O
  O85      1.0000 0.74381  0.87124  0.67826  Biso   1.000  O
  O86      1.0000 0.74199  0.81263  0.61193  Biso   1.000  O
  O87      1.0000 0.82516  0.76182  0.68740  Biso   1.000  O
  O88      1.0000 0.31407  0.19790  0.59515  Biso   1.000  O
  O89      1.0000 0.37933  0.25781  0.61759  Biso   1.000  O
  O90      1.0000 0.32237  0.07671  0.67841  Biso   1.000  O
  O91      1.0000 0.39155  0.12481  0.70814  Biso   1.000  O
  C463     1.0000 0.22211  0.21228  0.70777  Biso   1.000  C
  C464     1.0000 0.86692  0.57376  0.69109  Biso   1.000  C
  C465     1.0000 0.10536  0.27690  0.71696  Biso   1.000  C
  H281     1.0000 0.09440  0.31190  0.73260  Biso   1.000  H
  C466     1.0000 0.22386  0.35012  0.63707  Biso   1.000  C
  C467     1.0000 0.29815  0.30576  0.51020  Biso   1.000  C
  H282     1.0000 0.30470  0.25860  0.51360  Biso   1.000  H
  C468     1.0000 0.17023  0.21755  0.70058  Biso   1.000  C
  C469     1.0000 0.88408  0.64136  0.59163  Biso   1.000  C
  C470     1.0000 0.88880  0.50586  0.68625  Biso   1.000  C
  C471     1.0000 0.85796  0.70172  0.60252  Biso   1.000  C
  C472     1.0000 0.02502  0.40710  0.55111  Biso   1.000  C
  C473     1.0000 0.85937  0.58140  0.57277  Biso   1.000  C
  H283     1.0000 0.82710  0.57870  0.56840  Biso   1.000  H
  C474     1.0000 0.94845  0.18210  0.68030  Biso   1.000  C
  C475     1.0000 0.15219  0.35890  0.56604  Biso   1.000  C
  H284     1.0000 0.17040  0.34390  0.54710  Biso   1.000  H
  C476     1.0000 0.14543  0.39119  0.64251  Biso   1.000  C
  H285     1.0000 0.15920  0.39930  0.67480  Biso   1.000  H
  C477     1.0000 0.28045  0.40462  0.45961  Biso   1.000  C
  C478     1.0000 0.85029  0.92535  0.68511  Biso   1.000  C
  C479     1.0000 0.17279  0.36795  0.61483  Biso   1.000  C
  C480     1.0000 0.15333  0.26903  0.72435  Biso   1.000  C
  H286     1.0000 0.17440  0.29830  0.74530  Biso   1.000  H
  C481     1.0000 0.99572  0.17840  0.68083  Biso   1.000  C
  H287     1.0000 0.00970  0.13540  0.68080  Biso   1.000  H
  C482     1.0000 0.85206  0.29000  0.29860  Biso   1.000  C
  C483     1.0000 0.93245  0.64410  0.59995  Biso   1.000  C
  H288     1.0000 0.94920  0.68330  0.61380  Biso   1.000  H
  C484     1.0000 0.88269  0.52650  0.56062  Biso   1.000  C
  H289     1.0000 0.86600  0.48670  0.54790  Biso   1.000  H
  C485     1.0000 0.07625  0.39300  0.57342  Biso   1.000  C
  C486     1.0000 0.93089  0.37678  0.68009  Biso   1.000  C
  C487     1.0000 0.27488  0.50560  0.40685  Biso   1.000  C
  H290     1.0000 0.27410  0.53300  0.43260  Biso   1.000  H
  C488     1.0000 0.29006  0.33514  0.46561  Biso   1.000  C
  H291     1.0000 0.29110  0.30800  0.43990  Biso   1.000  H
  C489     1.0000 0.09745  0.40247  0.62218  Biso   1.000  C
  H292     1.0000 0.07920  0.41650  0.64130  Biso   1.000  H
  C490     1.0000 0.02185  0.23790  0.68144  Biso   1.000  C
  C491     1.0000 0.07330  0.23238  0.68600  Biso   1.000  C
  C492     1.0000 0.00030  0.30208  0.68021  Biso   1.000  C
  H293     1.0000 0.01760  0.34210  0.67970  Biso   1.000  H
  C493     1.0000 0.13805  0.17404  0.66891  Biso   1.000  C
  H294     1.0000 0.14890  0.14020  0.65230  Biso   1.000  H
  C494     1.0000 0.27580  0.43840  0.41333  Biso   1.000  C
  H295     1.0000 0.27340  0.41010  0.38710  Biso   1.000  H
  C495     1.0000 0.27493  0.54180  0.36320  Biso   1.000  C
  C496     1.0000 0.00009  0.37350  0.50949  Biso   1.000  C
  H296     1.0000 0.01480  0.33880  0.49710  Biso   1.000  H
  C497     1.0000 0.92813  0.24701  0.68021  Biso   1.000  C
  H297     1.0000 0.89700  0.24980  0.68050  Biso   1.000  H
  C498     1.0000 0.92751  0.36220  0.43869  Biso   1.000  C
  C499     1.0000 0.10467  0.37220  0.54576  Biso   1.000  C
  H298     1.0000 0.09140  0.36710  0.51310  Biso   1.000  H
  C500     1.0000 0.87839  0.31380  0.34804  Biso   1.000  C
  C501     1.0000 0.95297  0.30758  0.67967  Biso   1.000  C
  C502     1.0000 0.95788  0.43620  0.69360  Biso   1.000  C
  H299     1.0000 0.99050  0.43310  0.70090  Biso   1.000  H
  C503     1.0000 0.00224  0.45650  0.57071  Biso   1.000  C
  H300     1.0000 0.01860  0.47830  0.59890  Biso   1.000  H
  C504     1.0000 0.27947  0.64920  0.32348  Biso   1.000  C
  H301     1.0000 0.27980  0.69740  0.32410  Biso   1.000  H
  C505     1.0000 0.92995  0.29290  0.42697  Biso   1.000  C
  H302     1.0000 0.94850  0.26250  0.44930  Biso   1.000  H
  C506     1.0000 0.27539  0.50922  0.32111  Biso   1.000  C
  H303     1.0000 0.27310  0.46130  0.31860  Biso   1.000  H
  C507     1.0000 0.93756  0.49960  0.69657  Biso   1.000  C
  H304     1.0000 0.95660  0.53860  0.70550  Biso   1.000  H
  C508     1.0000 0.93152  0.44100  0.50633  Biso   1.000  C
  H305     1.0000 0.90030  0.45260  0.49110  Biso   1.000  H
  C509     1.0000 0.95595  0.58850  0.58768  Biso   1.000  C
  H306     1.0000 0.98840  0.59070  0.59330  Biso   1.000  H
  C510     1.0000 0.09029  0.18130  0.66236  Biso   1.000  C
  H307     1.0000 0.06920  0.15150  0.64180  Biso   1.000  H
  C511     1.0000 0.93127  0.52930  0.56702  Biso   1.000  C
  C512     1.0000 0.95369  0.39080  0.48614  Biso   1.000  C
  C513     1.0000 0.27646  0.44070  0.49896  Biso   1.000  C
  H308     1.0000 0.26790  0.48720  0.49610  Biso   1.000  H
  C514     1.0000 0.27919  0.54797  0.28344  Biso   1.000  C
  H309     1.0000 0.27950  0.52500  0.25580  Biso   1.000  H
  C515     1.0000 0.89914  0.10630  0.71534  Biso   1.000  C
  H310     1.0000 0.89860  0.14130  0.73680  Biso   1.000  H
  C516     1.0000 0.95520  0.47390  0.54874  Biso   1.000  C
  C517     1.0000 0.89740  0.00360  0.65000  Biso   1.000  C
  H311     1.0000 0.89590  0.96990  0.62700  Biso   1.000  H
  C518     1.0000 0.90066  0.40650  0.40423  Biso   1.000  C
  H312     1.0000 0.89880  0.45310  0.41160  Biso   1.000  H
  C519     1.0000 0.92201  0.11706  0.68169  Biso   1.000  C
  C520     1.0000 0.87662  0.38340  0.35919  Biso   1.000  C
  H313     1.0000 0.85930  0.41430  0.33640  Biso   1.000  H
  C521     1.0000 0.28498  0.40810  0.54181  Biso   1.000  C
  H314     1.0000 0.28230  0.43370  0.56760  Biso   1.000  H
  C522     1.0000 0.87558  0.99263  0.68503  Biso   1.000  C
  C523     1.0000 0.90484  0.26840  0.38208  Biso   1.000  C
  H315     1.0000 0.90580  0.22170  0.37490  Biso   1.000  H
  C524     1.0000 0.88219  0.38430  0.66810  Biso   1.000  C
  H316     1.0000 0.86300  0.34580  0.65780  Biso   1.000  H
  C525     1.0000 0.86165  0.44770  0.67113  Biso   1.000  C
  H317     1.0000 0.82900  0.45110  0.66280  Biso   1.000  H
  C526     1.0000 0.87682  0.04380  0.71776  Biso   1.000  C
  H318     1.0000 0.86270  0.03660  0.74160  Biso   1.000  H
  C527     1.0000 0.92160  0.06480  0.64950  Biso   1.000  C
  H319     1.0000 0.93770  0.07090  0.62710  Biso   1.000  H
  C528     1.0000 0.27588  0.61410  0.36338  Biso   1.000  C
  H320     1.0000 0.27410  0.63850  0.39000  Biso   1.000  H
  Co22     1.0000 0.29908  0.32542  0.73030  Biso   1.000  Co
  Co23     1.0000 0.31106  0.30093  0.61886  Biso   1.000  Co
  Co24     1.0000 0.30717  0.16786  0.70044  Biso   1.000  Co
  N15      1.0000 0.29699  0.34152  0.54870  Biso   1.000  N
  N16      1.0000 0.28244  0.61747  0.28425  Biso   1.000  N
  O92      1.0000 0.85228  0.22691  0.28840  Biso   1.000  O
  O93      1.0000 0.83161  0.33754  0.27078  Biso   1.000  O
  O94      1.0000 0.24855  0.25297  0.73691  Biso   1.000  O
  O95      1.0000 0.23676  0.16728  0.68399  Biso   1.000  O
  O96      1.0000 0.84436  0.90561  0.72374  Biso   1.000  O
  O97      1.0000 0.83716  0.89453  0.64584  Biso   1.000  O
  O98      1.0000 0.24381  0.37124  0.67826  Biso   1.000  O
  O99      1.0000 0.24199  0.31263  0.61193  Biso   1.000  O
  O100     1.0000 0.32516  0.26182  0.68740  Biso   1.000  O
  O101     1.0000 0.81407  0.69790  0.59515  Biso   1.000  O
  O102     1.0000 0.87933  0.75781  0.61759  Biso   1.000  O
  O103     1.0000 0.82237  0.57671  0.67841  Biso   1.000  O
  O104     1.0000 0.89155  0.62481  0.70814  Biso   1.000  O
