data_image0
_cell_length_a       31.3837
_cell_length_b       31.3837
_cell_length_c       15.0411
_cell_angle_alpha    90
_cell_angle_beta     90
_cell_angle_gamma    120

_symmetry_space_group_name_H-M    "P 1"
_symmetry_int_tables_number       1

loop_
  _symmetry_equiv_pos_as_xyz
  'x, y, z'

loop_
  _atom_site_label
  _atom_site_occupancy
  _atom_site_fract_x
  _atom_site_fract_y
  _atom_site_fract_z
  _atom_site_thermal_displace_type
  _atom_site_B_iso_or_equiv
  _atom_site_type_symbol
  Zn1      1.0000 0.06126  0.73099  0.48673  Biso   1.000  Zn
  C1       1.0000 0.14864  0.73902  0.54580  Biso   1.000  C
  C2       1.0000 0.18600  0.72225  0.55150  Biso   1.000  C
  C3       1.0000 0.17617  0.67775  0.51420  Biso   1.000  C
  H1       1.0000 0.14580  0.65740  0.48790  Biso   1.000  H
  C4       1.0000 0.21149  0.66367  0.51600  Biso   1.000  C
  H2       1.0000 0.20430  0.63350  0.49170  Biso   1.000  H
  C5       1.0000 0.25809  0.69400  0.55392  Biso   1.000  C
  C6       1.0000 0.26604  0.73728  0.59470  Biso   1.000  C
  H3       1.0000 0.29590  0.75720  0.62310  Biso   1.000  H
  C7       1.0000 0.23084  0.75127  0.59390  Biso   1.000  C
  H4       1.0000 0.23710  0.78030  0.62190  Biso   1.000  H
  C8       1.0000 0.29646  0.68001  0.55190  Biso   1.000  C
  C9       1.0000 0.34620  0.71595  0.55146  Biso   1.000  C
  H5       1.0000 0.35490  0.74900  0.55090  Biso   1.000  H
  C10      1.0000 0.07503  0.81984  0.43320  Biso   1.000  C
  C11      1.0000 0.05805  0.85583  0.41630  Biso   1.000  C
  C12      1.0000 0.08447  0.89570  0.35920  Biso   1.000  C
  H6       1.0000 0.11240  0.89940  0.33070  Biso   1.000  H
  C13      1.0000 0.06952  0.92960  0.34470  Biso   1.000  C
  H7       1.0000 0.08810  0.95630  0.30770  Biso   1.000  H
  C14      1.0000 0.02734  0.92475  0.38419  Biso   1.000  C
  C15      1.0000 0.00008  0.88413  0.43920  Biso   1.000  C
  H8       1.0000 0.97120  0.87950  0.46510  Biso   1.000  H
  C16      1.0000 0.01560  0.85074  0.45550  Biso   1.000  C
  H9       1.0000 0.99730  0.82430  0.49330  Biso   1.000  H
  C17      1.0000 0.01294  0.96315  0.37437  Biso   1.000  C
  C18      1.0000 0.96352  0.95086  0.37381  Biso   1.000  C
  H10      1.0000 0.93910  0.91790  0.37310  Biso   1.000  H
  C19      1.0000 0.04298  0.67123  0.31720  Biso   1.000  C
  O1       1.0000 0.10901  0.82086  0.39120  Biso   1.000  O
  O2       1.0000 0.05184  0.78754  0.49310  Biso   1.000  O
  O3       1.0000 0.15106  0.77166  0.59555  Biso   1.000  O
  O4       1.0000 0.11539  0.71745  0.48704  Biso   1.000  O
  N1       1.0000 0.97183  0.65741  0.27910  Biso   1.000  N
  N2       1.0000 0.00799  0.64808  0.25675  Biso   1.000  N
  N3       1.0000 0.98428  0.68480  0.34910  Biso   1.000  N
  N4       1.0000 0.08706  0.67365  0.31730  Biso   1.000  N
  H11      1.0000 0.09430  0.65950  0.27590  Biso   1.000  H
  H12      1.0000 0.10790  0.68940  0.35880  Biso   1.000  H
  N5       1.0000 0.02920  0.69404  0.37588  Biso   1.000  N
  Zn2      1.0000 0.72793  0.06433  0.82006  Biso   1.000  Zn
  C20      1.0000 0.81531  0.07235  0.87913  Biso   1.000  C
  C21      1.0000 0.85267  0.05558  0.88483  Biso   1.000  C
  C22      1.0000 0.84284  0.01108  0.84753  Biso   1.000  C
  H13      1.0000 0.81247  0.99073  0.82123  Biso   1.000  H
  C23      1.0000 0.87816  0.99700  0.84933  Biso   1.000  C
  H14      1.0000 0.87097  0.96683  0.82503  Biso   1.000  H
  C24      1.0000 0.92476  0.02733  0.88725  Biso   1.000  C
  C25      1.0000 0.93271  0.07061  0.92803  Biso   1.000  C
  H15      1.0000 0.96257  0.09053  0.95643  Biso   1.000  H
  C26      1.0000 0.89751  0.08460  0.92723  Biso   1.000  C
  H16      1.0000 0.90377  0.11363  0.95523  Biso   1.000  H
  C27      1.0000 0.96313  0.01334  0.88523  Biso   1.000  C
  C28      1.0000 0.01287  0.04928  0.88479  Biso   1.000  C
  H17      1.0000 0.02157  0.08233  0.88423  Biso   1.000  H
  C29      1.0000 0.74170  0.15317  0.76653  Biso   1.000  C
  C30      1.0000 0.72472  0.18916  0.74963  Biso   1.000  C
  C31      1.0000 0.75114  0.22903  0.69253  Biso   1.000  C
  H18      1.0000 0.77907  0.23273  0.66403  Biso   1.000  H
  C32      1.0000 0.73619  0.26293  0.67803  Biso   1.000  C
  H19      1.0000 0.75477  0.28963  0.64103  Biso   1.000  H
  C33      1.0000 0.69401  0.25808  0.71752  Biso   1.000  C
  C34      1.0000 0.66675  0.21746  0.77253  Biso   1.000  C
  H20      1.0000 0.63787  0.21283  0.79843  Biso   1.000  H
  C35      1.0000 0.68227  0.18407  0.78883  Biso   1.000  C
  H21      1.0000 0.66397  0.15763  0.82663  Biso   1.000  H
  C36      1.0000 0.67961  0.29648  0.70770  Biso   1.000  C
  C37      1.0000 0.63019  0.28419  0.70714  Biso   1.000  C
  H22      1.0000 0.60577  0.25123  0.70643  Biso   1.000  H
  C38      1.0000 0.70965  0.00456  0.65053  Biso   1.000  C
  O5       1.0000 0.77568  0.15419  0.72453  Biso   1.000  O
  O6       1.0000 0.71851  0.12087  0.82643  Biso   1.000  O
  O7       1.0000 0.81773  0.10499  0.92888  Biso   1.000  O
  O8       1.0000 0.78206  0.05078  0.82037  Biso   1.000  O
  N6       1.0000 0.63850  0.99074  0.61243  Biso   1.000  N
  N7       1.0000 0.67466  0.98141  0.59008  Biso   1.000  N
  N8       1.0000 0.65095  0.01813  0.68243  Biso   1.000  N
  N9       1.0000 0.75373  0.00698  0.65063  Biso   1.000  N
  H23      1.0000 0.76097  0.99283  0.60923  Biso   1.000  H
  H24      1.0000 0.77457  0.02273  0.69213  Biso   1.000  H
  N10      1.0000 0.69587  0.02737  0.70921  Biso   1.000  N
  Zn3      1.0000 0.39460  0.39766  0.15340  Biso   1.000  Zn
  C39      1.0000 0.48197  0.40569  0.21247  Biso   1.000  C
  C40      1.0000 0.51933  0.38892  0.21817  Biso   1.000  C
  C41      1.0000 0.50950  0.34442  0.18087  Biso   1.000  C
  H25      1.0000 0.47913  0.32407  0.15457  Biso   1.000  H
  C42      1.0000 0.54482  0.33034  0.18267  Biso   1.000  C
  H26      1.0000 0.53763  0.30017  0.15837  Biso   1.000  H
  C43      1.0000 0.59142  0.36067  0.22059  Biso   1.000  C
  C44      1.0000 0.59937  0.40395  0.26137  Biso   1.000  C
  H27      1.0000 0.62923  0.42387  0.28977  Biso   1.000  H
  C45      1.0000 0.56417  0.41794  0.26057  Biso   1.000  C
  H28      1.0000 0.57043  0.44697  0.28857  Biso   1.000  H
  C46      1.0000 0.62979  0.34668  0.21857  Biso   1.000  C
  C47      1.0000 0.67953  0.38262  0.21813  Biso   1.000  C
  H29      1.0000 0.68823  0.41567  0.21757  Biso   1.000  H
  C48      1.0000 0.40836  0.48651  0.09987  Biso   1.000  C
  C49      1.0000 0.39138  0.52250  0.08297  Biso   1.000  C
  C50      1.0000 0.41780  0.56237  0.02587  Biso   1.000  C
  H30      1.0000 0.44573  0.56607  0.99737  Biso   1.000  H
  C51      1.0000 0.40285  0.59627  0.01137  Biso   1.000  C
  H31      1.0000 0.42143  0.62297  0.97437  Biso   1.000  H
  C52      1.0000 0.36067  0.59142  0.05086  Biso   1.000  C
  C53      1.0000 0.33341  0.55080  0.10587  Biso   1.000  C
  H32      1.0000 0.30453  0.54617  0.13177  Biso   1.000  H
  C54      1.0000 0.34893  0.51741  0.12217  Biso   1.000  C
  H33      1.0000 0.33063  0.49097  0.15997  Biso   1.000  H
  C55      1.0000 0.34627  0.62982  0.04104  Biso   1.000  C
  C56      1.0000 0.29685  0.61753  0.04048  Biso   1.000  C
  H34      1.0000 0.27243  0.58457  0.03977  Biso   1.000  H
  C57      1.0000 0.37631  0.33790  0.98387  Biso   1.000  C
  O9       1.0000 0.44234  0.48753  0.05787  Biso   1.000  O
  O10      1.0000 0.38517  0.45421  0.15977  Biso   1.000  O
  O11      1.0000 0.48439  0.43833  0.26222  Biso   1.000  O
  O12      1.0000 0.44872  0.38412  0.15371  Biso   1.000  O
  N11      1.0000 0.30516  0.32408  0.94577  Biso   1.000  N
  N12      1.0000 0.34132  0.31475  0.92342  Biso   1.000  N
  N13      1.0000 0.31761  0.35147  0.01577  Biso   1.000  N
  N14      1.0000 0.42039  0.34032  0.98397  Biso   1.000  N
  H35      1.0000 0.42763  0.32617  0.94257  Biso   1.000  H
  H36      1.0000 0.44123  0.35607  0.02547  Biso   1.000  H
  N15      1.0000 0.36253  0.36071  0.04255  Biso   1.000  N
  Zn4      1.0000 0.26901  0.33027  0.48673  Biso   1.000  Zn
  C58      1.0000 0.26098  0.40962  0.54580  Biso   1.000  C
  C59      1.0000 0.27775  0.46375  0.55150  Biso   1.000  C
  C60      1.0000 0.32225  0.49842  0.51420  Biso   1.000  C
  H37      1.0000 0.34260  0.48840  0.48790  Biso   1.000  H
  C61      1.0000 0.33633  0.54782  0.51600  Biso   1.000  C
  H38      1.0000 0.36650  0.57080  0.49170  Biso   1.000  H
  C62      1.0000 0.30600  0.56409  0.55392  Biso   1.000  C
  C63      1.0000 0.26272  0.52876  0.59470  Biso   1.000  C
  H39      1.0000 0.24280  0.53870  0.62310  Biso   1.000  H
  C64      1.0000 0.24873  0.47957  0.59390  Biso   1.000  C
  H40      1.0000 0.21970  0.45680  0.62190  Biso   1.000  H
  C65      1.0000 0.31999  0.61645  0.55190  Biso   1.000  C
  C66      1.0000 0.28405  0.63025  0.55146  Biso   1.000  C
  H41      1.0000 0.25100  0.60590  0.55090  Biso   1.000  H
  C67      1.0000 0.18016  0.25519  0.43320  Biso   1.000  C
  C68      1.0000 0.14417  0.20222  0.41630  Biso   1.000  C
  C69      1.0000 0.10430  0.18877  0.35920  Biso   1.000  C
  H42      1.0000 0.10060  0.21300  0.33070  Biso   1.000  H
  C70      1.0000 0.07040  0.13992  0.34470  Biso   1.000  C
  H43      1.0000 0.04370  0.13180  0.30770  Biso   1.000  H
  C71      1.0000 0.07525  0.10259  0.38419  Biso   1.000  C
  C72      1.0000 0.11587  0.11595  0.43920  Biso   1.000  C
  H44      1.0000 0.12050  0.09170  0.46510  Biso   1.000  H
  C73      1.0000 0.14926  0.16486  0.45550  Biso   1.000  C
  H45      1.0000 0.17570  0.17300  0.49330  Biso   1.000  H
  C74      1.0000 0.03685  0.04979  0.37437  Biso   1.000  C
  C75      1.0000 0.04914  0.01266  0.37381  Biso   1.000  C
  H46      1.0000 0.08210  0.02120  0.37310  Biso   1.000  H
  C76      1.0000 0.32877  0.37175  0.31720  Biso   1.000  C
  O13      1.0000 0.17914  0.28815  0.39120  Biso   1.000  O
  O14      1.0000 0.21246  0.26430  0.49310  Biso   1.000  O
  O15      1.0000 0.22834  0.37940  0.59555  Biso   1.000  O
  O16      1.0000 0.28255  0.39794  0.48704  Biso   1.000  O
  N16      1.0000 0.34259  0.31442  0.27910  Biso   1.000  N
  N17      1.0000 0.35192  0.35991  0.25675  Biso   1.000  N
  N18      1.0000 0.31520  0.29948  0.34910  Biso   1.000  N
  N19      1.0000 0.32635  0.41341  0.31730  Biso   1.000  N
  H47      1.0000 0.34050  0.43480  0.27590  Biso   1.000  H
  H48      1.0000 0.31060  0.41850  0.35880  Biso   1.000  H
  N20      1.0000 0.30596  0.33516  0.37588  Biso   1.000  N
  Zn5      1.0000 0.93567  0.66361  0.82006  Biso   1.000  Zn
  C77      1.0000 0.92765  0.74295  0.87913  Biso   1.000  C
  C78      1.0000 0.94442  0.79708  0.88483  Biso   1.000  C
  C79      1.0000 0.98892  0.83175  0.84753  Biso   1.000  C
  H49      1.0000 0.00927  0.82173  0.82123  Biso   1.000  H
  C80      1.0000 0.00300  0.88115  0.84933  Biso   1.000  C
  H50      1.0000 0.03317  0.90413  0.82503  Biso   1.000  H
  C81      1.0000 0.97267  0.89742  0.88725  Biso   1.000  C
  C82      1.0000 0.92939  0.86209  0.92803  Biso   1.000  C
  H51      1.0000 0.90947  0.87203  0.95643  Biso   1.000  H
  C83      1.0000 0.91540  0.81290  0.92723  Biso   1.000  C
  H52      1.0000 0.88637  0.79013  0.95523  Biso   1.000  H
  C84      1.0000 0.98666  0.94978  0.88523  Biso   1.000  C
  C85      1.0000 0.95072  0.96358  0.88479  Biso   1.000  C
  H53      1.0000 0.91767  0.93923  0.88423  Biso   1.000  H
  C86      1.0000 0.84683  0.58852  0.76653  Biso   1.000  C
  C87      1.0000 0.81084  0.53555  0.74963  Biso   1.000  C
  C88      1.0000 0.77097  0.52210  0.69253  Biso   1.000  C
  H54      1.0000 0.76727  0.54633  0.66403  Biso   1.000  H
  C89      1.0000 0.73707  0.47325  0.67803  Biso   1.000  C
  H55      1.0000 0.71037  0.46513  0.64103  Biso   1.000  H
  C90      1.0000 0.74192  0.43592  0.71752  Biso   1.000  C
  C91      1.0000 0.78254  0.44928  0.77253  Biso   1.000  C
  H56      1.0000 0.78717  0.42503  0.79843  Biso   1.000  H
  C92      1.0000 0.81593  0.49819  0.78883  Biso   1.000  C
  H57      1.0000 0.84237  0.50633  0.82663  Biso   1.000  H
  C93      1.0000 0.70352  0.38312  0.70770  Biso   1.000  C
  C94      1.0000 0.71581  0.34599  0.70714  Biso   1.000  C
  H58      1.0000 0.74877  0.35453  0.70643  Biso   1.000  H
  C95      1.0000 0.99544  0.70508  0.65053  Biso   1.000  C
  O17      1.0000 0.84581  0.62148  0.72453  Biso   1.000  O
  O18      1.0000 0.87913  0.59763  0.82643  Biso   1.000  O
  O19      1.0000 0.89501  0.71273  0.92888  Biso   1.000  O
  O20      1.0000 0.94922  0.73127  0.82037  Biso   1.000  O
  N21      1.0000 0.00926  0.64775  0.61243  Biso   1.000  N
  N22      1.0000 0.01859  0.69324  0.59008  Biso   1.000  N
  N23      1.0000 0.98187  0.63281  0.68243  Biso   1.000  N
  N24      1.0000 0.99302  0.74674  0.65063  Biso   1.000  N
  H59      1.0000 0.00717  0.76813  0.60923  Biso   1.000  H
  H60      1.0000 0.97727  0.75183  0.69213  Biso   1.000  H
  N25      1.0000 0.97263  0.66849  0.70921  Biso   1.000  N
  Zn6      1.0000 0.60234  0.99694  0.15340  Biso   1.000  Zn
  C96      1.0000 0.59431  0.07629  0.21247  Biso   1.000  C
  C97      1.0000 0.61108  0.13042  0.21817  Biso   1.000  C
  C98      1.0000 0.65558  0.16509  0.18087  Biso   1.000  C
  H61      1.0000 0.67593  0.15507  0.15457  Biso   1.000  H
  C99      1.0000 0.66966  0.21449  0.18267  Biso   1.000  C
  H62      1.0000 0.69983  0.23747  0.15837  Biso   1.000  H
  C100     1.0000 0.63933  0.23076  0.22059  Biso   1.000  C
  C101     1.0000 0.59605  0.19543  0.26137  Biso   1.000  C
  H63      1.0000 0.57613  0.20537  0.28977  Biso   1.000  H
  C102     1.0000 0.58206  0.14624  0.26057  Biso   1.000  C
  H64      1.0000 0.55303  0.12347  0.28857  Biso   1.000  H
  C103     1.0000 0.65332  0.28312  0.21857  Biso   1.000  C
  C104     1.0000 0.61738  0.29692  0.21813  Biso   1.000  C
  H65      1.0000 0.58433  0.27257  0.21757  Biso   1.000  H
  C105     1.0000 0.51349  0.92186  0.09987  Biso   1.000  C
  C106     1.0000 0.47750  0.86889  0.08297  Biso   1.000  C
  C107     1.0000 0.43763  0.85544  0.02587  Biso   1.000  C
  H66      1.0000 0.43393  0.87967  0.99737  Biso   1.000  H
  C108     1.0000 0.40373  0.80659  0.01137  Biso   1.000  C
  H67      1.0000 0.37703  0.79847  0.97437  Biso   1.000  H
  C109     1.0000 0.40858  0.76926  0.05086  Biso   1.000  C
  C110     1.0000 0.44920  0.78262  0.10587  Biso   1.000  C
  H68      1.0000 0.45383  0.75837  0.13177  Biso   1.000  H
  C111     1.0000 0.48259  0.83153  0.12217  Biso   1.000  C
  H69      1.0000 0.50903  0.83967  0.15997  Biso   1.000  H
  C112     1.0000 0.37018  0.71646  0.04104  Biso   1.000  C
  C113     1.0000 0.38247  0.67933  0.04048  Biso   1.000  C
  H70      1.0000 0.41543  0.68787  0.03977  Biso   1.000  H
  C114     1.0000 0.66210  0.03842  0.98387  Biso   1.000  C
  O21      1.0000 0.51247  0.95482  0.05787  Biso   1.000  O
  O22      1.0000 0.54579  0.93097  0.15977  Biso   1.000  O
  O23      1.0000 0.56167  0.04607  0.26222  Biso   1.000  O
  O24      1.0000 0.61588  0.06461  0.15371  Biso   1.000  O
  N26      1.0000 0.67592  0.98109  0.94577  Biso   1.000  N
  N27      1.0000 0.68525  0.02658  0.92342  Biso   1.000  N
  N28      1.0000 0.64853  0.96615  0.01577  Biso   1.000  N
  N29      1.0000 0.65968  0.08008  0.98397  Biso   1.000  N
  H71      1.0000 0.67383  0.10147  0.94257  Biso   1.000  H
  H72      1.0000 0.64393  0.08517  0.02547  Biso   1.000  H
  N30      1.0000 0.63929  0.00183  0.04255  Biso   1.000  N
  Zn7      1.0000 0.66973  0.93874  0.48673  Biso   1.000  Zn
  C115     1.0000 0.59038  0.85136  0.54580  Biso   1.000  C
  C116     1.0000 0.53625  0.81400  0.55150  Biso   1.000  C
  C117     1.0000 0.50158  0.82383  0.51420  Biso   1.000  C
  H73      1.0000 0.51160  0.85420  0.48790  Biso   1.000  H
  C118     1.0000 0.45218  0.78851  0.51600  Biso   1.000  C
  H74      1.0000 0.42920  0.79570  0.49170  Biso   1.000  H
  C119     1.0000 0.43591  0.74191  0.55392  Biso   1.000  C
  C120     1.0000 0.47124  0.73396  0.59470  Biso   1.000  C
  H75      1.0000 0.46130  0.70410  0.62310  Biso   1.000  H
  C121     1.0000 0.52043  0.76916  0.59390  Biso   1.000  C
  H76      1.0000 0.54320  0.76290  0.62190  Biso   1.000  H
  C122     1.0000 0.38355  0.70354  0.55190  Biso   1.000  C
  C123     1.0000 0.36975  0.65380  0.55146  Biso   1.000  C
  H77      1.0000 0.39410  0.64510  0.55090  Biso   1.000  H
  C124     1.0000 0.74481  0.92497  0.43320  Biso   1.000  C
  C125     1.0000 0.79778  0.94195  0.41630  Biso   1.000  C
  C126     1.0000 0.81123  0.91553  0.35920  Biso   1.000  C
  H78      1.0000 0.78700  0.88760  0.33070  Biso   1.000  H
  C127     1.0000 0.86008  0.93048  0.34470  Biso   1.000  C
  H79      1.0000 0.86820  0.91190  0.30770  Biso   1.000  H
  C128     1.0000 0.89741  0.97266  0.38419  Biso   1.000  C
  C129     1.0000 0.88405  0.99992  0.43920  Biso   1.000  C
  H80      1.0000 0.90830  0.02880  0.46510  Biso   1.000  H
  C130     1.0000 0.83514  0.98440  0.45550  Biso   1.000  C
  H81      1.0000 0.82700  0.00270  0.49330  Biso   1.000  H
  C131     1.0000 0.95021  0.98706  0.37437  Biso   1.000  C
  C132     1.0000 0.98734  0.03648  0.37381  Biso   1.000  C
  H82      1.0000 0.97880  0.06090  0.37310  Biso   1.000  H
  C133     1.0000 0.62825  0.95702  0.31720  Biso   1.000  C
  O25      1.0000 0.71185  0.89099  0.39120  Biso   1.000  O
  O26      1.0000 0.73570  0.94816  0.49310  Biso   1.000  O
  O27      1.0000 0.62060  0.84894  0.59555  Biso   1.000  O
  O28      1.0000 0.60206  0.88461  0.48704  Biso   1.000  O
  N31      1.0000 0.68558  0.02817  0.27910  Biso   1.000  N
  N32      1.0000 0.64009  0.99201  0.25675  Biso   1.000  N
  N33      1.0000 0.70052  0.01572  0.34910  Biso   1.000  N
  N34      1.0000 0.58659  0.91294  0.31730  Biso   1.000  N
  H83      1.0000 0.56520  0.90570  0.27590  Biso   1.000  H
  H84      1.0000 0.58150  0.89210  0.35880  Biso   1.000  H
  N35      1.0000 0.66484  0.97080  0.37588  Biso   1.000  N
  Zn8      1.0000 0.33639  0.27207  0.82006  Biso   1.000  Zn
  C134     1.0000 0.25705  0.18469  0.87913  Biso   1.000  C
  C135     1.0000 0.20292  0.14733  0.88483  Biso   1.000  C
  C136     1.0000 0.16825  0.15716  0.84753  Biso   1.000  C
  H85      1.0000 0.17827  0.18753  0.82123  Biso   1.000  H
  C137     1.0000 0.11885  0.12184  0.84933  Biso   1.000  C
  H86      1.0000 0.09587  0.12903  0.82503  Biso   1.000  H
  C138     1.0000 0.10258  0.07524  0.88725  Biso   1.000  C
  C139     1.0000 0.13791  0.06729  0.92803  Biso   1.000  C
  H87      1.0000 0.12797  0.03743  0.95643  Biso   1.000  H
  C140     1.0000 0.18710  0.10249  0.92723  Biso   1.000  C
  H88      1.0000 0.20987  0.09623  0.95523  Biso   1.000  H
  C141     1.0000 0.05022  0.03687  0.88523  Biso   1.000  C
  C142     1.0000 0.03642  0.98713  0.88479  Biso   1.000  C
  H89      1.0000 0.06077  0.97843  0.88423  Biso   1.000  H
  C143     1.0000 0.41148  0.25830  0.76653  Biso   1.000  C
  C144     1.0000 0.46445  0.27528  0.74963  Biso   1.000  C
  C145     1.0000 0.47790  0.24886  0.69253  Biso   1.000  C
  H90      1.0000 0.45367  0.22093  0.66403  Biso   1.000  H
  C146     1.0000 0.52675  0.26381  0.67803  Biso   1.000  C
  H91      1.0000 0.53487  0.24523  0.64103  Biso   1.000  H
  C147     1.0000 0.56408  0.30599  0.71752  Biso   1.000  C
  C148     1.0000 0.55072  0.33325  0.77253  Biso   1.000  C
  H92      1.0000 0.57497  0.36213  0.79843  Biso   1.000  H
  C149     1.0000 0.50181  0.31773  0.78883  Biso   1.000  C
  H93      1.0000 0.49367  0.33603  0.82663  Biso   1.000  H
  C150     1.0000 0.61688  0.32039  0.70770  Biso   1.000  C
  C151     1.0000 0.65401  0.36981  0.70714  Biso   1.000  C
  H94      1.0000 0.64547  0.39423  0.70643  Biso   1.000  H
  C152     1.0000 0.29492  0.29035  0.65053  Biso   1.000  C
  O29      1.0000 0.37852  0.22432  0.72453  Biso   1.000  O
  O30      1.0000 0.40237  0.28149  0.82643  Biso   1.000  O
  O31      1.0000 0.28727  0.18227  0.92888  Biso   1.000  O
  O32      1.0000 0.26873  0.21794  0.82037  Biso   1.000  O
  N36      1.0000 0.35225  0.36150  0.61243  Biso   1.000  N
  N37      1.0000 0.30676  0.32534  0.59008  Biso   1.000  N
  N38      1.0000 0.36719  0.34905  0.68243  Biso   1.000  N
  N39      1.0000 0.25326  0.24627  0.65063  Biso   1.000  N
  H95      1.0000 0.23187  0.23903  0.60923  Biso   1.000  H
  H96      1.0000 0.24817  0.22543  0.69213  Biso   1.000  H
  N40      1.0000 0.33151  0.30413  0.70921  Biso   1.000  N
  Zn9      1.0000 0.00306  0.60540  0.15340  Biso   1.000  Zn
  C153     1.0000 0.92371  0.51803  0.21247  Biso   1.000  C
  C154     1.0000 0.86958  0.48067  0.21817  Biso   1.000  C
  C155     1.0000 0.83491  0.49050  0.18087  Biso   1.000  C
  H97      1.0000 0.84493  0.52087  0.15457  Biso   1.000  H
  C156     1.0000 0.78551  0.45518  0.18267  Biso   1.000  C
  H98      1.0000 0.76253  0.46237  0.15837  Biso   1.000  H
  C157     1.0000 0.76924  0.40858  0.22059  Biso   1.000  C
  C158     1.0000 0.80457  0.40063  0.26137  Biso   1.000  C
  H99      1.0000 0.79463  0.37077  0.28977  Biso   1.000  H
  C159     1.0000 0.85376  0.43583  0.26057  Biso   1.000  C
  H100     1.0000 0.87653  0.42957  0.28857  Biso   1.000  H
  C160     1.0000 0.71688  0.37021  0.21857  Biso   1.000  C
  C161     1.0000 0.70308  0.32047  0.21813  Biso   1.000  C
  H101     1.0000 0.72743  0.31177  0.21757  Biso   1.000  H
  C162     1.0000 0.07814  0.59164  0.09987  Biso   1.000  C
  C163     1.0000 0.13111  0.60862  0.08297  Biso   1.000  C
  C164     1.0000 0.14456  0.58220  0.02587  Biso   1.000  C
  H102     1.0000 0.12033  0.55427  0.99737  Biso   1.000  H
  C165     1.0000 0.19341  0.59715  0.01137  Biso   1.000  C
  H103     1.0000 0.20153  0.57857  0.97437  Biso   1.000  H
  C166     1.0000 0.23074  0.63933  0.05086  Biso   1.000  C
  C167     1.0000 0.21738  0.66659  0.10587  Biso   1.000  C
  H104     1.0000 0.24163  0.69547  0.13177  Biso   1.000  H
  C168     1.0000 0.16847  0.65107  0.12217  Biso   1.000  C
  H105     1.0000 0.16033  0.66937  0.15997  Biso   1.000  H
  C169     1.0000 0.28354  0.65373  0.04104  Biso   1.000  C
  C170     1.0000 0.32067  0.70315  0.04048  Biso   1.000  C
  H106     1.0000 0.31213  0.72757  0.03977  Biso   1.000  H
  C171     1.0000 0.96158  0.62369  0.98387  Biso   1.000  C
  O33      1.0000 0.04518  0.55766  0.05787  Biso   1.000  O
  O34      1.0000 0.06903  0.61483  0.15977  Biso   1.000  O
  O35      1.0000 0.95393  0.51561  0.26222  Biso   1.000  O
  O36      1.0000 0.93539  0.55128  0.15371  Biso   1.000  O
  N41      1.0000 0.01891  0.69484  0.94577  Biso   1.000  N
  N42      1.0000 0.97342  0.65868  0.92342  Biso   1.000  N
  N43      1.0000 0.03385  0.68239  0.01577  Biso   1.000  N
  N44      1.0000 0.91992  0.57961  0.98397  Biso   1.000  N
  H107     1.0000 0.89853  0.57237  0.94257  Biso   1.000  H
  H108     1.0000 0.91483  0.55877  0.02547  Biso   1.000  H
  N45      1.0000 0.99817  0.63747  0.04255  Biso   1.000  N
  Zn10     1.0000 0.93874  0.26901  0.51327  Biso   1.000  Zn
  C172     1.0000 0.85136  0.26098  0.45420  Biso   1.000  C
  C173     1.0000 0.81400  0.27775  0.44850  Biso   1.000  C
  C174     1.0000 0.82383  0.32225  0.48580  Biso   1.000  C
  H109     1.0000 0.85420  0.34260  0.51210  Biso   1.000  H
  C175     1.0000 0.78851  0.33633  0.48400  Biso   1.000  C
  H110     1.0000 0.79570  0.36650  0.50830  Biso   1.000  H
  C176     1.0000 0.74191  0.30600  0.44608  Biso   1.000  C
  C177     1.0000 0.73396  0.26272  0.40530  Biso   1.000  C
  H111     1.0000 0.70410  0.24280  0.37690  Biso   1.000  H
  C178     1.0000 0.76916  0.24873  0.40610  Biso   1.000  C
  H112     1.0000 0.76290  0.21970  0.37810  Biso   1.000  H
  C179     1.0000 0.70354  0.31999  0.44810  Biso   1.000  C
  C180     1.0000 0.65380  0.28405  0.44854  Biso   1.000  C
  H113     1.0000 0.64510  0.25100  0.44910  Biso   1.000  H
  C181     1.0000 0.92497  0.18016  0.56680  Biso   1.000  C
  C182     1.0000 0.94195  0.14417  0.58370  Biso   1.000  C
  C183     1.0000 0.91553  0.10430  0.64080  Biso   1.000  C
  H114     1.0000 0.88760  0.10060  0.66930  Biso   1.000  H
  C184     1.0000 0.93048  0.07040  0.65530  Biso   1.000  C
  H115     1.0000 0.91190  0.04370  0.69230  Biso   1.000  H
  C185     1.0000 0.97266  0.07525  0.61581  Biso   1.000  C
  C186     1.0000 0.99992  0.11587  0.56080  Biso   1.000  C
  H116     1.0000 0.02880  0.12050  0.53490  Biso   1.000  H
  C187     1.0000 0.98440  0.14926  0.54450  Biso   1.000  C
  H117     1.0000 0.00270  0.17570  0.50670  Biso   1.000  H
  C188     1.0000 0.98706  0.03685  0.62563  Biso   1.000  C
  C189     1.0000 0.03648  0.04914  0.62619  Biso   1.000  C
  H118     1.0000 0.06090  0.08210  0.62690  Biso   1.000  H
  C190     1.0000 0.95702  0.32877  0.68280  Biso   1.000  C
  O37      1.0000 0.89099  0.17914  0.60880  Biso   1.000  O
  O38      1.0000 0.94816  0.21246  0.50690  Biso   1.000  O
  O39      1.0000 0.84894  0.22834  0.40445  Biso   1.000  O
  O40      1.0000 0.88461  0.28255  0.51296  Biso   1.000  O
  N46      1.0000 0.02817  0.34259  0.72090  Biso   1.000  N
  N47      1.0000 0.99201  0.35192  0.74325  Biso   1.000  N
  N48      1.0000 0.01572  0.31520  0.65090  Biso   1.000  N
  N49      1.0000 0.91294  0.32635  0.68270  Biso   1.000  N
  H119     1.0000 0.90570  0.34050  0.72410  Biso   1.000  H
  H120     1.0000 0.89210  0.31060  0.64120  Biso   1.000  H
  N50      1.0000 0.97080  0.30596  0.62412  Biso   1.000  N
  Zn11     1.0000 0.60540  0.60234  0.84660  Biso   1.000  Zn
  C191     1.0000 0.51803  0.59431  0.78753  Biso   1.000  C
  C192     1.0000 0.48067  0.61108  0.78183  Biso   1.000  C
  C193     1.0000 0.49050  0.65558  0.81913  Biso   1.000  C
  H121     1.0000 0.52087  0.67593  0.84543  Biso   1.000  H
  C194     1.0000 0.45518  0.66966  0.81733  Biso   1.000  C
  H122     1.0000 0.46237  0.69983  0.84163  Biso   1.000  H
  C195     1.0000 0.40858  0.63933  0.77941  Biso   1.000  C
  C196     1.0000 0.40063  0.59605  0.73863  Biso   1.000  C
  H123     1.0000 0.37077  0.57613  0.71023  Biso   1.000  H
  C197     1.0000 0.43583  0.58206  0.73943  Biso   1.000  C
  H124     1.0000 0.42957  0.55303  0.71143  Biso   1.000  H
  C198     1.0000 0.37021  0.65332  0.78143  Biso   1.000  C
  C199     1.0000 0.32047  0.61738  0.78187  Biso   1.000  C
  H125     1.0000 0.31177  0.58433  0.78243  Biso   1.000  H
  C200     1.0000 0.59164  0.51349  0.90013  Biso   1.000  C
  C201     1.0000 0.60862  0.47750  0.91703  Biso   1.000  C
  C202     1.0000 0.58220  0.43763  0.97413  Biso   1.000  C
  H126     1.0000 0.55427  0.43393  0.00263  Biso   1.000  H
  C203     1.0000 0.59715  0.40373  0.98863  Biso   1.000  C
  H127     1.0000 0.57857  0.37703  0.02563  Biso   1.000  H
  C204     1.0000 0.63933  0.40858  0.94914  Biso   1.000  C
  C205     1.0000 0.66659  0.44920  0.89413  Biso   1.000  C
  H128     1.0000 0.69547  0.45383  0.86823  Biso   1.000  H
  C206     1.0000 0.65107  0.48259  0.87783  Biso   1.000  C
  H129     1.0000 0.66937  0.50903  0.84003  Biso   1.000  H
  C207     1.0000 0.65373  0.37018  0.95896  Biso   1.000  C
  C208     1.0000 0.70315  0.38247  0.95952  Biso   1.000  C
  H130     1.0000 0.72757  0.41543  0.96023  Biso   1.000  H
  C209     1.0000 0.62369  0.66210  0.01613  Biso   1.000  C
  O41      1.0000 0.55766  0.51247  0.94213  Biso   1.000  O
  O42      1.0000 0.61483  0.54579  0.84023  Biso   1.000  O
  O43      1.0000 0.51561  0.56167  0.73778  Biso   1.000  O
  O44      1.0000 0.55128  0.61588  0.84629  Biso   1.000  O
  N51      1.0000 0.69484  0.67592  0.05423  Biso   1.000  N
  N52      1.0000 0.65868  0.68525  0.07658  Biso   1.000  N
  N53      1.0000 0.68239  0.64853  0.98423  Biso   1.000  N
  N54      1.0000 0.57961  0.65968  0.01603  Biso   1.000  N
  H131     1.0000 0.57237  0.67383  0.05743  Biso   1.000  H
  H132     1.0000 0.55877  0.64393  0.97453  Biso   1.000  H
  N55      1.0000 0.63747  0.63929  0.95745  Biso   1.000  N
  Zn12     1.0000 0.27207  0.93567  0.17994  Biso   1.000  Zn
  C210     1.0000 0.18469  0.92765  0.12087  Biso   1.000  C
  C211     1.0000 0.14733  0.94442  0.11517  Biso   1.000  C
  C212     1.0000 0.15716  0.98892  0.15247  Biso   1.000  C
  H133     1.0000 0.18753  0.00927  0.17877  Biso   1.000  H
  C213     1.0000 0.12184  0.00300  0.15067  Biso   1.000  C
  H134     1.0000 0.12903  0.03317  0.17497  Biso   1.000  H
  C214     1.0000 0.07524  0.97267  0.11275  Biso   1.000  C
  C215     1.0000 0.06729  0.92939  0.07197  Biso   1.000  C
  H135     1.0000 0.03743  0.90947  0.04357  Biso   1.000  H
  C216     1.0000 0.10249  0.91540  0.07277  Biso   1.000  C
  H136     1.0000 0.09623  0.88637  0.04477  Biso   1.000  H
  C217     1.0000 0.03687  0.98666  0.11477  Biso   1.000  C
  C218     1.0000 0.98713  0.95072  0.11521  Biso   1.000  C
  H137     1.0000 0.97843  0.91767  0.11577  Biso   1.000  H
  C219     1.0000 0.25830  0.84683  0.23347  Biso   1.000  C
  C220     1.0000 0.27528  0.81084  0.25037  Biso   1.000  C
  C221     1.0000 0.24886  0.77097  0.30747  Biso   1.000  C
  H138     1.0000 0.22093  0.76727  0.33597  Biso   1.000  H
  C222     1.0000 0.26381  0.73707  0.32197  Biso   1.000  C
  H139     1.0000 0.24523  0.71037  0.35897  Biso   1.000  H
  C223     1.0000 0.30599  0.74192  0.28248  Biso   1.000  C
  C224     1.0000 0.33325  0.78254  0.22747  Biso   1.000  C
  H140     1.0000 0.36213  0.78717  0.20157  Biso   1.000  H
  C225     1.0000 0.31773  0.81593  0.21117  Biso   1.000  C
  H141     1.0000 0.33603  0.84237  0.17337  Biso   1.000  H
  C226     1.0000 0.32039  0.70352  0.29230  Biso   1.000  C
  C227     1.0000 0.36981  0.71581  0.29286  Biso   1.000  C
  H142     1.0000 0.39423  0.74877  0.29357  Biso   1.000  H
  C228     1.0000 0.29035  0.99544  0.34947  Biso   1.000  C
  O45      1.0000 0.22432  0.84581  0.27547  Biso   1.000  O
  O46      1.0000 0.28149  0.87913  0.17357  Biso   1.000  O
  O47      1.0000 0.18227  0.89501  0.07112  Biso   1.000  O
  O48      1.0000 0.21794  0.94922  0.17963  Biso   1.000  O
  N56      1.0000 0.36150  0.00926  0.38757  Biso   1.000  N
  N57      1.0000 0.32534  0.01859  0.40992  Biso   1.000  N
  N58      1.0000 0.34905  0.98187  0.31757  Biso   1.000  N
  N59      1.0000 0.24627  0.99302  0.34937  Biso   1.000  N
  H143     1.0000 0.23903  0.00717  0.39077  Biso   1.000  H
  H144     1.0000 0.22543  0.97727  0.30787  Biso   1.000  H
  N60      1.0000 0.30413  0.97263  0.29079  Biso   1.000  N
  Zn13     1.0000 0.73099  0.66973  0.51327  Biso   1.000  Zn
  C229     1.0000 0.73902  0.59038  0.45420  Biso   1.000  C
  C230     1.0000 0.72225  0.53625  0.44850  Biso   1.000  C
  C231     1.0000 0.67775  0.50158  0.48580  Biso   1.000  C
  H145     1.0000 0.65740  0.51160  0.51210  Biso   1.000  H
  C232     1.0000 0.66367  0.45218  0.48400  Biso   1.000  C
  H146     1.0000 0.63350  0.42920  0.50830  Biso   1.000  H
  C233     1.0000 0.69400  0.43591  0.44608  Biso   1.000  C
  C234     1.0000 0.73728  0.47124  0.40530  Biso   1.000  C
  H147     1.0000 0.75720  0.46130  0.37690  Biso   1.000  H
  C235     1.0000 0.75127  0.52043  0.40610  Biso   1.000  C
  H148     1.0000 0.78030  0.54320  0.37810  Biso   1.000  H
  C236     1.0000 0.68001  0.38355  0.44810  Biso   1.000  C
  C237     1.0000 0.71595  0.36975  0.44854  Biso   1.000  C
  H149     1.0000 0.74900  0.39410  0.44910  Biso   1.000  H
  C238     1.0000 0.81984  0.74481  0.56680  Biso   1.000  C
  C239     1.0000 0.85583  0.79778  0.58370  Biso   1.000  C
  C240     1.0000 0.89570  0.81123  0.64080  Biso   1.000  C
  H150     1.0000 0.89940  0.78700  0.66930  Biso   1.000  H
  C241     1.0000 0.92960  0.86008  0.65530  Biso   1.000  C
  H151     1.0000 0.95630  0.86820  0.69230  Biso   1.000  H
  C242     1.0000 0.92475  0.89741  0.61581  Biso   1.000  C
  C243     1.0000 0.88413  0.88405  0.56080  Biso   1.000  C
  H152     1.0000 0.87950  0.90830  0.53490  Biso   1.000  H
  C244     1.0000 0.85074  0.83514  0.54450  Biso   1.000  C
  H153     1.0000 0.82430  0.82700  0.50670  Biso   1.000  H
  C245     1.0000 0.96315  0.95021  0.62563  Biso   1.000  C
  C246     1.0000 0.95086  0.98734  0.62619  Biso   1.000  C
  H154     1.0000 0.91790  0.97880  0.62690  Biso   1.000  H
  C247     1.0000 0.67123  0.62825  0.68280  Biso   1.000  C
  O49      1.0000 0.82086  0.71185  0.60880  Biso   1.000  O
  O50      1.0000 0.78754  0.73570  0.50690  Biso   1.000  O
  O51      1.0000 0.77166  0.62060  0.40445  Biso   1.000  O
  O52      1.0000 0.71745  0.60206  0.51296  Biso   1.000  O
  N61      1.0000 0.65741  0.68558  0.72090  Biso   1.000  N
  N62      1.0000 0.64808  0.64009  0.74325  Biso   1.000  N
  N63      1.0000 0.68480  0.70052  0.65090  Biso   1.000  N
  N64      1.0000 0.67365  0.58659  0.68270  Biso   1.000  N
  H155     1.0000 0.65950  0.56520  0.72410  Biso   1.000  H
  H156     1.0000 0.68940  0.58150  0.64120  Biso   1.000  H
  N65      1.0000 0.69404  0.66484  0.62412  Biso   1.000  N
  Zn14     1.0000 0.39766  0.00306  0.84660  Biso   1.000  Zn
  C248     1.0000 0.40569  0.92371  0.78753  Biso   1.000  C
  C249     1.0000 0.38892  0.86958  0.78183  Biso   1.000  C
  C250     1.0000 0.34442  0.83491  0.81913  Biso   1.000  C
  H157     1.0000 0.32407  0.84493  0.84543  Biso   1.000  H
  C251     1.0000 0.33034  0.78551  0.81733  Biso   1.000  C
  H158     1.0000 0.30017  0.76253  0.84163  Biso   1.000  H
  C252     1.0000 0.36067  0.76924  0.77941  Biso   1.000  C
  C253     1.0000 0.40395  0.80457  0.73863  Biso   1.000  C
  H159     1.0000 0.42387  0.79463  0.71023  Biso   1.000  H
  C254     1.0000 0.41794  0.85376  0.73943  Biso   1.000  C
  H160     1.0000 0.44697  0.87653  0.71143  Biso   1.000  H
  C255     1.0000 0.34668  0.71688  0.78143  Biso   1.000  C
  C256     1.0000 0.38262  0.70308  0.78187  Biso   1.000  C
  H161     1.0000 0.41567  0.72743  0.78243  Biso   1.000  H
  C257     1.0000 0.48651  0.07814  0.90013  Biso   1.000  C
  C258     1.0000 0.52250  0.13111  0.91703  Biso   1.000  C
  C259     1.0000 0.56237  0.14456  0.97413  Biso   1.000  C
  H162     1.0000 0.56607  0.12033  0.00263  Biso   1.000  H
  C260     1.0000 0.59627  0.19341  0.98863  Biso   1.000  C
  H163     1.0000 0.62297  0.20153  0.02563  Biso   1.000  H
  C261     1.0000 0.59142  0.23074  0.94914  Biso   1.000  C
  C262     1.0000 0.55080  0.21738  0.89413  Biso   1.000  C
  H164     1.0000 0.54617  0.24163  0.86823  Biso   1.000  H
  C263     1.0000 0.51741  0.16847  0.87783  Biso   1.000  C
  H165     1.0000 0.49097  0.16033  0.84003  Biso   1.000  H
  C264     1.0000 0.62982  0.28354  0.95896  Biso   1.000  C
  C265     1.0000 0.61753  0.32067  0.95952  Biso   1.000  C
  H166     1.0000 0.58457  0.31213  0.96023  Biso   1.000  H
  C266     1.0000 0.33790  0.96158  0.01613  Biso   1.000  C
  O53      1.0000 0.48753  0.04518  0.94213  Biso   1.000  O
  O54      1.0000 0.45421  0.06903  0.84023  Biso   1.000  O
  O55      1.0000 0.43833  0.95393  0.73778  Biso   1.000  O
  O56      1.0000 0.38412  0.93539  0.84629  Biso   1.000  O
  N66      1.0000 0.32408  0.01891  0.05423  Biso   1.000  N
  N67      1.0000 0.31475  0.97342  0.07658  Biso   1.000  N
  N68      1.0000 0.35147  0.03385  0.98423  Biso   1.000  N
  N69      1.0000 0.34032  0.91992  0.01603  Biso   1.000  N
  H167     1.0000 0.32617  0.89853  0.05743  Biso   1.000  H
  H168     1.0000 0.35607  0.91483  0.97453  Biso   1.000  H
  N70      1.0000 0.36071  0.99817  0.95745  Biso   1.000  N
  Zn15     1.0000 0.06433  0.33639  0.17994  Biso   1.000  Zn
  C267     1.0000 0.07235  0.25705  0.12087  Biso   1.000  C
  C268     1.0000 0.05558  0.20292  0.11517  Biso   1.000  C
  C269     1.0000 0.01108  0.16825  0.15247  Biso   1.000  C
  H169     1.0000 0.99073  0.17827  0.17877  Biso   1.000  H
  C270     1.0000 0.99700  0.11885  0.15067  Biso   1.000  C
  H170     1.0000 0.96683  0.09587  0.17497  Biso   1.000  H
  C271     1.0000 0.02733  0.10258  0.11275  Biso   1.000  C
  C272     1.0000 0.07061  0.13791  0.07197  Biso   1.000  C
  H171     1.0000 0.09053  0.12797  0.04357  Biso   1.000  H
  C273     1.0000 0.08460  0.18710  0.07277  Biso   1.000  C
  H172     1.0000 0.11363  0.20987  0.04477  Biso   1.000  H
  C274     1.0000 0.01334  0.05022  0.11477  Biso   1.000  C
  C275     1.0000 0.04928  0.03642  0.11521  Biso   1.000  C
  H173     1.0000 0.08233  0.06077  0.11577  Biso   1.000  H
  C276     1.0000 0.15317  0.41148  0.23347  Biso   1.000  C
  C277     1.0000 0.18916  0.46445  0.25037  Biso   1.000  C
  C278     1.0000 0.22903  0.47790  0.30747  Biso   1.000  C
  H174     1.0000 0.23273  0.45367  0.33597  Biso   1.000  H
  C279     1.0000 0.26293  0.52675  0.32197  Biso   1.000  C
  H175     1.0000 0.28963  0.53487  0.35897  Biso   1.000  H
  C280     1.0000 0.25808  0.56408  0.28248  Biso   1.000  C
  C281     1.0000 0.21746  0.55072  0.22747  Biso   1.000  C
  H176     1.0000 0.21283  0.57497  0.20157  Biso   1.000  H
  C282     1.0000 0.18407  0.50181  0.21117  Biso   1.000  C
  H177     1.0000 0.15763  0.49367  0.17337  Biso   1.000  H
  C283     1.0000 0.29648  0.61688  0.29230  Biso   1.000  C
  C284     1.0000 0.28419  0.65401  0.29286  Biso   1.000  C
  H178     1.0000 0.25123  0.64547  0.29357  Biso   1.000  H
  C285     1.0000 0.00456  0.29492  0.34947  Biso   1.000  C
  O57      1.0000 0.15419  0.37852  0.27547  Biso   1.000  O
  O58      1.0000 0.12087  0.40237  0.17357  Biso   1.000  O
  O59      1.0000 0.10499  0.28727  0.07112  Biso   1.000  O
  O60      1.0000 0.05078  0.26873  0.17963  Biso   1.000  O
  N71      1.0000 0.99074  0.35225  0.38757  Biso   1.000  N
  N72      1.0000 0.98141  0.30676  0.40992  Biso   1.000  N
  N73      1.0000 0.01813  0.36719  0.31757  Biso   1.000  N
  N74      1.0000 0.00698  0.25326  0.34937  Biso   1.000  N
  H179     1.0000 0.99283  0.23187  0.39077  Biso   1.000  H
  H180     1.0000 0.02273  0.24817  0.30787  Biso   1.000  H
  N75      1.0000 0.02737  0.33151  0.29079  Biso   1.000  N
  Zn16     1.0000 0.33027  0.06126  0.51327  Biso   1.000  Zn
  C286     1.0000 0.40962  0.14864  0.45420  Biso   1.000  C
  C287     1.0000 0.46375  0.18600  0.44850  Biso   1.000  C
  C288     1.0000 0.49842  0.17617  0.48580  Biso   1.000  C
  H181     1.0000 0.48840  0.14580  0.51210  Biso   1.000  H
  C289     1.0000 0.54782  0.21149  0.48400  Biso   1.000  C
  H182     1.0000 0.57080  0.20430  0.50830  Biso   1.000  H
  C290     1.0000 0.56409  0.25809  0.44608  Biso   1.000  C
  C291     1.0000 0.52876  0.26604  0.40530  Biso   1.000  C
  H183     1.0000 0.53870  0.29590  0.37690  Biso   1.000  H
  C292     1.0000 0.47957  0.23084  0.40610  Biso   1.000  C
  H184     1.0000 0.45680  0.23710  0.37810  Biso   1.000  H
  C293     1.0000 0.61645  0.29646  0.44810  Biso   1.000  C
  C294     1.0000 0.63025  0.34620  0.44854  Biso   1.000  C
  H185     1.0000 0.60590  0.35490  0.44910  Biso   1.000  H
  C295     1.0000 0.25519  0.07503  0.56680  Biso   1.000  C
  C296     1.0000 0.20222  0.05805  0.58370  Biso   1.000  C
  C297     1.0000 0.18877  0.08447  0.64080  Biso   1.000  C
  H186     1.0000 0.21300  0.11240  0.66930  Biso   1.000  H
  C298     1.0000 0.13992  0.06952  0.65530  Biso   1.000  C
  H187     1.0000 0.13180  0.08810  0.69230  Biso   1.000  H
  C299     1.0000 0.10259  0.02734  0.61581  Biso   1.000  C
  C300     1.0000 0.11595  0.00008  0.56080  Biso   1.000  C
  H188     1.0000 0.09170  0.97120  0.53490  Biso   1.000  H
  C301     1.0000 0.16486  0.01560  0.54450  Biso   1.000  C
  H189     1.0000 0.17300  0.99730  0.50670  Biso   1.000  H
  C302     1.0000 0.04979  0.01294  0.62563  Biso   1.000  C
  C303     1.0000 0.01266  0.96352  0.62619  Biso   1.000  C
  H190     1.0000 0.02120  0.93910  0.62690  Biso   1.000  H
  C304     1.0000 0.37175  0.04298  0.68280  Biso   1.000  C
  O61      1.0000 0.28815  0.10901  0.60880  Biso   1.000  O
  O62      1.0000 0.26430  0.05184  0.50690  Biso   1.000  O
  O63      1.0000 0.37940  0.15106  0.40445  Biso   1.000  O
  O64      1.0000 0.39794  0.11539  0.51296  Biso   1.000  O
  N76      1.0000 0.31442  0.97183  0.72090  Biso   1.000  N
  N77      1.0000 0.35991  0.00799  0.74325  Biso   1.000  N
  N78      1.0000 0.29948  0.98428  0.65090  Biso   1.000  N
  N79      1.0000 0.41341  0.08706  0.68270  Biso   1.000  N
  H191     1.0000 0.43480  0.09430  0.72410  Biso   1.000  H
  H192     1.0000 0.41850  0.10790  0.64120  Biso   1.000  H
  N80      1.0000 0.33516  0.02920  0.62412  Biso   1.000  N
  Zn17     1.0000 0.99694  0.39460  0.84660  Biso   1.000  Zn
  C305     1.0000 0.07629  0.48197  0.78753  Biso   1.000  C
  C306     1.0000 0.13042  0.51933  0.78183  Biso   1.000  C
  C307     1.0000 0.16509  0.50950  0.81913  Biso   1.000  C
  H193     1.0000 0.15507  0.47913  0.84543  Biso   1.000  H
  C308     1.0000 0.21449  0.54482  0.81733  Biso   1.000  C
  H194     1.0000 0.23747  0.53763  0.84163  Biso   1.000  H
  C309     1.0000 0.23076  0.59142  0.77941  Biso   1.000  C
  C310     1.0000 0.19543  0.59937  0.73863  Biso   1.000  C
  H195     1.0000 0.20537  0.62923  0.71023  Biso   1.000  H
  C311     1.0000 0.14624  0.56417  0.73943  Biso   1.000  C
  H196     1.0000 0.12347  0.57043  0.71143  Biso   1.000  H
  C312     1.0000 0.28312  0.62979  0.78143  Biso   1.000  C
  C313     1.0000 0.29692  0.67953  0.78187  Biso   1.000  C
  H197     1.0000 0.27257  0.68823  0.78243  Biso   1.000  H
  C314     1.0000 0.92186  0.40836  0.90013  Biso   1.000  C
  C315     1.0000 0.86889  0.39138  0.91703  Biso   1.000  C
  C316     1.0000 0.85544  0.41780  0.97413  Biso   1.000  C
  H198     1.0000 0.87967  0.44573  0.00263  Biso   1.000  H
  C317     1.0000 0.80659  0.40285  0.98863  Biso   1.000  C
  H199     1.0000 0.79847  0.42143  0.02563  Biso   1.000  H
  C318     1.0000 0.76926  0.36067  0.94914  Biso   1.000  C
  C319     1.0000 0.78262  0.33341  0.89413  Biso   1.000  C
  H200     1.0000 0.75837  0.30453  0.86823  Biso   1.000  H
  C320     1.0000 0.83153  0.34893  0.87783  Biso   1.000  C
  H201     1.0000 0.83967  0.33063  0.84003  Biso   1.000  H
  C321     1.0000 0.71646  0.34627  0.95896  Biso   1.000  C
  C322     1.0000 0.67933  0.29685  0.95952  Biso   1.000  C
  H202     1.0000 0.68787  0.27243  0.96023  Biso   1.000  H
  C323     1.0000 0.03842  0.37631  0.01613  Biso   1.000  C
  O65      1.0000 0.95482  0.44234  0.94213  Biso   1.000  O
  O66      1.0000 0.93097  0.38517  0.84023  Biso   1.000  O
  O67      1.0000 0.04607  0.48439  0.73778  Biso   1.000  O
  O68      1.0000 0.06461  0.44872  0.84629  Biso   1.000  O
  N81      1.0000 0.98109  0.30516  0.05423  Biso   1.000  N
  N82      1.0000 0.02658  0.34132  0.07658  Biso   1.000  N
  N83      1.0000 0.96615  0.31761  0.98423  Biso   1.000  N
  N84      1.0000 0.08008  0.42039  0.01603  Biso   1.000  N
  H203     1.0000 0.10147  0.42763  0.05743  Biso   1.000  H
  H204     1.0000 0.08517  0.44123  0.97453  Biso   1.000  H
  N85      1.0000 0.00183  0.36253  0.95745  Biso   1.000  N
  Zn18     1.0000 0.66361  0.72793  0.17994  Biso   1.000  Zn
  C324     1.0000 0.74295  0.81531  0.12087  Biso   1.000  C
  C325     1.0000 0.79708  0.85267  0.11517  Biso   1.000  C
  C326     1.0000 0.83175  0.84284  0.15247  Biso   1.000  C
  H205     1.0000 0.82173  0.81247  0.17877  Biso   1.000  H
  C327     1.0000 0.88115  0.87816  0.15067  Biso   1.000  C
  H206     1.0000 0.90413  0.87097  0.17497  Biso   1.000  H
  C328     1.0000 0.89742  0.92476  0.11275  Biso   1.000  C
  C329     1.0000 0.86209  0.93271  0.07197  Biso   1.000  C
  H207     1.0000 0.87203  0.96257  0.04357  Biso   1.000  H
  C330     1.0000 0.81290  0.89751  0.07277  Biso   1.000  C
  H208     1.0000 0.79013  0.90377  0.04477  Biso   1.000  H
  C331     1.0000 0.94978  0.96313  0.11477  Biso   1.000  C
  C332     1.0000 0.96358  0.01287  0.11521  Biso   1.000  C
  H209     1.0000 0.93923  0.02157  0.11577  Biso   1.000  H
  C333     1.0000 0.58852  0.74170  0.23347  Biso   1.000  C
  C334     1.0000 0.53555  0.72472  0.25037  Biso   1.000  C
  C335     1.0000 0.52210  0.75114  0.30747  Biso   1.000  C
  H210     1.0000 0.54633  0.77907  0.33597  Biso   1.000  H
  C336     1.0000 0.47325  0.73619  0.32197  Biso   1.000  C
  H211     1.0000 0.46513  0.75477  0.35897  Biso   1.000  H
  C337     1.0000 0.43592  0.69401  0.28248  Biso   1.000  C
  C338     1.0000 0.44928  0.66675  0.22747  Biso   1.000  C
  H212     1.0000 0.42503  0.63787  0.20157  Biso   1.000  H
  C339     1.0000 0.49819  0.68227  0.21117  Biso   1.000  C
  H213     1.0000 0.50633  0.66397  0.17337  Biso   1.000  H
  C340     1.0000 0.38312  0.67961  0.29230  Biso   1.000  C
  C341     1.0000 0.34599  0.63019  0.29286  Biso   1.000  C
  H214     1.0000 0.35453  0.60577  0.29357  Biso   1.000  H
  C342     1.0000 0.70508  0.70965  0.34947  Biso   1.000  C
  O69      1.0000 0.62148  0.77568  0.27547  Biso   1.000  O
  O70      1.0000 0.59763  0.71851  0.17357  Biso   1.000  O
  O71      1.0000 0.71273  0.81773  0.07112  Biso   1.000  O
  O72      1.0000 0.73127  0.78206  0.17963  Biso   1.000  O
  N86      1.0000 0.64775  0.63850  0.38757  Biso   1.000  N
  N87      1.0000 0.69324  0.67466  0.40992  Biso   1.000  N
  N88      1.0000 0.63281  0.65095  0.31757  Biso   1.000  N
  N89      1.0000 0.74674  0.75373  0.34937  Biso   1.000  N
  H215     1.0000 0.76813  0.76097  0.39077  Biso   1.000  H
  H216     1.0000 0.75183  0.77457  0.30787  Biso   1.000  H
  N90      1.0000 0.66849  0.69587  0.29079  Biso   1.000  N
