data_image0
_cell_length_a       44.9918
_cell_length_b       44.9918
_cell_length_c       44.9918
_cell_angle_alpha    60
_cell_angle_beta     60
_cell_angle_gamma    60

_symmetry_space_group_name_H-M    P 1
_symmetry_int_tables_number       1

loop_
  _symmetry_equiv_pos_as_xyz
  'x, y, z'

loop_
  _atom_site_label
  _atom_site_occupancy
  _atom_site_fract_x
  _atom_site_fract_y
  _atom_site_fract_z
  _atom_site_thermal_displace_type
  _atom_site_B_iso_or_equiv
  _atom_site_type_symbol
  Co1      1.0000 0.75000  0.75000  0.99283  Biso   1.000  Co
  Co2      1.0000 0.25000  0.25000  0.50717  Biso   1.000  Co
  Co3      1.0000 0.49283  0.50717  0.25000  Biso   1.000  Co
  Co4      1.0000 0.00717  0.99283  0.75000  Biso   1.000  Co
  Co5      1.0000 0.75000  0.99283  0.50717  Biso   1.000  Co
  Co6      1.0000 0.25000  0.50717  0.99283  Biso   1.000  Co
  Co7      1.0000 0.49283  0.25000  0.75000  Biso   1.000  Co
  Co8      1.0000 0.00717  0.75000  0.25000  Biso   1.000  Co
  Co9      1.0000 0.75000  0.50717  0.75000  Biso   1.000  Co
  Co10     1.0000 0.25000  0.99283  0.25000  Biso   1.000  Co
  Co11     1.0000 0.49283  0.75000  0.50717  Biso   1.000  Co
  Co12     1.0000 0.00717  0.25000  0.99283  Biso   1.000  Co
  Co13     1.0000 0.25000  0.25000  0.00717  Biso   1.000  Co
  Co14     1.0000 0.75000  0.75000  0.49283  Biso   1.000  Co
  Co15     1.0000 0.50717  0.49283  0.75000  Biso   1.000  Co
  Co16     1.0000 0.99283  0.00717  0.25000  Biso   1.000  Co
  Co17     1.0000 0.25000  0.00717  0.49283  Biso   1.000  Co
  Co18     1.0000 0.75000  0.49283  0.00717  Biso   1.000  Co
  Co19     1.0000 0.50717  0.75000  0.25000  Biso   1.000  Co
  Co20     1.0000 0.99283  0.25000  0.75000  Biso   1.000  Co
  Co21     1.0000 0.25000  0.49283  0.25000  Biso   1.000  Co
  Co22     1.0000 0.75000  0.00717  0.75000  Biso   1.000  Co
  Co23     1.0000 0.50717  0.25000  0.49283  Biso   1.000  Co
  Co24     1.0000 0.99283  0.75000  0.00717  Biso   1.000  Co
  Co25     1.0000 0.74761  0.50239  0.24761  Biso   1.000  Co
  Co26     1.0000 0.00239  0.24761  0.50239  Biso   1.000  Co
  Co27     1.0000 0.74761  0.24761  0.50239  Biso   1.000  Co
  Co28     1.0000 0.00239  0.50239  0.24761  Biso   1.000  Co
  Co29     1.0000 0.74761  0.50239  0.50239  Biso   1.000  Co
  Co30     1.0000 0.00239  0.24761  0.24761  Biso   1.000  Co
  Co31     1.0000 0.49761  0.25239  0.25239  Biso   1.000  Co
  Co32     1.0000 0.75239  0.99761  0.99761  Biso   1.000  Co
  Co33     1.0000 0.75239  0.25239  0.99761  Biso   1.000  Co
  Co34     1.0000 0.49761  0.99761  0.25239  Biso   1.000  Co
  Co35     1.0000 0.49761  0.25239  0.99761  Biso   1.000  Co
  Co36     1.0000 0.75239  0.99761  0.25239  Biso   1.000  Co
  Co37     1.0000 0.25239  0.49761  0.75239  Biso   1.000  Co
  Co38     1.0000 0.99761  0.75239  0.49761  Biso   1.000  Co
  Co39     1.0000 0.25239  0.75239  0.49761  Biso   1.000  Co
  Co40     1.0000 0.99761  0.49761  0.75239  Biso   1.000  Co
  Co41     1.0000 0.25239  0.49761  0.49761  Biso   1.000  Co
  Co42     1.0000 0.99761  0.75239  0.75239  Biso   1.000  Co
  Co43     1.0000 0.50239  0.74761  0.74761  Biso   1.000  Co
  Co44     1.0000 0.24761  0.00239  0.00239  Biso   1.000  Co
  Co45     1.0000 0.24761  0.74761  0.00239  Biso   1.000  Co
  Co46     1.0000 0.50239  0.00239  0.74761  Biso   1.000  Co
  Co47     1.0000 0.50239  0.74761  0.00239  Biso   1.000  Co
  Co48     1.0000 0.24761  0.00239  0.74761  Biso   1.000  Co
  H1       1.0000 0.58700  0.72620  0.20980  Biso   1.000  H
  H2       1.0000 0.64780  0.63820  0.26940  Biso   1.000  H
  H3       1.0000 0.59480  0.64260  0.32180  Biso   1.000  H
  H4       1.0000 0.53970  0.68530  0.31430  Biso   1.000  H
  H5       1.0000 0.67950  0.81330  0.01910  Biso   1.000  H
  H6       1.0000 0.63050  0.82170  0.07110  Biso   1.000  H
  H7       1.0000 0.62870  0.77390  0.12650  Biso   1.000  H
  H8       1.0000 0.72640  0.71340  0.07500  Biso   1.000  H
  H9       1.0000 0.70850  0.58350  0.21770  Biso   1.000  H
  H10      1.0000 0.75910  0.62710  0.11070  Biso   1.000  H
  H11      1.0000 0.80100  0.56900  0.11140  Biso   1.000  H
  H12      1.0000 0.79420  0.51920  0.16500  Biso   1.000  H
  H13      1.0000 0.77360  0.55860  0.23960  Biso   1.000  H
  H14      1.0000 0.82410  0.56610  0.23190  Biso   1.000  H
  H15      1.0000 0.87950  0.51750  0.22810  Biso   1.000  H
  H16      1.0000 0.82740  0.45600  0.24580  Biso   1.000  H
  H17      1.0000 0.22620  0.08700  0.47700  Biso   1.000  H
  H18      1.0000 0.13820  0.14780  0.44460  Biso   1.000  H
  H19      1.0000 0.14260  0.09480  0.44080  Biso   1.000  H
  H20      1.0000 0.18530  0.03970  0.46070  Biso   1.000  H
  H21      1.0000 0.31330  0.17950  0.48810  Biso   1.000  H
  H22      1.0000 0.32170  0.13050  0.47670  Biso   1.000  H
  H23      1.0000 0.27390  0.12870  0.47090  Biso   1.000  H
  H24      1.0000 0.21340  0.22640  0.48520  Biso   1.000  H
  H25      1.0000 0.08350  0.20850  0.49030  Biso   1.000  H
  H26      1.0000 0.12710  0.25910  0.50310  Biso   1.000  H
  H27      1.0000 0.06900  0.30100  0.51860  Biso   1.000  H
  H28      1.0000 0.01920  0.29420  0.52160  Biso   1.000  H
  H29      1.0000 0.05860  0.27360  0.42820  Biso   1.000  H
  H30      1.0000 0.06610  0.32410  0.37790  Biso   1.000  H
  H31      1.0000 0.01750  0.37950  0.37490  Biso   1.000  H
  H32      1.0000 0.95600  0.32740  0.47080  Biso   1.000  H
  H33      1.0000 0.70980  0.47700  0.08700  Biso   1.000  H
  H34      1.0000 0.76940  0.44460  0.14780  Biso   1.000  H
  H35      1.0000 0.82180  0.44080  0.09480  Biso   1.000  H
  H36      1.0000 0.81430  0.46070  0.03970  Biso   1.000  H
  H37      1.0000 0.51910  0.48810  0.17950  Biso   1.000  H
  H38      1.0000 0.57110  0.47670  0.13050  Biso   1.000  H
  H39      1.0000 0.62650  0.47090  0.12870  Biso   1.000  H
  H40      1.0000 0.57500  0.48520  0.22640  Biso   1.000  H
  H41      1.0000 0.71770  0.49030  0.20850  Biso   1.000  H
  H42      1.0000 0.61070  0.50310  0.25910  Biso   1.000  H
  H43      1.0000 0.61140  0.51860  0.30100  Biso   1.000  H
  H44      1.0000 0.66500  0.52160  0.29420  Biso   1.000  H
  H45      1.0000 0.73960  0.42820  0.27360  Biso   1.000  H
  H46      1.0000 0.73190  0.37790  0.32410  Biso   1.000  H
  H47      1.0000 0.72810  0.37490  0.37950  Biso   1.000  H
  H48      1.0000 0.74580  0.47080  0.32740  Biso   1.000  H
  H49      1.0000 0.97700  0.20980  0.72620  Biso   1.000  H
  H50      1.0000 0.94460  0.26940  0.63820  Biso   1.000  H
  H51      1.0000 0.94080  0.32180  0.64260  Biso   1.000  H
  H52      1.0000 0.96070  0.31430  0.68530  Biso   1.000  H
  H53      1.0000 0.98810  0.01910  0.81330  Biso   1.000  H
  H54      1.0000 0.97670  0.07110  0.82170  Biso   1.000  H
  H55      1.0000 0.97090  0.12650  0.77390  Biso   1.000  H
  H56      1.0000 0.98520  0.07500  0.71340  Biso   1.000  H
  H57      1.0000 0.99030  0.21770  0.58350  Biso   1.000  H
  H58      1.0000 0.00310  0.11070  0.62710  Biso   1.000  H
  H59      1.0000 0.01860  0.11140  0.56900  Biso   1.000  H
  H60      1.0000 0.02160  0.16500  0.51920  Biso   1.000  H
  H61      1.0000 0.92820  0.23960  0.55860  Biso   1.000  H
  H62      1.0000 0.87790  0.23190  0.56610  Biso   1.000  H
  H63      1.0000 0.87490  0.22810  0.51750  Biso   1.000  H
  H64      1.0000 0.97080  0.24580  0.45600  Biso   1.000  H
  H65      1.0000 0.58700  0.20980  0.47700  Biso   1.000  H
  H66      1.0000 0.64780  0.26940  0.44460  Biso   1.000  H
  H67      1.0000 0.59480  0.32180  0.44080  Biso   1.000  H
  H68      1.0000 0.53970  0.31430  0.46070  Biso   1.000  H
  H69      1.0000 0.67950  0.01910  0.48810  Biso   1.000  H
  H70      1.0000 0.63050  0.07110  0.47670  Biso   1.000  H
  H71      1.0000 0.62870  0.12650  0.47090  Biso   1.000  H
  H72      1.0000 0.72640  0.07500  0.48520  Biso   1.000  H
  H73      1.0000 0.70850  0.21770  0.49030  Biso   1.000  H
  H74      1.0000 0.75910  0.11070  0.50310  Biso   1.000  H
  H75      1.0000 0.80100  0.11140  0.51860  Biso   1.000  H
  H76      1.0000 0.79420  0.16500  0.52160  Biso   1.000  H
  H77      1.0000 0.77360  0.23960  0.42820  Biso   1.000  H
  H78      1.0000 0.82410  0.23190  0.37790  Biso   1.000  H
  H79      1.0000 0.87950  0.22810  0.37490  Biso   1.000  H
  H80      1.0000 0.82740  0.24580  0.47080  Biso   1.000  H
  H81      1.0000 0.22620  0.47700  0.20980  Biso   1.000  H
  H82      1.0000 0.13820  0.44460  0.26940  Biso   1.000  H
  H83      1.0000 0.14260  0.44080  0.32180  Biso   1.000  H
  H84      1.0000 0.18530  0.46070  0.31430  Biso   1.000  H
  H85      1.0000 0.31330  0.48810  0.01910  Biso   1.000  H
  H86      1.0000 0.32170  0.47670  0.07110  Biso   1.000  H
  H87      1.0000 0.27390  0.47090  0.12650  Biso   1.000  H
  H88      1.0000 0.21340  0.48520  0.07500  Biso   1.000  H
  H89      1.0000 0.08350  0.49030  0.21770  Biso   1.000  H
  H90      1.0000 0.12710  0.50310  0.11070  Biso   1.000  H
  H91      1.0000 0.06900  0.51860  0.11140  Biso   1.000  H
  H92      1.0000 0.01920  0.52160  0.16500  Biso   1.000  H
  H93      1.0000 0.05860  0.42820  0.23960  Biso   1.000  H
  H94      1.0000 0.06610  0.37790  0.23190  Biso   1.000  H
  H95      1.0000 0.01750  0.37490  0.22810  Biso   1.000  H
  H96      1.0000 0.95600  0.47080  0.24580  Biso   1.000  H
  H97      1.0000 0.70980  0.08700  0.72620  Biso   1.000  H
  H98      1.0000 0.76940  0.14780  0.63820  Biso   1.000  H
  H99      1.0000 0.82180  0.09480  0.64260  Biso   1.000  H
  H100     1.0000 0.81430  0.03970  0.68530  Biso   1.000  H
  H101     1.0000 0.51910  0.17950  0.81330  Biso   1.000  H
  H102     1.0000 0.57110  0.13050  0.82170  Biso   1.000  H
  H103     1.0000 0.62650  0.12870  0.77390  Biso   1.000  H
  H104     1.0000 0.57500  0.22640  0.71340  Biso   1.000  H
  H105     1.0000 0.71770  0.20850  0.58350  Biso   1.000  H
  H106     1.0000 0.61070  0.25910  0.62710  Biso   1.000  H
  H107     1.0000 0.61140  0.30100  0.56900  Biso   1.000  H
  H108     1.0000 0.66500  0.29420  0.51920  Biso   1.000  H
  H109     1.0000 0.73960  0.27360  0.55860  Biso   1.000  H
  H110     1.0000 0.73190  0.32410  0.56610  Biso   1.000  H
  H111     1.0000 0.72810  0.37950  0.51750  Biso   1.000  H
  H112     1.0000 0.74580  0.32740  0.45600  Biso   1.000  H
  H113     1.0000 0.97700  0.72620  0.08700  Biso   1.000  H
  H114     1.0000 0.94460  0.63820  0.14780  Biso   1.000  H
  H115     1.0000 0.94080  0.64260  0.09480  Biso   1.000  H
  H116     1.0000 0.96070  0.68530  0.03970  Biso   1.000  H
  H117     1.0000 0.98810  0.81330  0.17950  Biso   1.000  H
  H118     1.0000 0.97670  0.82170  0.13050  Biso   1.000  H
  H119     1.0000 0.97090  0.77390  0.12870  Biso   1.000  H
  H120     1.0000 0.98520  0.71340  0.22640  Biso   1.000  H
  H121     1.0000 0.99030  0.58350  0.20850  Biso   1.000  H
  H122     1.0000 0.00310  0.62710  0.25910  Biso   1.000  H
  H123     1.0000 0.01860  0.56900  0.30100  Biso   1.000  H
  H124     1.0000 0.02160  0.51920  0.29420  Biso   1.000  H
  H125     1.0000 0.92820  0.55860  0.27360  Biso   1.000  H
  H126     1.0000 0.87790  0.56610  0.32410  Biso   1.000  H
  H127     1.0000 0.87490  0.51750  0.37950  Biso   1.000  H
  H128     1.0000 0.97080  0.45600  0.32740  Biso   1.000  H
  H129     1.0000 0.58700  0.47700  0.72620  Biso   1.000  H
  H130     1.0000 0.64780  0.44460  0.63820  Biso   1.000  H
  H131     1.0000 0.59480  0.44080  0.64260  Biso   1.000  H
  H132     1.0000 0.53970  0.46070  0.68530  Biso   1.000  H
  H133     1.0000 0.67950  0.48810  0.81330  Biso   1.000  H
  H134     1.0000 0.63050  0.47670  0.82170  Biso   1.000  H
  H135     1.0000 0.62870  0.47090  0.77390  Biso   1.000  H
  H136     1.0000 0.72640  0.48520  0.71340  Biso   1.000  H
  H137     1.0000 0.70850  0.49030  0.58350  Biso   1.000  H
  H138     1.0000 0.75910  0.50310  0.62710  Biso   1.000  H
  H139     1.0000 0.80100  0.51860  0.56900  Biso   1.000  H
  H140     1.0000 0.79420  0.52160  0.51920  Biso   1.000  H
  H141     1.0000 0.77360  0.42820  0.55860  Biso   1.000  H
  H142     1.0000 0.82410  0.37790  0.56610  Biso   1.000  H
  H143     1.0000 0.87950  0.37490  0.51750  Biso   1.000  H
  H144     1.0000 0.82740  0.47080  0.45600  Biso   1.000  H
  H145     1.0000 0.22620  0.20980  0.08700  Biso   1.000  H
  H146     1.0000 0.13820  0.26940  0.14780  Biso   1.000  H
  H147     1.0000 0.14260  0.32180  0.09480  Biso   1.000  H
  H148     1.0000 0.18530  0.31430  0.03970  Biso   1.000  H
  H149     1.0000 0.31330  0.01910  0.17950  Biso   1.000  H
  H150     1.0000 0.32170  0.07110  0.13050  Biso   1.000  H
  H151     1.0000 0.27390  0.12650  0.12870  Biso   1.000  H
  H152     1.0000 0.21340  0.07500  0.22640  Biso   1.000  H
  H153     1.0000 0.08350  0.21770  0.20850  Biso   1.000  H
  H154     1.0000 0.12710  0.11070  0.25910  Biso   1.000  H
  H155     1.0000 0.06900  0.11140  0.30100  Biso   1.000  H
  H156     1.0000 0.01920  0.16500  0.29420  Biso   1.000  H
  H157     1.0000 0.05860  0.23960  0.27360  Biso   1.000  H
  H158     1.0000 0.06610  0.23190  0.32410  Biso   1.000  H
  H159     1.0000 0.01750  0.22810  0.37950  Biso   1.000  H
  H160     1.0000 0.95600  0.24580  0.32740  Biso   1.000  H
  H161     1.0000 0.70980  0.72620  0.47700  Biso   1.000  H
  H162     1.0000 0.76940  0.63820  0.44460  Biso   1.000  H
  H163     1.0000 0.82180  0.64260  0.44080  Biso   1.000  H
  H164     1.0000 0.81430  0.68530  0.46070  Biso   1.000  H
  H165     1.0000 0.51910  0.81330  0.48810  Biso   1.000  H
  H166     1.0000 0.57110  0.82170  0.47670  Biso   1.000  H
  H167     1.0000 0.62650  0.77390  0.47090  Biso   1.000  H
  H168     1.0000 0.57500  0.71340  0.48520  Biso   1.000  H
  H169     1.0000 0.71770  0.58350  0.49030  Biso   1.000  H
  H170     1.0000 0.61070  0.62710  0.50310  Biso   1.000  H
  H171     1.0000 0.61140  0.56900  0.51860  Biso   1.000  H
  H172     1.0000 0.66500  0.51920  0.52160  Biso   1.000  H
  H173     1.0000 0.73960  0.55860  0.42820  Biso   1.000  H
  H174     1.0000 0.73190  0.56610  0.37790  Biso   1.000  H
  H175     1.0000 0.72810  0.51750  0.37490  Biso   1.000  H
  H176     1.0000 0.74580  0.45600  0.47080  Biso   1.000  H
  H177     1.0000 0.97700  0.08700  0.20980  Biso   1.000  H
  H178     1.0000 0.94460  0.14780  0.26940  Biso   1.000  H
  H179     1.0000 0.94080  0.09480  0.32180  Biso   1.000  H
  H180     1.0000 0.96070  0.03970  0.31430  Biso   1.000  H
  H181     1.0000 0.98810  0.17950  0.01910  Biso   1.000  H
  H182     1.0000 0.97670  0.13050  0.07110  Biso   1.000  H
  H183     1.0000 0.97090  0.12870  0.12650  Biso   1.000  H
  H184     1.0000 0.98520  0.22640  0.07500  Biso   1.000  H
  H185     1.0000 0.99030  0.20850  0.21770  Biso   1.000  H
  H186     1.0000 0.00310  0.25910  0.11070  Biso   1.000  H
  H187     1.0000 0.01860  0.30100  0.11140  Biso   1.000  H
  H188     1.0000 0.02160  0.29420  0.16500  Biso   1.000  H
  H189     1.0000 0.92820  0.27360  0.23960  Biso   1.000  H
  H190     1.0000 0.87790  0.32410  0.23190  Biso   1.000  H
  H191     1.0000 0.87490  0.37950  0.22810  Biso   1.000  H
  H192     1.0000 0.97080  0.32740  0.24580  Biso   1.000  H
  H193     1.0000 0.27380  0.41300  0.29020  Biso   1.000  H
  H194     1.0000 0.36180  0.35220  0.23060  Biso   1.000  H
  H195     1.0000 0.35740  0.40520  0.17820  Biso   1.000  H
  H196     1.0000 0.31470  0.46030  0.18570  Biso   1.000  H
  H197     1.0000 0.18670  0.32050  0.48090  Biso   1.000  H
  H198     1.0000 0.17830  0.36950  0.42890  Biso   1.000  H
  H199     1.0000 0.22610  0.37130  0.37350  Biso   1.000  H
  H200     1.0000 0.28660  0.27360  0.42500  Biso   1.000  H
  H201     1.0000 0.41650  0.29150  0.28230  Biso   1.000  H
  H202     1.0000 0.37290  0.24090  0.38930  Biso   1.000  H
  H203     1.0000 0.43100  0.19900  0.38860  Biso   1.000  H
  H204     1.0000 0.48080  0.20580  0.33500  Biso   1.000  H
  H205     1.0000 0.44140  0.22640  0.26040  Biso   1.000  H
  H206     1.0000 0.43390  0.17590  0.26810  Biso   1.000  H
  H207     1.0000 0.48250  0.12050  0.27190  Biso   1.000  H
  H208     1.0000 0.54400  0.17260  0.25420  Biso   1.000  H
  H209     1.0000 0.91300  0.77380  0.02300  Biso   1.000  H
  H210     1.0000 0.85220  0.86180  0.05540  Biso   1.000  H
  H211     1.0000 0.90520  0.85740  0.05920  Biso   1.000  H
  H212     1.0000 0.96030  0.81470  0.03930  Biso   1.000  H
  H213     1.0000 0.82050  0.68670  0.01190  Biso   1.000  H
  H214     1.0000 0.86950  0.67830  0.02330  Biso   1.000  H
  H215     1.0000 0.87130  0.72610  0.02910  Biso   1.000  H
  H216     1.0000 0.77360  0.78660  0.01480  Biso   1.000  H
  H217     1.0000 0.79150  0.91650  0.00970  Biso   1.000  H
  H218     1.0000 0.74090  0.87290  0.99690  Biso   1.000  H
  H219     1.0000 0.69900  0.93100  0.98140  Biso   1.000  H
  H220     1.0000 0.70580  0.98080  0.97840  Biso   1.000  H
  H221     1.0000 0.72640  0.94140  0.07180  Biso   1.000  H
  H222     1.0000 0.67590  0.93390  0.12210  Biso   1.000  H
  H223     1.0000 0.62050  0.98250  0.12510  Biso   1.000  H
  H224     1.0000 0.67260  0.04400  0.02920  Biso   1.000  H
  H225     1.0000 0.52300  0.29020  0.41300  Biso   1.000  H
  H226     1.0000 0.55540  0.23060  0.35220  Biso   1.000  H
  H227     1.0000 0.55920  0.17820  0.40520  Biso   1.000  H
  H228     1.0000 0.53930  0.18570  0.46030  Biso   1.000  H
  H229     1.0000 0.51190  0.48090  0.32050  Biso   1.000  H
  H230     1.0000 0.52330  0.42890  0.36950  Biso   1.000  H
  H231     1.0000 0.52910  0.37350  0.37130  Biso   1.000  H
  H232     1.0000 0.51480  0.42500  0.27360  Biso   1.000  H
  H233     1.0000 0.50970  0.28230  0.29150  Biso   1.000  H
  H234     1.0000 0.49690  0.38930  0.24090  Biso   1.000  H
  H235     1.0000 0.48140  0.38860  0.19900  Biso   1.000  H
  H236     1.0000 0.47840  0.33500  0.20580  Biso   1.000  H
  H237     1.0000 0.57180  0.26040  0.22640  Biso   1.000  H
  H238     1.0000 0.62210  0.26810  0.17590  Biso   1.000  H
  H239     1.0000 0.62510  0.27190  0.12050  Biso   1.000  H
  H240     1.0000 0.52920  0.25420  0.17260  Biso   1.000  H
  H241     1.0000 0.79020  0.02300  0.77380  Biso   1.000  H
  H242     1.0000 0.73060  0.05540  0.86180  Biso   1.000  H
  H243     1.0000 0.67820  0.05920  0.85740  Biso   1.000  H
  H244     1.0000 0.68570  0.03930  0.81470  Biso   1.000  H
  H245     1.0000 0.98090  0.01190  0.68670  Biso   1.000  H
  H246     1.0000 0.92890  0.02330  0.67830  Biso   1.000  H
  H247     1.0000 0.87350  0.02910  0.72610  Biso   1.000  H
  H248     1.0000 0.92500  0.01480  0.78660  Biso   1.000  H
  H249     1.0000 0.78230  0.00970  0.91650  Biso   1.000  H
  H250     1.0000 0.88930  0.99690  0.87290  Biso   1.000  H
  H251     1.0000 0.88860  0.98140  0.93100  Biso   1.000  H
  H252     1.0000 0.83500  0.97840  0.98080  Biso   1.000  H
  H253     1.0000 0.76040  0.07180  0.94140  Biso   1.000  H
  H254     1.0000 0.76810  0.12210  0.93390  Biso   1.000  H
  H255     1.0000 0.77190  0.12510  0.98250  Biso   1.000  H
  H256     1.0000 0.75420  0.02920  0.04400  Biso   1.000  H
  H257     1.0000 0.79020  0.41300  0.02300  Biso   1.000  H
  H258     1.0000 0.73060  0.35220  0.05540  Biso   1.000  H
  H259     1.0000 0.67820  0.40520  0.05920  Biso   1.000  H
  H260     1.0000 0.68570  0.46030  0.03930  Biso   1.000  H
  H261     1.0000 0.98090  0.32050  0.01190  Biso   1.000  H
  H262     1.0000 0.92890  0.36950  0.02330  Biso   1.000  H
  H263     1.0000 0.87350  0.37130  0.02910  Biso   1.000  H
  H264     1.0000 0.92500  0.27360  0.01480  Biso   1.000  H
  H265     1.0000 0.78230  0.29150  0.00970  Biso   1.000  H
  H266     1.0000 0.88930  0.24090  0.99690  Biso   1.000  H
  H267     1.0000 0.88860  0.19900  0.98140  Biso   1.000  H
  H268     1.0000 0.83500  0.20580  0.97840  Biso   1.000  H
  H269     1.0000 0.76040  0.22640  0.07180  Biso   1.000  H
  H270     1.0000 0.76810  0.17590  0.12210  Biso   1.000  H
  H271     1.0000 0.77190  0.12050  0.12510  Biso   1.000  H
  H272     1.0000 0.75420  0.17260  0.02920  Biso   1.000  H
  H273     1.0000 0.52300  0.77380  0.29020  Biso   1.000  H
  H274     1.0000 0.55540  0.86180  0.23060  Biso   1.000  H
  H275     1.0000 0.55920  0.85740  0.17820  Biso   1.000  H
  H276     1.0000 0.53930  0.81470  0.18570  Biso   1.000  H
  H277     1.0000 0.51190  0.68670  0.48090  Biso   1.000  H
  H278     1.0000 0.52330  0.67830  0.42890  Biso   1.000  H
  H279     1.0000 0.52910  0.72610  0.37350  Biso   1.000  H
  H280     1.0000 0.51480  0.78660  0.42500  Biso   1.000  H
  H281     1.0000 0.50970  0.91650  0.28230  Biso   1.000  H
  H282     1.0000 0.49690  0.87290  0.38930  Biso   1.000  H
  H283     1.0000 0.48140  0.93100  0.38860  Biso   1.000  H
  H284     1.0000 0.47840  0.98080  0.33500  Biso   1.000  H
  H285     1.0000 0.57180  0.94140  0.26040  Biso   1.000  H
  H286     1.0000 0.62210  0.93390  0.26810  Biso   1.000  H
  H287     1.0000 0.62510  0.98250  0.27190  Biso   1.000  H
  H288     1.0000 0.52920  0.04400  0.25420  Biso   1.000  H
  H289     1.0000 0.91300  0.29020  0.77380  Biso   1.000  H
  H290     1.0000 0.85220  0.23060  0.86180  Biso   1.000  H
  H291     1.0000 0.90520  0.17820  0.85740  Biso   1.000  H
  H292     1.0000 0.96030  0.18570  0.81470  Biso   1.000  H
  H293     1.0000 0.82050  0.48090  0.68670  Biso   1.000  H
  H294     1.0000 0.86950  0.42890  0.67830  Biso   1.000  H
  H295     1.0000 0.87130  0.37350  0.72610  Biso   1.000  H
  H296     1.0000 0.77360  0.42500  0.78660  Biso   1.000  H
  H297     1.0000 0.79150  0.28230  0.91650  Biso   1.000  H
  H298     1.0000 0.74090  0.38930  0.87290  Biso   1.000  H
  H299     1.0000 0.69900  0.38860  0.93100  Biso   1.000  H
  H300     1.0000 0.70580  0.33500  0.98080  Biso   1.000  H
  H301     1.0000 0.72640  0.26040  0.94140  Biso   1.000  H
  H302     1.0000 0.67590  0.26810  0.93390  Biso   1.000  H
  H303     1.0000 0.62050  0.27190  0.98250  Biso   1.000  H
  H304     1.0000 0.67260  0.25420  0.04400  Biso   1.000  H
  H305     1.0000 0.27380  0.02300  0.41300  Biso   1.000  H
  H306     1.0000 0.36180  0.05540  0.35220  Biso   1.000  H
  H307     1.0000 0.35740  0.05920  0.40520  Biso   1.000  H
  H308     1.0000 0.31470  0.03930  0.46030  Biso   1.000  H
  H309     1.0000 0.18670  0.01190  0.32050  Biso   1.000  H
  H310     1.0000 0.17830  0.02330  0.36950  Biso   1.000  H
  H311     1.0000 0.22610  0.02910  0.37130  Biso   1.000  H
  H312     1.0000 0.28660  0.01480  0.27360  Biso   1.000  H
  H313     1.0000 0.41650  0.00970  0.29150  Biso   1.000  H
  H314     1.0000 0.37290  0.99690  0.24090  Biso   1.000  H
  H315     1.0000 0.43100  0.98140  0.19900  Biso   1.000  H
  H316     1.0000 0.48080  0.97840  0.20580  Biso   1.000  H
  H317     1.0000 0.44140  0.07180  0.22640  Biso   1.000  H
  H318     1.0000 0.43390  0.12210  0.17590  Biso   1.000  H
  H319     1.0000 0.48250  0.12510  0.12050  Biso   1.000  H
  H320     1.0000 0.54400  0.02920  0.17260  Biso   1.000  H
  H321     1.0000 0.52300  0.41300  0.77380  Biso   1.000  H
  H322     1.0000 0.55540  0.35220  0.86180  Biso   1.000  H
  H323     1.0000 0.55920  0.40520  0.85740  Biso   1.000  H
  H324     1.0000 0.53930  0.46030  0.81470  Biso   1.000  H
  H325     1.0000 0.51190  0.32050  0.68670  Biso   1.000  H
  H326     1.0000 0.52330  0.36950  0.67830  Biso   1.000  H
  H327     1.0000 0.52910  0.37130  0.72610  Biso   1.000  H
  H328     1.0000 0.51480  0.27360  0.78660  Biso   1.000  H
  H329     1.0000 0.50970  0.29150  0.91650  Biso   1.000  H
  H330     1.0000 0.49690  0.24090  0.87290  Biso   1.000  H
  H331     1.0000 0.48140  0.19900  0.93100  Biso   1.000  H
  H332     1.0000 0.47840  0.20580  0.98080  Biso   1.000  H
  H333     1.0000 0.57180  0.22640  0.94140  Biso   1.000  H
  H334     1.0000 0.62210  0.17590  0.93390  Biso   1.000  H
  H335     1.0000 0.62510  0.12050  0.98250  Biso   1.000  H
  H336     1.0000 0.52920  0.17260  0.04400  Biso   1.000  H
  H337     1.0000 0.79020  0.77380  0.41300  Biso   1.000  H
  H338     1.0000 0.73060  0.86180  0.35220  Biso   1.000  H
  H339     1.0000 0.67820  0.85740  0.40520  Biso   1.000  H
  H340     1.0000 0.68570  0.81470  0.46030  Biso   1.000  H
  H341     1.0000 0.98090  0.68670  0.32050  Biso   1.000  H
  H342     1.0000 0.92890  0.67830  0.36950  Biso   1.000  H
  H343     1.0000 0.87350  0.72610  0.37130  Biso   1.000  H
  H344     1.0000 0.92500  0.78660  0.27360  Biso   1.000  H
  H345     1.0000 0.78230  0.91650  0.29150  Biso   1.000  H
  H346     1.0000 0.88930  0.87290  0.24090  Biso   1.000  H
  H347     1.0000 0.88860  0.93100  0.19900  Biso   1.000  H
  H348     1.0000 0.83500  0.98080  0.20580  Biso   1.000  H
  H349     1.0000 0.76040  0.94140  0.22640  Biso   1.000  H
  H350     1.0000 0.76810  0.93390  0.17590  Biso   1.000  H
  H351     1.0000 0.77190  0.98250  0.12050  Biso   1.000  H
  H352     1.0000 0.75420  0.04400  0.17260  Biso   1.000  H
  H353     1.0000 0.27380  0.29020  0.02300  Biso   1.000  H
  H354     1.0000 0.36180  0.23060  0.05540  Biso   1.000  H
  H355     1.0000 0.35740  0.17820  0.05920  Biso   1.000  H
  H356     1.0000 0.31470  0.18570  0.03930  Biso   1.000  H
  H357     1.0000 0.18670  0.48090  0.01190  Biso   1.000  H
  H358     1.0000 0.17830  0.42890  0.02330  Biso   1.000  H
  H359     1.0000 0.22610  0.37350  0.02910  Biso   1.000  H
  H360     1.0000 0.28660  0.42500  0.01480  Biso   1.000  H
  H361     1.0000 0.41650  0.28230  0.00970  Biso   1.000  H
  H362     1.0000 0.37290  0.38930  0.99690  Biso   1.000  H
  H363     1.0000 0.43100  0.38860  0.98140  Biso   1.000  H
  H364     1.0000 0.48080  0.33500  0.97840  Biso   1.000  H
  H365     1.0000 0.44140  0.26040  0.07180  Biso   1.000  H
  H366     1.0000 0.43390  0.26810  0.12210  Biso   1.000  H
  H367     1.0000 0.48250  0.27190  0.12510  Biso   1.000  H
  H368     1.0000 0.54400  0.25420  0.02920  Biso   1.000  H
  H369     1.0000 0.91300  0.02300  0.29020  Biso   1.000  H
  H370     1.0000 0.85220  0.05540  0.23060  Biso   1.000  H
  H371     1.0000 0.90520  0.05920  0.17820  Biso   1.000  H
  H372     1.0000 0.96030  0.03930  0.18570  Biso   1.000  H
  H373     1.0000 0.82050  0.01190  0.48090  Biso   1.000  H
  H374     1.0000 0.86950  0.02330  0.42890  Biso   1.000  H
  H375     1.0000 0.87130  0.02910  0.37350  Biso   1.000  H
  H376     1.0000 0.77360  0.01480  0.42500  Biso   1.000  H
  H377     1.0000 0.79150  0.00970  0.28230  Biso   1.000  H
  H378     1.0000 0.74090  0.99690  0.38930  Biso   1.000  H
  H379     1.0000 0.69900  0.98140  0.38860  Biso   1.000  H
  H380     1.0000 0.70580  0.97840  0.33500  Biso   1.000  H
  H381     1.0000 0.72640  0.07180  0.26040  Biso   1.000  H
  H382     1.0000 0.67590  0.12210  0.26810  Biso   1.000  H
  H383     1.0000 0.62050  0.12510  0.27190  Biso   1.000  H
  H384     1.0000 0.67260  0.02920  0.25420  Biso   1.000  H
  H385     1.0000 0.41300  0.27380  0.79020  Biso   1.000  H
  H386     1.0000 0.35220  0.36180  0.73060  Biso   1.000  H
  H387     1.0000 0.40520  0.35740  0.67820  Biso   1.000  H
  H388     1.0000 0.46030  0.31470  0.68570  Biso   1.000  H
  H389     1.0000 0.32050  0.18670  0.98090  Biso   1.000  H
  H390     1.0000 0.36950  0.17830  0.92890  Biso   1.000  H
  H391     1.0000 0.37130  0.22610  0.87350  Biso   1.000  H
  H392     1.0000 0.27360  0.28660  0.92500  Biso   1.000  H
  H393     1.0000 0.29150  0.41650  0.78230  Biso   1.000  H
  H394     1.0000 0.24090  0.37290  0.88930  Biso   1.000  H
  H395     1.0000 0.19900  0.43100  0.88860  Biso   1.000  H
  H396     1.0000 0.20580  0.48080  0.83500  Biso   1.000  H
  H397     1.0000 0.22640  0.44140  0.76040  Biso   1.000  H
  H398     1.0000 0.17590  0.43390  0.76810  Biso   1.000  H
  H399     1.0000 0.12050  0.48250  0.77190  Biso   1.000  H
  H400     1.0000 0.17260  0.54400  0.75420  Biso   1.000  H
  H401     1.0000 0.77380  0.91300  0.52300  Biso   1.000  H
  H402     1.0000 0.86180  0.85220  0.55540  Biso   1.000  H
  H403     1.0000 0.85740  0.90520  0.55920  Biso   1.000  H
  H404     1.0000 0.81470  0.96030  0.53930  Biso   1.000  H
  H405     1.0000 0.68670  0.82050  0.51190  Biso   1.000  H
  H406     1.0000 0.67830  0.86950  0.52330  Biso   1.000  H
  H407     1.0000 0.72610  0.87130  0.52910  Biso   1.000  H
  H408     1.0000 0.78660  0.77360  0.51480  Biso   1.000  H
  H409     1.0000 0.91650  0.79150  0.50970  Biso   1.000  H
  H410     1.0000 0.87290  0.74090  0.49690  Biso   1.000  H
  H411     1.0000 0.93100  0.69900  0.48140  Biso   1.000  H
  H412     1.0000 0.98080  0.70580  0.47840  Biso   1.000  H
  H413     1.0000 0.94140  0.72640  0.57180  Biso   1.000  H
  H414     1.0000 0.93390  0.67590  0.62210  Biso   1.000  H
  H415     1.0000 0.98250  0.62050  0.62510  Biso   1.000  H
  H416     1.0000 0.04400  0.67260  0.52920  Biso   1.000  H
  H417     1.0000 0.29020  0.52300  0.91300  Biso   1.000  H
  H418     1.0000 0.23060  0.55540  0.85220  Biso   1.000  H
  H419     1.0000 0.17820  0.55920  0.90520  Biso   1.000  H
  H420     1.0000 0.18570  0.53930  0.96030  Biso   1.000  H
  H421     1.0000 0.48090  0.51190  0.82050  Biso   1.000  H
  H422     1.0000 0.42890  0.52330  0.86950  Biso   1.000  H
  H423     1.0000 0.37350  0.52910  0.87130  Biso   1.000  H
  H424     1.0000 0.42500  0.51480  0.77360  Biso   1.000  H
  H425     1.0000 0.28230  0.50970  0.79150  Biso   1.000  H
  H426     1.0000 0.38930  0.49690  0.74090  Biso   1.000  H
  H427     1.0000 0.38860  0.48140  0.69900  Biso   1.000  H
  H428     1.0000 0.33500  0.47840  0.70580  Biso   1.000  H
  H429     1.0000 0.26040  0.57180  0.72640  Biso   1.000  H
  H430     1.0000 0.26810  0.62210  0.67590  Biso   1.000  H
  H431     1.0000 0.27190  0.62510  0.62050  Biso   1.000  H
  H432     1.0000 0.25420  0.52920  0.67260  Biso   1.000  H
  H433     1.0000 0.02300  0.79020  0.27380  Biso   1.000  H
  H434     1.0000 0.05540  0.73060  0.36180  Biso   1.000  H
  H435     1.0000 0.05920  0.67820  0.35740  Biso   1.000  H
  H436     1.0000 0.03930  0.68570  0.31470  Biso   1.000  H
  H437     1.0000 0.01190  0.98090  0.18670  Biso   1.000  H
  H438     1.0000 0.02330  0.92890  0.17830  Biso   1.000  H
  H439     1.0000 0.02910  0.87350  0.22610  Biso   1.000  H
  H440     1.0000 0.01480  0.92500  0.28660  Biso   1.000  H
  H441     1.0000 0.00970  0.78230  0.41650  Biso   1.000  H
  H442     1.0000 0.99690  0.88930  0.37290  Biso   1.000  H
  H443     1.0000 0.98140  0.88860  0.43100  Biso   1.000  H
  H444     1.0000 0.97840  0.83500  0.48080  Biso   1.000  H
  H445     1.0000 0.07180  0.76040  0.44140  Biso   1.000  H
  H446     1.0000 0.12210  0.76810  0.43390  Biso   1.000  H
  H447     1.0000 0.12510  0.77190  0.48250  Biso   1.000  H
  H448     1.0000 0.02920  0.75420  0.54400  Biso   1.000  H
  H449     1.0000 0.41300  0.79020  0.52300  Biso   1.000  H
  H450     1.0000 0.35220  0.73060  0.55540  Biso   1.000  H
  H451     1.0000 0.40520  0.67820  0.55920  Biso   1.000  H
  H452     1.0000 0.46030  0.68570  0.53930  Biso   1.000  H
  H453     1.0000 0.32050  0.98090  0.51190  Biso   1.000  H
  H454     1.0000 0.36950  0.92890  0.52330  Biso   1.000  H
  H455     1.0000 0.37130  0.87350  0.52910  Biso   1.000  H
  H456     1.0000 0.27360  0.92500  0.51480  Biso   1.000  H
  H457     1.0000 0.29150  0.78230  0.50970  Biso   1.000  H
  H458     1.0000 0.24090  0.88930  0.49690  Biso   1.000  H
  H459     1.0000 0.19900  0.88860  0.48140  Biso   1.000  H
  H460     1.0000 0.20580  0.83500  0.47840  Biso   1.000  H
  H461     1.0000 0.22640  0.76040  0.57180  Biso   1.000  H
  H462     1.0000 0.17590  0.76810  0.62210  Biso   1.000  H
  H463     1.0000 0.12050  0.77190  0.62510  Biso   1.000  H
  H464     1.0000 0.17260  0.75420  0.52920  Biso   1.000  H
  H465     1.0000 0.77380  0.52300  0.79020  Biso   1.000  H
  H466     1.0000 0.86180  0.55540  0.73060  Biso   1.000  H
  H467     1.0000 0.85740  0.55920  0.67820  Biso   1.000  H
  H468     1.0000 0.81470  0.53930  0.68570  Biso   1.000  H
  H469     1.0000 0.68670  0.51190  0.98090  Biso   1.000  H
  H470     1.0000 0.67830  0.52330  0.92890  Biso   1.000  H
  H471     1.0000 0.72610  0.52910  0.87350  Biso   1.000  H
  H472     1.0000 0.78660  0.51480  0.92500  Biso   1.000  H
  H473     1.0000 0.91650  0.50970  0.78230  Biso   1.000  H
  H474     1.0000 0.87290  0.49690  0.88930  Biso   1.000  H
  H475     1.0000 0.93100  0.48140  0.88860  Biso   1.000  H
  H476     1.0000 0.98080  0.47840  0.83500  Biso   1.000  H
  H477     1.0000 0.94140  0.57180  0.76040  Biso   1.000  H
  H478     1.0000 0.93390  0.62210  0.76810  Biso   1.000  H
  H479     1.0000 0.98250  0.62510  0.77190  Biso   1.000  H
  H480     1.0000 0.04400  0.52920  0.75420  Biso   1.000  H
  H481     1.0000 0.29020  0.91300  0.27380  Biso   1.000  H
  H482     1.0000 0.23060  0.85220  0.36180  Biso   1.000  H
  H483     1.0000 0.17820  0.90520  0.35740  Biso   1.000  H
  H484     1.0000 0.18570  0.96030  0.31470  Biso   1.000  H
  H485     1.0000 0.48090  0.82050  0.18670  Biso   1.000  H
  H486     1.0000 0.42890  0.86950  0.17830  Biso   1.000  H
  H487     1.0000 0.37350  0.87130  0.22610  Biso   1.000  H
  H488     1.0000 0.42500  0.77360  0.28660  Biso   1.000  H
  H489     1.0000 0.28230  0.79150  0.41650  Biso   1.000  H
  H490     1.0000 0.38930  0.74090  0.37290  Biso   1.000  H
  H491     1.0000 0.38860  0.69900  0.43100  Biso   1.000  H
  H492     1.0000 0.33500  0.70580  0.48080  Biso   1.000  H
  H493     1.0000 0.26040  0.72640  0.44140  Biso   1.000  H
  H494     1.0000 0.26810  0.67590  0.43390  Biso   1.000  H
  H495     1.0000 0.27190  0.62050  0.48250  Biso   1.000  H
  H496     1.0000 0.25420  0.67260  0.54400  Biso   1.000  H
  H497     1.0000 0.02300  0.27380  0.91300  Biso   1.000  H
  H498     1.0000 0.05540  0.36180  0.85220  Biso   1.000  H
  H499     1.0000 0.05920  0.35740  0.90520  Biso   1.000  H
  H500     1.0000 0.03930  0.31470  0.96030  Biso   1.000  H
  H501     1.0000 0.01190  0.18670  0.82050  Biso   1.000  H
  H502     1.0000 0.02330  0.17830  0.86950  Biso   1.000  H
  H503     1.0000 0.02910  0.22610  0.87130  Biso   1.000  H
  H504     1.0000 0.01480  0.28660  0.77360  Biso   1.000  H
  H505     1.0000 0.00970  0.41650  0.79150  Biso   1.000  H
  H506     1.0000 0.99690  0.37290  0.74090  Biso   1.000  H
  H507     1.0000 0.98140  0.43100  0.69900  Biso   1.000  H
  H508     1.0000 0.97840  0.48080  0.70580  Biso   1.000  H
  H509     1.0000 0.07180  0.44140  0.72640  Biso   1.000  H
  H510     1.0000 0.12210  0.43390  0.67590  Biso   1.000  H
  H511     1.0000 0.12510  0.48250  0.62050  Biso   1.000  H
  H512     1.0000 0.02920  0.54400  0.67260  Biso   1.000  H
  H513     1.0000 0.41300  0.52300  0.27380  Biso   1.000  H
  H514     1.0000 0.35220  0.55540  0.36180  Biso   1.000  H
  H515     1.0000 0.40520  0.55920  0.35740  Biso   1.000  H
  H516     1.0000 0.46030  0.53930  0.31470  Biso   1.000  H
  H517     1.0000 0.32050  0.51190  0.18670  Biso   1.000  H
  H518     1.0000 0.36950  0.52330  0.17830  Biso   1.000  H
  H519     1.0000 0.37130  0.52910  0.22610  Biso   1.000  H
  H520     1.0000 0.27360  0.51480  0.28660  Biso   1.000  H
  H521     1.0000 0.29150  0.50970  0.41650  Biso   1.000  H
  H522     1.0000 0.24090  0.49690  0.37290  Biso   1.000  H
  H523     1.0000 0.19900  0.48140  0.43100  Biso   1.000  H
  H524     1.0000 0.20580  0.47840  0.48080  Biso   1.000  H
  H525     1.0000 0.22640  0.57180  0.44140  Biso   1.000  H
  H526     1.0000 0.17590  0.62210  0.43390  Biso   1.000  H
  H527     1.0000 0.12050  0.62510  0.48250  Biso   1.000  H
  H528     1.0000 0.17260  0.52920  0.54400  Biso   1.000  H
  H529     1.0000 0.77380  0.79020  0.91300  Biso   1.000  H
  H530     1.0000 0.86180  0.73060  0.85220  Biso   1.000  H
  H531     1.0000 0.85740  0.67820  0.90520  Biso   1.000  H
  H532     1.0000 0.81470  0.68570  0.96030  Biso   1.000  H
  H533     1.0000 0.68670  0.98090  0.82050  Biso   1.000  H
  H534     1.0000 0.67830  0.92890  0.86950  Biso   1.000  H
  H535     1.0000 0.72610  0.87350  0.87130  Biso   1.000  H
  H536     1.0000 0.78660  0.92500  0.77360  Biso   1.000  H
  H537     1.0000 0.91650  0.78230  0.79150  Biso   1.000  H
  H538     1.0000 0.87290  0.88930  0.74090  Biso   1.000  H
  H539     1.0000 0.93100  0.88860  0.69900  Biso   1.000  H
  H540     1.0000 0.98080  0.83500  0.70580  Biso   1.000  H
  H541     1.0000 0.94140  0.76040  0.72640  Biso   1.000  H
  H542     1.0000 0.93390  0.76810  0.67590  Biso   1.000  H
  H543     1.0000 0.98250  0.77190  0.62050  Biso   1.000  H
  H544     1.0000 0.04400  0.75420  0.67260  Biso   1.000  H
  H545     1.0000 0.29020  0.27380  0.52300  Biso   1.000  H
  H546     1.0000 0.23060  0.36180  0.55540  Biso   1.000  H
  H547     1.0000 0.17820  0.35740  0.55920  Biso   1.000  H
  H548     1.0000 0.18570  0.31470  0.53930  Biso   1.000  H
  H549     1.0000 0.48090  0.18670  0.51190  Biso   1.000  H
  H550     1.0000 0.42890  0.17830  0.52330  Biso   1.000  H
  H551     1.0000 0.37350  0.22610  0.52910  Biso   1.000  H
  H552     1.0000 0.42500  0.28660  0.51480  Biso   1.000  H
  H553     1.0000 0.28230  0.41650  0.50970  Biso   1.000  H
  H554     1.0000 0.38930  0.37290  0.49690  Biso   1.000  H
  H555     1.0000 0.38860  0.43100  0.48140  Biso   1.000  H
  H556     1.0000 0.33500  0.48080  0.47840  Biso   1.000  H
  H557     1.0000 0.26040  0.44140  0.57180  Biso   1.000  H
  H558     1.0000 0.26810  0.43390  0.62210  Biso   1.000  H
  H559     1.0000 0.27190  0.48250  0.62510  Biso   1.000  H
  H560     1.0000 0.25420  0.54400  0.52920  Biso   1.000  H
  H561     1.0000 0.02300  0.91300  0.79020  Biso   1.000  H
  H562     1.0000 0.05540  0.85220  0.73060  Biso   1.000  H
  H563     1.0000 0.05920  0.90520  0.67820  Biso   1.000  H
  H564     1.0000 0.03930  0.96030  0.68570  Biso   1.000  H
  H565     1.0000 0.01190  0.82050  0.98090  Biso   1.000  H
  H566     1.0000 0.02330  0.86950  0.92890  Biso   1.000  H
  H567     1.0000 0.02910  0.87130  0.87350  Biso   1.000  H
  H568     1.0000 0.01480  0.77360  0.92500  Biso   1.000  H
  H569     1.0000 0.00970  0.79150  0.78230  Biso   1.000  H
  H570     1.0000 0.99690  0.74090  0.88930  Biso   1.000  H
  H571     1.0000 0.98140  0.69900  0.88860  Biso   1.000  H
  H572     1.0000 0.97840  0.70580  0.83500  Biso   1.000  H
  H573     1.0000 0.07180  0.72640  0.76040  Biso   1.000  H
  H574     1.0000 0.12210  0.67590  0.76810  Biso   1.000  H
  H575     1.0000 0.12510  0.62050  0.77190  Biso   1.000  H
  H576     1.0000 0.02920  0.67260  0.75420  Biso   1.000  H
  H577     1.0000 0.72620  0.58700  0.70980  Biso   1.000  H
  H578     1.0000 0.63820  0.64780  0.76940  Biso   1.000  H
  H579     1.0000 0.64260  0.59480  0.82180  Biso   1.000  H
  H580     1.0000 0.68530  0.53970  0.81430  Biso   1.000  H
  H581     1.0000 0.81330  0.67950  0.51910  Biso   1.000  H
  H582     1.0000 0.82170  0.63050  0.57110  Biso   1.000  H
  H583     1.0000 0.77390  0.62870  0.62650  Biso   1.000  H
  H584     1.0000 0.71340  0.72640  0.57500  Biso   1.000  H
  H585     1.0000 0.58350  0.70850  0.71770  Biso   1.000  H
  H586     1.0000 0.62710  0.75910  0.61070  Biso   1.000  H
  H587     1.0000 0.56900  0.80100  0.61140  Biso   1.000  H
  H588     1.0000 0.51920  0.79420  0.66500  Biso   1.000  H
  H589     1.0000 0.55860  0.77360  0.73960  Biso   1.000  H
  H590     1.0000 0.56610  0.82410  0.73190  Biso   1.000  H
  H591     1.0000 0.51750  0.87950  0.72810  Biso   1.000  H
  H592     1.0000 0.45600  0.82740  0.74580  Biso   1.000  H
  H593     1.0000 0.08700  0.22620  0.97700  Biso   1.000  H
  H594     1.0000 0.14780  0.13820  0.94460  Biso   1.000  H
  H595     1.0000 0.09480  0.14260  0.94080  Biso   1.000  H
  H596     1.0000 0.03970  0.18530  0.96070  Biso   1.000  H
  H597     1.0000 0.17950  0.31330  0.98810  Biso   1.000  H
  H598     1.0000 0.13050  0.32170  0.97670  Biso   1.000  H
  H599     1.0000 0.12870  0.27390  0.97090  Biso   1.000  H
  H600     1.0000 0.22640  0.21340  0.98520  Biso   1.000  H
  H601     1.0000 0.20850  0.08350  0.99030  Biso   1.000  H
  H602     1.0000 0.25910  0.12710  0.00310  Biso   1.000  H
  H603     1.0000 0.30100  0.06900  0.01860  Biso   1.000  H
  H604     1.0000 0.29420  0.01920  0.02160  Biso   1.000  H
  H605     1.0000 0.27360  0.05860  0.92820  Biso   1.000  H
  H606     1.0000 0.32410  0.06610  0.87790  Biso   1.000  H
  H607     1.0000 0.37950  0.01750  0.87490  Biso   1.000  H
  H608     1.0000 0.32740  0.95600  0.97080  Biso   1.000  H
  H609     1.0000 0.47700  0.70980  0.58700  Biso   1.000  H
  H610     1.0000 0.44460  0.76940  0.64780  Biso   1.000  H
  H611     1.0000 0.44080  0.82180  0.59480  Biso   1.000  H
  H612     1.0000 0.46070  0.81430  0.53970  Biso   1.000  H
  H613     1.0000 0.48810  0.51910  0.67950  Biso   1.000  H
  H614     1.0000 0.47670  0.57110  0.63050  Biso   1.000  H
  H615     1.0000 0.47090  0.62650  0.62870  Biso   1.000  H
  H616     1.0000 0.48520  0.57500  0.72640  Biso   1.000  H
  H617     1.0000 0.49030  0.71770  0.70850  Biso   1.000  H
  H618     1.0000 0.50310  0.61070  0.75910  Biso   1.000  H
  H619     1.0000 0.51860  0.61140  0.80100  Biso   1.000  H
  H620     1.0000 0.52160  0.66500  0.79420  Biso   1.000  H
  H621     1.0000 0.42820  0.73960  0.77360  Biso   1.000  H
  H622     1.0000 0.37790  0.73190  0.82410  Biso   1.000  H
  H623     1.0000 0.37490  0.72810  0.87950  Biso   1.000  H
  H624     1.0000 0.47080  0.74580  0.82740  Biso   1.000  H
  H625     1.0000 0.20980  0.97700  0.22620  Biso   1.000  H
  H626     1.0000 0.26940  0.94460  0.13820  Biso   1.000  H
  H627     1.0000 0.32180  0.94080  0.14260  Biso   1.000  H
  H628     1.0000 0.31430  0.96070  0.18530  Biso   1.000  H
  H629     1.0000 0.01910  0.98810  0.31330  Biso   1.000  H
  H630     1.0000 0.07110  0.97670  0.32170  Biso   1.000  H
  H631     1.0000 0.12650  0.97090  0.27390  Biso   1.000  H
  H632     1.0000 0.07500  0.98520  0.21340  Biso   1.000  H
  H633     1.0000 0.21770  0.99030  0.08350  Biso   1.000  H
  H634     1.0000 0.11070  0.00310  0.12710  Biso   1.000  H
  H635     1.0000 0.11140  0.01860  0.06900  Biso   1.000  H
  H636     1.0000 0.16500  0.02160  0.01920  Biso   1.000  H
  H637     1.0000 0.23960  0.92820  0.05860  Biso   1.000  H
  H638     1.0000 0.23190  0.87790  0.06610  Biso   1.000  H
  H639     1.0000 0.22810  0.87490  0.01750  Biso   1.000  H
  H640     1.0000 0.24580  0.97080  0.95600  Biso   1.000  H
  H641     1.0000 0.20980  0.58700  0.97700  Biso   1.000  H
  H642     1.0000 0.26940  0.64780  0.94460  Biso   1.000  H
  H643     1.0000 0.32180  0.59480  0.94080  Biso   1.000  H
  H644     1.0000 0.31430  0.53970  0.96070  Biso   1.000  H
  H645     1.0000 0.01910  0.67950  0.98810  Biso   1.000  H
  H646     1.0000 0.07110  0.63050  0.97670  Biso   1.000  H
  H647     1.0000 0.12650  0.62870  0.97090  Biso   1.000  H
  H648     1.0000 0.07500  0.72640  0.98520  Biso   1.000  H
  H649     1.0000 0.21770  0.70850  0.99030  Biso   1.000  H
  H650     1.0000 0.11070  0.75910  0.00310  Biso   1.000  H
  H651     1.0000 0.11140  0.80100  0.01860  Biso   1.000  H
  H652     1.0000 0.16500  0.79420  0.02160  Biso   1.000  H
  H653     1.0000 0.23960  0.77360  0.92820  Biso   1.000  H
  H654     1.0000 0.23190  0.82410  0.87790  Biso   1.000  H
  H655     1.0000 0.22810  0.87950  0.87490  Biso   1.000  H
  H656     1.0000 0.24580  0.82740  0.97080  Biso   1.000  H
  H657     1.0000 0.47700  0.22620  0.70980  Biso   1.000  H
  H658     1.0000 0.44460  0.13820  0.76940  Biso   1.000  H
  H659     1.0000 0.44080  0.14260  0.82180  Biso   1.000  H
  H660     1.0000 0.46070  0.18530  0.81430  Biso   1.000  H
  H661     1.0000 0.48810  0.31330  0.51910  Biso   1.000  H
  H662     1.0000 0.47670  0.32170  0.57110  Biso   1.000  H
  H663     1.0000 0.47090  0.27390  0.62650  Biso   1.000  H
  H664     1.0000 0.48520  0.21340  0.57500  Biso   1.000  H
  H665     1.0000 0.49030  0.08350  0.71770  Biso   1.000  H
  H666     1.0000 0.50310  0.12710  0.61070  Biso   1.000  H
  H667     1.0000 0.51860  0.06900  0.61140  Biso   1.000  H
  H668     1.0000 0.52160  0.01920  0.66500  Biso   1.000  H
  H669     1.0000 0.42820  0.05860  0.73960  Biso   1.000  H
  H670     1.0000 0.37790  0.06610  0.73190  Biso   1.000  H
  H671     1.0000 0.37490  0.01750  0.72810  Biso   1.000  H
  H672     1.0000 0.47080  0.95600  0.74580  Biso   1.000  H
  H673     1.0000 0.08700  0.70980  0.22620  Biso   1.000  H
  H674     1.0000 0.14780  0.76940  0.13820  Biso   1.000  H
  H675     1.0000 0.09480  0.82180  0.14260  Biso   1.000  H
  H676     1.0000 0.03970  0.81430  0.18530  Biso   1.000  H
  H677     1.0000 0.17950  0.51910  0.31330  Biso   1.000  H
  H678     1.0000 0.13050  0.57110  0.32170  Biso   1.000  H
  H679     1.0000 0.12870  0.62650  0.27390  Biso   1.000  H
  H680     1.0000 0.22640  0.57500  0.21340  Biso   1.000  H
  H681     1.0000 0.20850  0.71770  0.08350  Biso   1.000  H
  H682     1.0000 0.25910  0.61070  0.12710  Biso   1.000  H
  H683     1.0000 0.30100  0.61140  0.06900  Biso   1.000  H
  H684     1.0000 0.29420  0.66500  0.01920  Biso   1.000  H
  H685     1.0000 0.27360  0.73960  0.05860  Biso   1.000  H
  H686     1.0000 0.32410  0.73190  0.06610  Biso   1.000  H
  H687     1.0000 0.37950  0.72810  0.01750  Biso   1.000  H
  H688     1.0000 0.32740  0.74580  0.95600  Biso   1.000  H
  H689     1.0000 0.72620  0.97700  0.58700  Biso   1.000  H
  H690     1.0000 0.63820  0.94460  0.64780  Biso   1.000  H
  H691     1.0000 0.64260  0.94080  0.59480  Biso   1.000  H
  H692     1.0000 0.68530  0.96070  0.53970  Biso   1.000  H
  H693     1.0000 0.81330  0.98810  0.67950  Biso   1.000  H
  H694     1.0000 0.82170  0.97670  0.63050  Biso   1.000  H
  H695     1.0000 0.77390  0.97090  0.62870  Biso   1.000  H
  H696     1.0000 0.71340  0.98520  0.72640  Biso   1.000  H
  H697     1.0000 0.58350  0.99030  0.70850  Biso   1.000  H
  H698     1.0000 0.62710  0.00310  0.75910  Biso   1.000  H
  H699     1.0000 0.56900  0.01860  0.80100  Biso   1.000  H
  H700     1.0000 0.51920  0.02160  0.79420  Biso   1.000  H
  H701     1.0000 0.55860  0.92820  0.77360  Biso   1.000  H
  H702     1.0000 0.56610  0.87790  0.82410  Biso   1.000  H
  H703     1.0000 0.51750  0.87490  0.87950  Biso   1.000  H
  H704     1.0000 0.45600  0.97080  0.82740  Biso   1.000  H
  H705     1.0000 0.47700  0.58700  0.22620  Biso   1.000  H
  H706     1.0000 0.44460  0.64780  0.13820  Biso   1.000  H
  H707     1.0000 0.44080  0.59480  0.14260  Biso   1.000  H
  H708     1.0000 0.46070  0.53970  0.18530  Biso   1.000  H
  H709     1.0000 0.48810  0.67950  0.31330  Biso   1.000  H
  H710     1.0000 0.47670  0.63050  0.32170  Biso   1.000  H
  H711     1.0000 0.47090  0.62870  0.27390  Biso   1.000  H
  H712     1.0000 0.48520  0.72640  0.21340  Biso   1.000  H
  H713     1.0000 0.49030  0.70850  0.08350  Biso   1.000  H
  H714     1.0000 0.50310  0.75910  0.12710  Biso   1.000  H
  H715     1.0000 0.51860  0.80100  0.06900  Biso   1.000  H
  H716     1.0000 0.52160  0.79420  0.01920  Biso   1.000  H
  H717     1.0000 0.42820  0.77360  0.05860  Biso   1.000  H
  H718     1.0000 0.37790  0.82410  0.06610  Biso   1.000  H
  H719     1.0000 0.37490  0.87950  0.01750  Biso   1.000  H
  H720     1.0000 0.47080  0.82740  0.95600  Biso   1.000  H
  H721     1.0000 0.20980  0.22620  0.58700  Biso   1.000  H
  H722     1.0000 0.26940  0.13820  0.64780  Biso   1.000  H
  H723     1.0000 0.32180  0.14260  0.59480  Biso   1.000  H
  H724     1.0000 0.31430  0.18530  0.53970  Biso   1.000  H
  H725     1.0000 0.01910  0.31330  0.67950  Biso   1.000  H
  H726     1.0000 0.07110  0.32170  0.63050  Biso   1.000  H
  H727     1.0000 0.12650  0.27390  0.62870  Biso   1.000  H
  H728     1.0000 0.07500  0.21340  0.72640  Biso   1.000  H
  H729     1.0000 0.21770  0.08350  0.70850  Biso   1.000  H
  H730     1.0000 0.11070  0.12710  0.75910  Biso   1.000  H
  H731     1.0000 0.11140  0.06900  0.80100  Biso   1.000  H
  H732     1.0000 0.16500  0.01920  0.79420  Biso   1.000  H
  H733     1.0000 0.23960  0.05860  0.77360  Biso   1.000  H
  H734     1.0000 0.23190  0.06610  0.82410  Biso   1.000  H
  H735     1.0000 0.22810  0.01750  0.87950  Biso   1.000  H
  H736     1.0000 0.24580  0.95600  0.82740  Biso   1.000  H
  H737     1.0000 0.72620  0.70980  0.97700  Biso   1.000  H
  H738     1.0000 0.63820  0.76940  0.94460  Biso   1.000  H
  H739     1.0000 0.64260  0.82180  0.94080  Biso   1.000  H
  H740     1.0000 0.68530  0.81430  0.96070  Biso   1.000  H
  H741     1.0000 0.81330  0.51910  0.98810  Biso   1.000  H
  H742     1.0000 0.82170  0.57110  0.97670  Biso   1.000  H
  H743     1.0000 0.77390  0.62650  0.97090  Biso   1.000  H
  H744     1.0000 0.71340  0.57500  0.98520  Biso   1.000  H
  H745     1.0000 0.58350  0.71770  0.99030  Biso   1.000  H
  H746     1.0000 0.62710  0.61070  0.00310  Biso   1.000  H
  H747     1.0000 0.56900  0.61140  0.01860  Biso   1.000  H
  H748     1.0000 0.51920  0.66500  0.02160  Biso   1.000  H
  H749     1.0000 0.55860  0.73960  0.92820  Biso   1.000  H
  H750     1.0000 0.56610  0.73190  0.87790  Biso   1.000  H
  H751     1.0000 0.51750  0.72810  0.87490  Biso   1.000  H
  H752     1.0000 0.45600  0.74580  0.97080  Biso   1.000  H
  H753     1.0000 0.08700  0.97700  0.70980  Biso   1.000  H
  H754     1.0000 0.14780  0.94460  0.76940  Biso   1.000  H
  H755     1.0000 0.09480  0.94080  0.82180  Biso   1.000  H
  H756     1.0000 0.03970  0.96070  0.81430  Biso   1.000  H
  H757     1.0000 0.17950  0.98810  0.51910  Biso   1.000  H
  H758     1.0000 0.13050  0.97670  0.57110  Biso   1.000  H
  H759     1.0000 0.12870  0.97090  0.62650  Biso   1.000  H
  H760     1.0000 0.22640  0.98520  0.57500  Biso   1.000  H
  H761     1.0000 0.20850  0.99030  0.71770  Biso   1.000  H
  H762     1.0000 0.25910  0.00310  0.61070  Biso   1.000  H
  H763     1.0000 0.30100  0.01860  0.61140  Biso   1.000  H
  H764     1.0000 0.29420  0.02160  0.66500  Biso   1.000  H
  H765     1.0000 0.27360  0.92820  0.73960  Biso   1.000  H
  H766     1.0000 0.32410  0.87790  0.73190  Biso   1.000  H
  H767     1.0000 0.37950  0.87490  0.72810  Biso   1.000  H
  H768     1.0000 0.32740  0.97080  0.74580  Biso   1.000  H
  C1       1.0000 0.73027  0.83609  0.95973  Biso   1.000  C
  C2       1.0000 0.79800  0.44528  0.20432  Biso   1.000  C
  C3       1.0000 0.58837  0.70817  0.23259  Biso   1.000  C
  C4       1.0000 0.62161  0.68233  0.23405  Biso   1.000  C
  C5       1.0000 0.62506  0.65652  0.26750  Biso   1.000  C
  C6       1.0000 0.59382  0.65870  0.29812  Biso   1.000  C
  C7       1.0000 0.56109  0.68495  0.29331  Biso   1.000  C
  C8       1.0000 0.67918  0.79388  0.04156  Biso   1.000  C
  C9       1.0000 0.64981  0.79909  0.07241  Biso   1.000  C
  C10      1.0000 0.64890  0.77106  0.10496  Biso   1.000  C
  C11      1.0000 0.67772  0.73850  0.10608  Biso   1.000  C
  C12      1.0000 0.70651  0.73549  0.07405  Biso   1.000  C
  C13      1.0000 0.67746  0.70662  0.13978  Biso   1.000  C
  C14      1.0000 0.70337  0.64681  0.16715  Biso   1.000  C
  C15      1.0000 0.65217  0.68055  0.19989  Biso   1.000  C
  C16      1.0000 0.72794  0.58050  0.19592  Biso   1.000  C
  C17      1.0000 0.73038  0.61132  0.16518  Biso   1.000  C
  C18      1.0000 0.75743  0.60689  0.13267  Biso   1.000  C
  C19      1.0000 0.78158  0.57266  0.13300  Biso   1.000  C
  C20      1.0000 0.77769  0.54297  0.16527  Biso   1.000  C
  C21      1.0000 0.79560  0.53832  0.23938  Biso   1.000  C
  C22      1.0000 0.82552  0.54328  0.23430  Biso   1.000  C
  C23      1.0000 0.85794  0.51458  0.23254  Biso   1.000  C
  C24      1.0000 0.85841  0.48149  0.23737  Biso   1.000  C
  C25      1.0000 0.82678  0.47872  0.24280  Biso   1.000  C
  C26      1.0000 0.89190  0.44962  0.23670  Biso   1.000  C
  C27      1.0000 0.33609  0.23027  0.47391  Biso   1.000  C
  C28      1.0000 0.94528  0.29800  0.55240  Biso   1.000  C
  C29      1.0000 0.20817  0.08837  0.47087  Biso   1.000  C
  C30      1.0000 0.18233  0.12161  0.46201  Biso   1.000  C
  C31      1.0000 0.15652  0.12506  0.45092  Biso   1.000  C
  C32      1.0000 0.15870  0.09382  0.44936  Biso   1.000  C
  C33      1.0000 0.18495  0.06109  0.46065  Biso   1.000  C
  C34      1.0000 0.29388  0.17918  0.48538  Biso   1.000  C
  C35      1.0000 0.29909  0.14981  0.47869  Biso   1.000  C
  C36      1.0000 0.27106  0.14890  0.47508  Biso   1.000  C
  C37      1.0000 0.23850  0.17772  0.47770  Biso   1.000  C
  C38      1.0000 0.23549  0.20651  0.48395  Biso   1.000  C
  C39      1.0000 0.20662  0.17746  0.47614  Biso   1.000  C
  C40      1.0000 0.14681  0.20337  0.48267  Biso   1.000  C
  C41      1.0000 0.18055  0.15217  0.46739  Biso   1.000  C
  C42      1.0000 0.08050  0.22794  0.49564  Biso   1.000  C
  C43      1.0000 0.11132  0.23038  0.49312  Biso   1.000  C
  C44      1.0000 0.10689  0.25743  0.50301  Biso   1.000  C
  C45      1.0000 0.07266  0.28158  0.51276  Biso   1.000  C
  C46      1.0000 0.04297  0.27769  0.51407  Biso   1.000  C
  C47      1.0000 0.03832  0.29560  0.42670  Biso   1.000  C
  C48      1.0000 0.04328  0.32552  0.39690  Biso   1.000  C
  C49      1.0000 0.01458  0.35794  0.39494  Biso   1.000  C
  C50      1.0000 0.98149  0.35841  0.42273  Biso   1.000  C
  C51      1.0000 0.97872  0.32678  0.45170  Biso   1.000  C
  C52      1.0000 0.94962  0.39190  0.42178  Biso   1.000  C
  C53      1.0000 0.45973  0.47391  0.23027  Biso   1.000  C
  C54      1.0000 0.70432  0.55240  0.29800  Biso   1.000  C
  C55      1.0000 0.73259  0.47087  0.08837  Biso   1.000  C
  C56      1.0000 0.73405  0.46201  0.12161  Biso   1.000  C
  C57      1.0000 0.76750  0.45092  0.12506  Biso   1.000  C
  C58      1.0000 0.79812  0.44936  0.09382  Biso   1.000  C
  C59      1.0000 0.79331  0.46065  0.06109  Biso   1.000  C
  C60      1.0000 0.54156  0.48538  0.17918  Biso   1.000  C
  C61      1.0000 0.57241  0.47869  0.14981  Biso   1.000  C
  C62      1.0000 0.60496  0.47508  0.14890  Biso   1.000  C
  C63      1.0000 0.60608  0.47770  0.17772  Biso   1.000  C
  C64      1.0000 0.57405  0.48395  0.20651  Biso   1.000  C
  C65      1.0000 0.63978  0.47614  0.17746  Biso   1.000  C
  C66      1.0000 0.66715  0.48267  0.20337  Biso   1.000  C
  C67      1.0000 0.69989  0.46739  0.15217  Biso   1.000  C
  C68      1.0000 0.69592  0.49564  0.22794  Biso   1.000  C
  C69      1.0000 0.66518  0.49312  0.23038  Biso   1.000  C
  C70      1.0000 0.63267  0.50301  0.25743  Biso   1.000  C
  C71      1.0000 0.63300  0.51276  0.28158  Biso   1.000  C
  C72      1.0000 0.66527  0.51407  0.27769  Biso   1.000  C
  C73      1.0000 0.73938  0.42670  0.29560  Biso   1.000  C
  C74      1.0000 0.73430  0.39690  0.32552  Biso   1.000  C
  C75      1.0000 0.73254  0.39494  0.35794  Biso   1.000  C
  C76      1.0000 0.73737  0.42273  0.35841  Biso   1.000  C
  C77      1.0000 0.74280  0.45170  0.32678  Biso   1.000  C
  C78      1.0000 0.73670  0.42178  0.39190  Biso   1.000  C
  C79      1.0000 0.97391  0.95973  0.83609  Biso   1.000  C
  C80      1.0000 0.05240  0.20432  0.44528  Biso   1.000  C
  C81      1.0000 0.97087  0.23259  0.70817  Biso   1.000  C
  C82      1.0000 0.96201  0.23405  0.68233  Biso   1.000  C
  C83      1.0000 0.95092  0.26750  0.65652  Biso   1.000  C
  C84      1.0000 0.94936  0.29812  0.65870  Biso   1.000  C
  C85      1.0000 0.96065  0.29331  0.68495  Biso   1.000  C
  C86      1.0000 0.98538  0.04156  0.79388  Biso   1.000  C
  C87      1.0000 0.97869  0.07241  0.79909  Biso   1.000  C
  C88      1.0000 0.97508  0.10496  0.77106  Biso   1.000  C
  C89      1.0000 0.97770  0.10608  0.73850  Biso   1.000  C
  C90      1.0000 0.98395  0.07405  0.73549  Biso   1.000  C
  C91      1.0000 0.97614  0.13978  0.70662  Biso   1.000  C
  C92      1.0000 0.98267  0.16715  0.64681  Biso   1.000  C
  C93      1.0000 0.96739  0.19989  0.68055  Biso   1.000  C
  C94      1.0000 0.99564  0.19592  0.58050  Biso   1.000  C
  C95      1.0000 0.99312  0.16518  0.61132  Biso   1.000  C
  C96      1.0000 0.00301  0.13267  0.60689  Biso   1.000  C
  C97      1.0000 0.01276  0.13300  0.57266  Biso   1.000  C
  C98      1.0000 0.01407  0.16527  0.54297  Biso   1.000  C
  C99      1.0000 0.92670  0.23938  0.53832  Biso   1.000  C
  C100     1.0000 0.89690  0.23430  0.54328  Biso   1.000  C
  C101     1.0000 0.89494  0.23254  0.51458  Biso   1.000  C
  C102     1.0000 0.92273  0.23737  0.48149  Biso   1.000  C
  C103     1.0000 0.95170  0.24280  0.47872  Biso   1.000  C
  C104     1.0000 0.92178  0.23670  0.44962  Biso   1.000  C
  C105     1.0000 0.73027  0.95973  0.47391  Biso   1.000  C
  C106     1.0000 0.79800  0.20432  0.55240  Biso   1.000  C
  C107     1.0000 0.58837  0.23259  0.47087  Biso   1.000  C
  C108     1.0000 0.62161  0.23405  0.46201  Biso   1.000  C
  C109     1.0000 0.62506  0.26750  0.45092  Biso   1.000  C
  C110     1.0000 0.59382  0.29812  0.44936  Biso   1.000  C
  C111     1.0000 0.56109  0.29331  0.46065  Biso   1.000  C
  C112     1.0000 0.67918  0.04156  0.48538  Biso   1.000  C
  C113     1.0000 0.64981  0.07241  0.47869  Biso   1.000  C
  C114     1.0000 0.64890  0.10496  0.47508  Biso   1.000  C
  C115     1.0000 0.67772  0.10608  0.47770  Biso   1.000  C
  C116     1.0000 0.70651  0.07405  0.48395  Biso   1.000  C
  C117     1.0000 0.67746  0.13978  0.47614  Biso   1.000  C
  C118     1.0000 0.70337  0.16715  0.48267  Biso   1.000  C
  C119     1.0000 0.65217  0.19989  0.46739  Biso   1.000  C
  C120     1.0000 0.72794  0.19592  0.49564  Biso   1.000  C
  C121     1.0000 0.73038  0.16518  0.49312  Biso   1.000  C
  C122     1.0000 0.75743  0.13267  0.50301  Biso   1.000  C
  C123     1.0000 0.78158  0.13300  0.51276  Biso   1.000  C
  C124     1.0000 0.77769  0.16527  0.51407  Biso   1.000  C
  C125     1.0000 0.79560  0.23938  0.42670  Biso   1.000  C
  C126     1.0000 0.82552  0.23430  0.39690  Biso   1.000  C
  C127     1.0000 0.85794  0.23254  0.39494  Biso   1.000  C
  C128     1.0000 0.85841  0.23737  0.42273  Biso   1.000  C
  C129     1.0000 0.82678  0.24280  0.45170  Biso   1.000  C
  C130     1.0000 0.89190  0.23670  0.42178  Biso   1.000  C
  C131     1.0000 0.33609  0.47391  0.95973  Biso   1.000  C
  C132     1.0000 0.94528  0.55240  0.20432  Biso   1.000  C
  C133     1.0000 0.20817  0.47087  0.23259  Biso   1.000  C
  C134     1.0000 0.18233  0.46201  0.23405  Biso   1.000  C
  C135     1.0000 0.15652  0.45092  0.26750  Biso   1.000  C
  C136     1.0000 0.15870  0.44936  0.29812  Biso   1.000  C
  C137     1.0000 0.18495  0.46065  0.29331  Biso   1.000  C
  C138     1.0000 0.29388  0.48538  0.04156  Biso   1.000  C
  C139     1.0000 0.29909  0.47869  0.07241  Biso   1.000  C
  C140     1.0000 0.27106  0.47508  0.10496  Biso   1.000  C
  C141     1.0000 0.23850  0.47770  0.10608  Biso   1.000  C
  C142     1.0000 0.23549  0.48395  0.07405  Biso   1.000  C
  C143     1.0000 0.20662  0.47614  0.13978  Biso   1.000  C
  C144     1.0000 0.14681  0.48267  0.16715  Biso   1.000  C
  C145     1.0000 0.18055  0.46739  0.19989  Biso   1.000  C
  C146     1.0000 0.08050  0.49564  0.19592  Biso   1.000  C
  C147     1.0000 0.11132  0.49312  0.16518  Biso   1.000  C
  C148     1.0000 0.10689  0.50301  0.13267  Biso   1.000  C
  C149     1.0000 0.07266  0.51276  0.13300  Biso   1.000  C
  C150     1.0000 0.04297  0.51407  0.16527  Biso   1.000  C
  C151     1.0000 0.03832  0.42670  0.23938  Biso   1.000  C
  C152     1.0000 0.04328  0.39690  0.23430  Biso   1.000  C
  C153     1.0000 0.01458  0.39494  0.23254  Biso   1.000  C
  C154     1.0000 0.98149  0.42273  0.23737  Biso   1.000  C
  C155     1.0000 0.97872  0.45170  0.24280  Biso   1.000  C
  C156     1.0000 0.94962  0.42178  0.23670  Biso   1.000  C
  C157     1.0000 0.45973  0.23027  0.83609  Biso   1.000  C
  C158     1.0000 0.70432  0.29800  0.44528  Biso   1.000  C
  C159     1.0000 0.73259  0.08837  0.70817  Biso   1.000  C
  C160     1.0000 0.73405  0.12161  0.68233  Biso   1.000  C
  C161     1.0000 0.76750  0.12506  0.65652  Biso   1.000  C
  C162     1.0000 0.79812  0.09382  0.65870  Biso   1.000  C
  C163     1.0000 0.79331  0.06109  0.68495  Biso   1.000  C
  C164     1.0000 0.54156  0.17918  0.79388  Biso   1.000  C
  C165     1.0000 0.57241  0.14981  0.79909  Biso   1.000  C
  C166     1.0000 0.60496  0.14890  0.77106  Biso   1.000  C
  C167     1.0000 0.60608  0.17772  0.73850  Biso   1.000  C
  C168     1.0000 0.57405  0.20651  0.73549  Biso   1.000  C
  C169     1.0000 0.63978  0.17746  0.70662  Biso   1.000  C
  C170     1.0000 0.66715  0.20337  0.64681  Biso   1.000  C
  C171     1.0000 0.69989  0.15217  0.68055  Biso   1.000  C
  C172     1.0000 0.69592  0.22794  0.58050  Biso   1.000  C
  C173     1.0000 0.66518  0.23038  0.61132  Biso   1.000  C
  C174     1.0000 0.63267  0.25743  0.60689  Biso   1.000  C
  C175     1.0000 0.63300  0.28158  0.57266  Biso   1.000  C
  C176     1.0000 0.66527  0.27769  0.54297  Biso   1.000  C
  C177     1.0000 0.73938  0.29560  0.53832  Biso   1.000  C
  C178     1.0000 0.73430  0.32552  0.54328  Biso   1.000  C
  C179     1.0000 0.73254  0.35794  0.51458  Biso   1.000  C
  C180     1.0000 0.73737  0.35841  0.48149  Biso   1.000  C
  C181     1.0000 0.74280  0.32678  0.47872  Biso   1.000  C
  C182     1.0000 0.73670  0.39190  0.44962  Biso   1.000  C
  C183     1.0000 0.97391  0.83609  0.23027  Biso   1.000  C
  C184     1.0000 0.05240  0.44528  0.29800  Biso   1.000  C
  C185     1.0000 0.97087  0.70817  0.08837  Biso   1.000  C
  C186     1.0000 0.96201  0.68233  0.12161  Biso   1.000  C
  C187     1.0000 0.95092  0.65652  0.12506  Biso   1.000  C
  C188     1.0000 0.94936  0.65870  0.09382  Biso   1.000  C
  C189     1.0000 0.96065  0.68495  0.06109  Biso   1.000  C
  C190     1.0000 0.98538  0.79388  0.17918  Biso   1.000  C
  C191     1.0000 0.97869  0.79909  0.14981  Biso   1.000  C
  C192     1.0000 0.97508  0.77106  0.14890  Biso   1.000  C
  C193     1.0000 0.97770  0.73850  0.17772  Biso   1.000  C
  C194     1.0000 0.98395  0.73549  0.20651  Biso   1.000  C
  C195     1.0000 0.97614  0.70662  0.17746  Biso   1.000  C
  C196     1.0000 0.98267  0.64681  0.20337  Biso   1.000  C
  C197     1.0000 0.96739  0.68055  0.15217  Biso   1.000  C
  C198     1.0000 0.99564  0.58050  0.22794  Biso   1.000  C
  C199     1.0000 0.99312  0.61132  0.23038  Biso   1.000  C
  C200     1.0000 0.00301  0.60689  0.25743  Biso   1.000  C
  C201     1.0000 0.01276  0.57266  0.28158  Biso   1.000  C
  C202     1.0000 0.01407  0.54297  0.27769  Biso   1.000  C
  C203     1.0000 0.92670  0.53832  0.29560  Biso   1.000  C
  C204     1.0000 0.89690  0.54328  0.32552  Biso   1.000  C
  C205     1.0000 0.89494  0.51458  0.35794  Biso   1.000  C
  C206     1.0000 0.92273  0.48149  0.35841  Biso   1.000  C
  C207     1.0000 0.95170  0.47872  0.32678  Biso   1.000  C
  C208     1.0000 0.92178  0.44962  0.39190  Biso   1.000  C
  C209     1.0000 0.73027  0.47391  0.83609  Biso   1.000  C
  C210     1.0000 0.79800  0.55240  0.44528  Biso   1.000  C
  C211     1.0000 0.58837  0.47087  0.70817  Biso   1.000  C
  C212     1.0000 0.62161  0.46201  0.68233  Biso   1.000  C
  C213     1.0000 0.62506  0.45092  0.65652  Biso   1.000  C
  C214     1.0000 0.59382  0.44936  0.65870  Biso   1.000  C
  C215     1.0000 0.56109  0.46065  0.68495  Biso   1.000  C
  C216     1.0000 0.67918  0.48538  0.79388  Biso   1.000  C
  C217     1.0000 0.64981  0.47869  0.79909  Biso   1.000  C
  C218     1.0000 0.64890  0.47508  0.77106  Biso   1.000  C
  C219     1.0000 0.67772  0.47770  0.73850  Biso   1.000  C
  C220     1.0000 0.70651  0.48395  0.73549  Biso   1.000  C
  C221     1.0000 0.67746  0.47614  0.70662  Biso   1.000  C
  C222     1.0000 0.70337  0.48267  0.64681  Biso   1.000  C
  C223     1.0000 0.65217  0.46739  0.68055  Biso   1.000  C
  C224     1.0000 0.72794  0.49564  0.58050  Biso   1.000  C
  C225     1.0000 0.73038  0.49312  0.61132  Biso   1.000  C
  C226     1.0000 0.75743  0.50301  0.60689  Biso   1.000  C
  C227     1.0000 0.78158  0.51276  0.57266  Biso   1.000  C
  C228     1.0000 0.77769  0.51407  0.54297  Biso   1.000  C
  C229     1.0000 0.79560  0.42670  0.53832  Biso   1.000  C
  C230     1.0000 0.82552  0.39690  0.54328  Biso   1.000  C
  C231     1.0000 0.85794  0.39494  0.51458  Biso   1.000  C
  C232     1.0000 0.85841  0.42273  0.48149  Biso   1.000  C
  C233     1.0000 0.82678  0.45170  0.47872  Biso   1.000  C
  C234     1.0000 0.89190  0.42178  0.44962  Biso   1.000  C
  C235     1.0000 0.33609  0.95973  0.23027  Biso   1.000  C
  C236     1.0000 0.94528  0.20432  0.29800  Biso   1.000  C
  C237     1.0000 0.20817  0.23259  0.08837  Biso   1.000  C
  C238     1.0000 0.18233  0.23405  0.12161  Biso   1.000  C
  C239     1.0000 0.15652  0.26750  0.12506  Biso   1.000  C
  C240     1.0000 0.15870  0.29812  0.09382  Biso   1.000  C
  C241     1.0000 0.18495  0.29331  0.06109  Biso   1.000  C
  C242     1.0000 0.29388  0.04156  0.17918  Biso   1.000  C
  C243     1.0000 0.29909  0.07241  0.14981  Biso   1.000  C
  C244     1.0000 0.27106  0.10496  0.14890  Biso   1.000  C
  C245     1.0000 0.23850  0.10608  0.17772  Biso   1.000  C
  C246     1.0000 0.23549  0.07405  0.20651  Biso   1.000  C
  C247     1.0000 0.20662  0.13978  0.17746  Biso   1.000  C
  C248     1.0000 0.14681  0.16715  0.20337  Biso   1.000  C
  C249     1.0000 0.18055  0.19989  0.15217  Biso   1.000  C
  C250     1.0000 0.08050  0.19592  0.22794  Biso   1.000  C
  C251     1.0000 0.11132  0.16518  0.23038  Biso   1.000  C
  C252     1.0000 0.10689  0.13267  0.25743  Biso   1.000  C
  C253     1.0000 0.07266  0.13300  0.28158  Biso   1.000  C
  C254     1.0000 0.04297  0.16527  0.27769  Biso   1.000  C
  C255     1.0000 0.03832  0.23938  0.29560  Biso   1.000  C
  C256     1.0000 0.04328  0.23430  0.32552  Biso   1.000  C
  C257     1.0000 0.01458  0.23254  0.35794  Biso   1.000  C
  C258     1.0000 0.98149  0.23737  0.35841  Biso   1.000  C
  C259     1.0000 0.97872  0.24280  0.32678  Biso   1.000  C
  C260     1.0000 0.94962  0.23670  0.39190  Biso   1.000  C
  C261     1.0000 0.45973  0.83609  0.47391  Biso   1.000  C
  C262     1.0000 0.70432  0.44528  0.55240  Biso   1.000  C
  C263     1.0000 0.73259  0.70817  0.47087  Biso   1.000  C
  C264     1.0000 0.73405  0.68233  0.46201  Biso   1.000  C
  C265     1.0000 0.76750  0.65652  0.45092  Biso   1.000  C
  C266     1.0000 0.79812  0.65870  0.44936  Biso   1.000  C
  C267     1.0000 0.79331  0.68495  0.46065  Biso   1.000  C
  C268     1.0000 0.54156  0.79388  0.48538  Biso   1.000  C
  C269     1.0000 0.57241  0.79909  0.47869  Biso   1.000  C
  C270     1.0000 0.60496  0.77106  0.47508  Biso   1.000  C
  C271     1.0000 0.60608  0.73850  0.47770  Biso   1.000  C
  C272     1.0000 0.57405  0.73549  0.48395  Biso   1.000  C
  C273     1.0000 0.63978  0.70662  0.47614  Biso   1.000  C
  C274     1.0000 0.66715  0.64681  0.48267  Biso   1.000  C
  C275     1.0000 0.69989  0.68055  0.46739  Biso   1.000  C
  C276     1.0000 0.69592  0.58050  0.49564  Biso   1.000  C
  C277     1.0000 0.66518  0.61132  0.49312  Biso   1.000  C
  C278     1.0000 0.63267  0.60689  0.50301  Biso   1.000  C
  C279     1.0000 0.63300  0.57266  0.51276  Biso   1.000  C
  C280     1.0000 0.66527  0.54297  0.51407  Biso   1.000  C
  C281     1.0000 0.73938  0.53832  0.42670  Biso   1.000  C
  C282     1.0000 0.73430  0.54328  0.39690  Biso   1.000  C
  C283     1.0000 0.73254  0.51458  0.39494  Biso   1.000  C
  C284     1.0000 0.73737  0.48149  0.42273  Biso   1.000  C
  C285     1.0000 0.74280  0.47872  0.45170  Biso   1.000  C
  C286     1.0000 0.73670  0.44962  0.42178  Biso   1.000  C
  C287     1.0000 0.97391  0.23027  0.95973  Biso   1.000  C
  C288     1.0000 0.05240  0.29800  0.20432  Biso   1.000  C
  C289     1.0000 0.97087  0.08837  0.23259  Biso   1.000  C
  C290     1.0000 0.96201  0.12161  0.23405  Biso   1.000  C
  C291     1.0000 0.95092  0.12506  0.26750  Biso   1.000  C
  C292     1.0000 0.94936  0.09382  0.29812  Biso   1.000  C
  C293     1.0000 0.96065  0.06109  0.29331  Biso   1.000  C
  C294     1.0000 0.98538  0.17918  0.04156  Biso   1.000  C
  C295     1.0000 0.97869  0.14981  0.07241  Biso   1.000  C
  C296     1.0000 0.97508  0.14890  0.10496  Biso   1.000  C
  C297     1.0000 0.97770  0.17772  0.10608  Biso   1.000  C
  C298     1.0000 0.98395  0.20651  0.07405  Biso   1.000  C
  C299     1.0000 0.97614  0.17746  0.13978  Biso   1.000  C
  C300     1.0000 0.98267  0.20337  0.16715  Biso   1.000  C
  C301     1.0000 0.96739  0.15217  0.19989  Biso   1.000  C
  C302     1.0000 0.99564  0.22794  0.19592  Biso   1.000  C
  C303     1.0000 0.99312  0.23038  0.16518  Biso   1.000  C
  C304     1.0000 0.00301  0.25743  0.13267  Biso   1.000  C
  C305     1.0000 0.01276  0.28158  0.13300  Biso   1.000  C
  C306     1.0000 0.01407  0.27769  0.16527  Biso   1.000  C
  C307     1.0000 0.92670  0.29560  0.23938  Biso   1.000  C
  C308     1.0000 0.89690  0.32552  0.23430  Biso   1.000  C
  C309     1.0000 0.89494  0.35794  0.23254  Biso   1.000  C
  C310     1.0000 0.92273  0.35841  0.23737  Biso   1.000  C
  C311     1.0000 0.95170  0.32678  0.24280  Biso   1.000  C
  C312     1.0000 0.92178  0.39190  0.23670  Biso   1.000  C
  C313     1.0000 0.16391  0.26973  0.54027  Biso   1.000  C
  C314     1.0000 0.55472  0.20200  0.29568  Biso   1.000  C
  C315     1.0000 0.29183  0.41163  0.26741  Biso   1.000  C
  C316     1.0000 0.31767  0.37839  0.26595  Biso   1.000  C
  C317     1.0000 0.34348  0.37494  0.23250  Biso   1.000  C
  C318     1.0000 0.34130  0.40618  0.20188  Biso   1.000  C
  C319     1.0000 0.31505  0.43891  0.20669  Biso   1.000  C
  C320     1.0000 0.20612  0.32082  0.45844  Biso   1.000  C
  C321     1.0000 0.20091  0.35019  0.42759  Biso   1.000  C
  C322     1.0000 0.22894  0.35110  0.39504  Biso   1.000  C
  C323     1.0000 0.26150  0.32228  0.39392  Biso   1.000  C
  C324     1.0000 0.26451  0.29349  0.42595  Biso   1.000  C
  C325     1.0000 0.29338  0.32254  0.36022  Biso   1.000  C
  C326     1.0000 0.35319  0.29663  0.33285  Biso   1.000  C
  C327     1.0000 0.31945  0.34783  0.30011  Biso   1.000  C
  C328     1.0000 0.41950  0.27206  0.30408  Biso   1.000  C
  C329     1.0000 0.38868  0.26962  0.33482  Biso   1.000  C
  C330     1.0000 0.39311  0.24257  0.36733  Biso   1.000  C
  C331     1.0000 0.42734  0.21842  0.36700  Biso   1.000  C
  C332     1.0000 0.45703  0.22231  0.33473  Biso   1.000  C
  C333     1.0000 0.46168  0.20440  0.26062  Biso   1.000  C
  C334     1.0000 0.45672  0.17448  0.26570  Biso   1.000  C
  C335     1.0000 0.48542  0.14206  0.26746  Biso   1.000  C
  C336     1.0000 0.51851  0.14159  0.26263  Biso   1.000  C
  C337     1.0000 0.52128  0.17322  0.25720  Biso   1.000  C
  C338     1.0000 0.55038  0.10810  0.26330  Biso   1.000  C
  C339     1.0000 0.76973  0.66391  0.02609  Biso   1.000  C
  C340     1.0000 0.70200  0.05472  0.94760  Biso   1.000  C
  C341     1.0000 0.91163  0.79183  0.02913  Biso   1.000  C
  C342     1.0000 0.87839  0.81767  0.03799  Biso   1.000  C
  C343     1.0000 0.87494  0.84348  0.04908  Biso   1.000  C
  C344     1.0000 0.90618  0.84130  0.05064  Biso   1.000  C
  C345     1.0000 0.93891  0.81505  0.03935  Biso   1.000  C
  C346     1.0000 0.82082  0.70612  0.01462  Biso   1.000  C
  C347     1.0000 0.85019  0.70091  0.02131  Biso   1.000  C
  C348     1.0000 0.85110  0.72894  0.02492  Biso   1.000  C
  C349     1.0000 0.82228  0.76150  0.02230  Biso   1.000  C
  C350     1.0000 0.79349  0.76451  0.01605  Biso   1.000  C
  C351     1.0000 0.82254  0.79338  0.02386  Biso   1.000  C
  C352     1.0000 0.79663  0.85319  0.01733  Biso   1.000  C
  C353     1.0000 0.84783  0.81945  0.03261  Biso   1.000  C
  C354     1.0000 0.77206  0.91950  0.00436  Biso   1.000  C
  C355     1.0000 0.76962  0.88868  0.00688  Biso   1.000  C
  C356     1.0000 0.74257  0.89311  0.99699  Biso   1.000  C
  C357     1.0000 0.71842  0.92734  0.98724  Biso   1.000  C
  C358     1.0000 0.72231  0.95703  0.98593  Biso   1.000  C
  C359     1.0000 0.70440  0.96168  0.07330  Biso   1.000  C
  C360     1.0000 0.67448  0.95672  0.10310  Biso   1.000  C
  C361     1.0000 0.64206  0.98542  0.10506  Biso   1.000  C
  C362     1.0000 0.64159  0.01851  0.07727  Biso   1.000  C
  C363     1.0000 0.67322  0.02128  0.04830  Biso   1.000  C
  C364     1.0000 0.60810  0.05038  0.07822  Biso   1.000  C
  C365     1.0000 0.52609  0.54027  0.26973  Biso   1.000  C
  C366     1.0000 0.44760  0.29568  0.20200  Biso   1.000  C
  C367     1.0000 0.52913  0.26741  0.41163  Biso   1.000  C
  C368     1.0000 0.53799  0.26595  0.37839  Biso   1.000  C
  C369     1.0000 0.54908  0.23250  0.37494  Biso   1.000  C
  C370     1.0000 0.55064  0.20188  0.40618  Biso   1.000  C
  C371     1.0000 0.53935  0.20669  0.43891  Biso   1.000  C
  C372     1.0000 0.51462  0.45844  0.32082  Biso   1.000  C
  C373     1.0000 0.52131  0.42759  0.35019  Biso   1.000  C
  C374     1.0000 0.52492  0.39504  0.35110  Biso   1.000  C
  C375     1.0000 0.52230  0.39392  0.32228  Biso   1.000  C
  C376     1.0000 0.51605  0.42595  0.29349  Biso   1.000  C
  C377     1.0000 0.52386  0.36022  0.32254  Biso   1.000  C
  C378     1.0000 0.51733  0.33285  0.29663  Biso   1.000  C
  C379     1.0000 0.53261  0.30011  0.34783  Biso   1.000  C
  C380     1.0000 0.50436  0.30408  0.27206  Biso   1.000  C
  C381     1.0000 0.50688  0.33482  0.26962  Biso   1.000  C
  C382     1.0000 0.49699  0.36733  0.24257  Biso   1.000  C
  C383     1.0000 0.48724  0.36700  0.21842  Biso   1.000  C
  C384     1.0000 0.48593  0.33473  0.22231  Biso   1.000  C
  C385     1.0000 0.57330  0.26062  0.20440  Biso   1.000  C
  C386     1.0000 0.60310  0.26570  0.17448  Biso   1.000  C
  C387     1.0000 0.60506  0.26746  0.14206  Biso   1.000  C
  C388     1.0000 0.57727  0.26263  0.14159  Biso   1.000  C
  C389     1.0000 0.54830  0.25720  0.17322  Biso   1.000  C
  C390     1.0000 0.57822  0.26330  0.10810  Biso   1.000  C
  C391     1.0000 0.04027  0.02609  0.66391  Biso   1.000  C
  C392     1.0000 0.79568  0.94760  0.05472  Biso   1.000  C
  C393     1.0000 0.76741  0.02913  0.79183  Biso   1.000  C
  C394     1.0000 0.76595  0.03799  0.81767  Biso   1.000  C
  C395     1.0000 0.73250  0.04908  0.84348  Biso   1.000  C
  C396     1.0000 0.70188  0.05064  0.84130  Biso   1.000  C
  C397     1.0000 0.70669  0.03935  0.81505  Biso   1.000  C
  C398     1.0000 0.95844  0.01462  0.70612  Biso   1.000  C
  C399     1.0000 0.92759  0.02131  0.70091  Biso   1.000  C
  C400     1.0000 0.89504  0.02492  0.72894  Biso   1.000  C
  C401     1.0000 0.89392  0.02230  0.76150  Biso   1.000  C
  C402     1.0000 0.92595  0.01605  0.76451  Biso   1.000  C
  C403     1.0000 0.86022  0.02386  0.79338  Biso   1.000  C
  C404     1.0000 0.83285  0.01733  0.85319  Biso   1.000  C
  C405     1.0000 0.80011  0.03261  0.81945  Biso   1.000  C
  C406     1.0000 0.80408  0.00436  0.91950  Biso   1.000  C
  C407     1.0000 0.83482  0.00688  0.88868  Biso   1.000  C
  C408     1.0000 0.86733  0.99699  0.89311  Biso   1.000  C
  C409     1.0000 0.86700  0.98724  0.92734  Biso   1.000  C
  C410     1.0000 0.83473  0.98593  0.95703  Biso   1.000  C
  C411     1.0000 0.76062  0.07330  0.96168  Biso   1.000  C
  C412     1.0000 0.76570  0.10310  0.95672  Biso   1.000  C
  C413     1.0000 0.76746  0.10506  0.98542  Biso   1.000  C
  C414     1.0000 0.76263  0.07727  0.01851  Biso   1.000  C
  C415     1.0000 0.75720  0.04830  0.02128  Biso   1.000  C
  C416     1.0000 0.76330  0.07822  0.05038  Biso   1.000  C
  C417     1.0000 0.04027  0.26973  0.02609  Biso   1.000  C
  C418     1.0000 0.79568  0.20200  0.94760  Biso   1.000  C
  C419     1.0000 0.76741  0.41163  0.02913  Biso   1.000  C
  C420     1.0000 0.76595  0.37839  0.03799  Biso   1.000  C
  C421     1.0000 0.73250  0.37494  0.04908  Biso   1.000  C
  C422     1.0000 0.70188  0.40618  0.05064  Biso   1.000  C
  C423     1.0000 0.70669  0.43891  0.03935  Biso   1.000  C
  C424     1.0000 0.95844  0.32082  0.01462  Biso   1.000  C
  C425     1.0000 0.92759  0.35019  0.02131  Biso   1.000  C
  C426     1.0000 0.89504  0.35110  0.02492  Biso   1.000  C
  C427     1.0000 0.89392  0.32228  0.02230  Biso   1.000  C
  C428     1.0000 0.92595  0.29349  0.01605  Biso   1.000  C
  C429     1.0000 0.86022  0.32254  0.02386  Biso   1.000  C
  C430     1.0000 0.83285  0.29663  0.01733  Biso   1.000  C
  C431     1.0000 0.80011  0.34783  0.03261  Biso   1.000  C
  C432     1.0000 0.80408  0.27206  0.00436  Biso   1.000  C
  C433     1.0000 0.83482  0.26962  0.00688  Biso   1.000  C
  C434     1.0000 0.86733  0.24257  0.99699  Biso   1.000  C
  C435     1.0000 0.86700  0.21842  0.98724  Biso   1.000  C
  C436     1.0000 0.83473  0.22231  0.98593  Biso   1.000  C
  C437     1.0000 0.76062  0.20440  0.07330  Biso   1.000  C
  C438     1.0000 0.76570  0.17448  0.10310  Biso   1.000  C
  C439     1.0000 0.76746  0.14206  0.10506  Biso   1.000  C
  C440     1.0000 0.76263  0.14159  0.07727  Biso   1.000  C
  C441     1.0000 0.75720  0.17322  0.04830  Biso   1.000  C
  C442     1.0000 0.76330  0.10810  0.07822  Biso   1.000  C
  C443     1.0000 0.52609  0.66391  0.54027  Biso   1.000  C
  C444     1.0000 0.44760  0.05472  0.29568  Biso   1.000  C
  C445     1.0000 0.52913  0.79183  0.26741  Biso   1.000  C
  C446     1.0000 0.53799  0.81767  0.26595  Biso   1.000  C
  C447     1.0000 0.54908  0.84348  0.23250  Biso   1.000  C
  C448     1.0000 0.55064  0.84130  0.20188  Biso   1.000  C
  C449     1.0000 0.53935  0.81505  0.20669  Biso   1.000  C
  C450     1.0000 0.51462  0.70612  0.45844  Biso   1.000  C
  C451     1.0000 0.52131  0.70091  0.42759  Biso   1.000  C
  C452     1.0000 0.52492  0.72894  0.39504  Biso   1.000  C
  C453     1.0000 0.52230  0.76150  0.39392  Biso   1.000  C
  C454     1.0000 0.51605  0.76451  0.42595  Biso   1.000  C
  C455     1.0000 0.52386  0.79338  0.36022  Biso   1.000  C
  C456     1.0000 0.51733  0.85319  0.33285  Biso   1.000  C
  C457     1.0000 0.53261  0.81945  0.30011  Biso   1.000  C
  C458     1.0000 0.50436  0.91950  0.30408  Biso   1.000  C
  C459     1.0000 0.50688  0.88868  0.33482  Biso   1.000  C
  C460     1.0000 0.49699  0.89311  0.36733  Biso   1.000  C
  C461     1.0000 0.48724  0.92734  0.36700  Biso   1.000  C
  C462     1.0000 0.48593  0.95703  0.33473  Biso   1.000  C
  C463     1.0000 0.57330  0.96168  0.26062  Biso   1.000  C
  C464     1.0000 0.60310  0.95672  0.26570  Biso   1.000  C
  C465     1.0000 0.60506  0.98542  0.26746  Biso   1.000  C
  C466     1.0000 0.57727  0.01851  0.26263  Biso   1.000  C
  C467     1.0000 0.54830  0.02128  0.25720  Biso   1.000  C
  C468     1.0000 0.57822  0.05038  0.26330  Biso   1.000  C
  C469     1.0000 0.76973  0.54027  0.66391  Biso   1.000  C
  C470     1.0000 0.70200  0.29568  0.05472  Biso   1.000  C
  C471     1.0000 0.91163  0.26741  0.79183  Biso   1.000  C
  C472     1.0000 0.87839  0.26595  0.81767  Biso   1.000  C
  C473     1.0000 0.87494  0.23250  0.84348  Biso   1.000  C
  C474     1.0000 0.90618  0.20188  0.84130  Biso   1.000  C
  C475     1.0000 0.93891  0.20669  0.81505  Biso   1.000  C
  C476     1.0000 0.82082  0.45844  0.70612  Biso   1.000  C
  C477     1.0000 0.85019  0.42759  0.70091  Biso   1.000  C
  C478     1.0000 0.85110  0.39504  0.72894  Biso   1.000  C
  C479     1.0000 0.82228  0.39392  0.76150  Biso   1.000  C
  C480     1.0000 0.79349  0.42595  0.76451  Biso   1.000  C
  C481     1.0000 0.82254  0.36022  0.79338  Biso   1.000  C
  C482     1.0000 0.79663  0.33285  0.85319  Biso   1.000  C
  C483     1.0000 0.84783  0.30011  0.81945  Biso   1.000  C
  C484     1.0000 0.77206  0.30408  0.91950  Biso   1.000  C
  C485     1.0000 0.76962  0.33482  0.88868  Biso   1.000  C
  C486     1.0000 0.74257  0.36733  0.89311  Biso   1.000  C
  C487     1.0000 0.71842  0.36700  0.92734  Biso   1.000  C
  C488     1.0000 0.72231  0.33473  0.95703  Biso   1.000  C
  C489     1.0000 0.70440  0.26062  0.96168  Biso   1.000  C
  C490     1.0000 0.67448  0.26570  0.95672  Biso   1.000  C
  C491     1.0000 0.64206  0.26746  0.98542  Biso   1.000  C
  C492     1.0000 0.64159  0.26263  0.01851  Biso   1.000  C
  C493     1.0000 0.67322  0.25720  0.02128  Biso   1.000  C
  C494     1.0000 0.60810  0.26330  0.05038  Biso   1.000  C
  C495     1.0000 0.16391  0.02609  0.26973  Biso   1.000  C
  C496     1.0000 0.55472  0.94760  0.20200  Biso   1.000  C
  C497     1.0000 0.29183  0.02913  0.41163  Biso   1.000  C
  C498     1.0000 0.31767  0.03799  0.37839  Biso   1.000  C
  C499     1.0000 0.34348  0.04908  0.37494  Biso   1.000  C
  C500     1.0000 0.34130  0.05064  0.40618  Biso   1.000  C
  C501     1.0000 0.31505  0.03935  0.43891  Biso   1.000  C
  C502     1.0000 0.20612  0.01462  0.32082  Biso   1.000  C
  C503     1.0000 0.20091  0.02131  0.35019  Biso   1.000  C
  C504     1.0000 0.22894  0.02492  0.35110  Biso   1.000  C
  C505     1.0000 0.26150  0.02230  0.32228  Biso   1.000  C
  C506     1.0000 0.26451  0.01605  0.29349  Biso   1.000  C
  C507     1.0000 0.29338  0.02386  0.32254  Biso   1.000  C
  C508     1.0000 0.35319  0.01733  0.29663  Biso   1.000  C
  C509     1.0000 0.31945  0.03261  0.34783  Biso   1.000  C
  C510     1.0000 0.41950  0.00436  0.27206  Biso   1.000  C
  C511     1.0000 0.38868  0.00688  0.26962  Biso   1.000  C
  C512     1.0000 0.39311  0.99699  0.24257  Biso   1.000  C
  C513     1.0000 0.42734  0.98724  0.21842  Biso   1.000  C
  C514     1.0000 0.45703  0.98593  0.22231  Biso   1.000  C
  C515     1.0000 0.46168  0.07330  0.20440  Biso   1.000  C
  C516     1.0000 0.45672  0.10310  0.17448  Biso   1.000  C
  C517     1.0000 0.48542  0.10506  0.14206  Biso   1.000  C
  C518     1.0000 0.51851  0.07727  0.14159  Biso   1.000  C
  C519     1.0000 0.52128  0.04830  0.17322  Biso   1.000  C
  C520     1.0000 0.55038  0.07822  0.10810  Biso   1.000  C
  C521     1.0000 0.52609  0.26973  0.66391  Biso   1.000  C
  C522     1.0000 0.44760  0.20200  0.05472  Biso   1.000  C
  C523     1.0000 0.52913  0.41163  0.79183  Biso   1.000  C
  C524     1.0000 0.53799  0.37839  0.81767  Biso   1.000  C
  C525     1.0000 0.54908  0.37494  0.84348  Biso   1.000  C
  C526     1.0000 0.55064  0.40618  0.84130  Biso   1.000  C
  C527     1.0000 0.53935  0.43891  0.81505  Biso   1.000  C
  C528     1.0000 0.51462  0.32082  0.70612  Biso   1.000  C
  C529     1.0000 0.52131  0.35019  0.70091  Biso   1.000  C
  C530     1.0000 0.52492  0.35110  0.72894  Biso   1.000  C
  C531     1.0000 0.52230  0.32228  0.76150  Biso   1.000  C
  C532     1.0000 0.51605  0.29349  0.76451  Biso   1.000  C
  C533     1.0000 0.52386  0.32254  0.79338  Biso   1.000  C
  C534     1.0000 0.51733  0.29663  0.85319  Biso   1.000  C
  C535     1.0000 0.53261  0.34783  0.81945  Biso   1.000  C
  C536     1.0000 0.50436  0.27206  0.91950  Biso   1.000  C
  C537     1.0000 0.50688  0.26962  0.88868  Biso   1.000  C
  C538     1.0000 0.49699  0.24257  0.89311  Biso   1.000  C
  C539     1.0000 0.48724  0.21842  0.92734  Biso   1.000  C
  C540     1.0000 0.48593  0.22231  0.95703  Biso   1.000  C
  C541     1.0000 0.57330  0.20440  0.96168  Biso   1.000  C
  C542     1.0000 0.60310  0.17448  0.95672  Biso   1.000  C
  C543     1.0000 0.60506  0.14206  0.98542  Biso   1.000  C
  C544     1.0000 0.57727  0.14159  0.01851  Biso   1.000  C
  C545     1.0000 0.54830  0.17322  0.02128  Biso   1.000  C
  C546     1.0000 0.57822  0.10810  0.05038  Biso   1.000  C
  C547     1.0000 0.04027  0.66391  0.26973  Biso   1.000  C
  C548     1.0000 0.79568  0.05472  0.20200  Biso   1.000  C
  C549     1.0000 0.76741  0.79183  0.41163  Biso   1.000  C
  C550     1.0000 0.76595  0.81767  0.37839  Biso   1.000  C
  C551     1.0000 0.73250  0.84348  0.37494  Biso   1.000  C
  C552     1.0000 0.70188  0.84130  0.40618  Biso   1.000  C
  C553     1.0000 0.70669  0.81505  0.43891  Biso   1.000  C
  C554     1.0000 0.95844  0.70612  0.32082  Biso   1.000  C
  C555     1.0000 0.92759  0.70091  0.35019  Biso   1.000  C
  C556     1.0000 0.89504  0.72894  0.35110  Biso   1.000  C
  C557     1.0000 0.89392  0.76150  0.32228  Biso   1.000  C
  C558     1.0000 0.92595  0.76451  0.29349  Biso   1.000  C
  C559     1.0000 0.86022  0.79338  0.32254  Biso   1.000  C
  C560     1.0000 0.83285  0.85319  0.29663  Biso   1.000  C
  C561     1.0000 0.80011  0.81945  0.34783  Biso   1.000  C
  C562     1.0000 0.80408  0.91950  0.27206  Biso   1.000  C
  C563     1.0000 0.83482  0.88868  0.26962  Biso   1.000  C
  C564     1.0000 0.86733  0.89311  0.24257  Biso   1.000  C
  C565     1.0000 0.86700  0.92734  0.21842  Biso   1.000  C
  C566     1.0000 0.83473  0.95703  0.22231  Biso   1.000  C
  C567     1.0000 0.76062  0.96168  0.20440  Biso   1.000  C
  C568     1.0000 0.76570  0.95672  0.17448  Biso   1.000  C
  C569     1.0000 0.76746  0.98542  0.14206  Biso   1.000  C
  C570     1.0000 0.76263  0.01851  0.14159  Biso   1.000  C
  C571     1.0000 0.75720  0.02128  0.17322  Biso   1.000  C
  C572     1.0000 0.76330  0.05038  0.10810  Biso   1.000  C
  C573     1.0000 0.16391  0.54027  0.02609  Biso   1.000  C
  C574     1.0000 0.55472  0.29568  0.94760  Biso   1.000  C
  C575     1.0000 0.29183  0.26741  0.02913  Biso   1.000  C
  C576     1.0000 0.31767  0.26595  0.03799  Biso   1.000  C
  C577     1.0000 0.34348  0.23250  0.04908  Biso   1.000  C
  C578     1.0000 0.34130  0.20188  0.05064  Biso   1.000  C
  C579     1.0000 0.31505  0.20669  0.03935  Biso   1.000  C
  C580     1.0000 0.20612  0.45844  0.01462  Biso   1.000  C
  C581     1.0000 0.20091  0.42759  0.02131  Biso   1.000  C
  C582     1.0000 0.22894  0.39504  0.02492  Biso   1.000  C
  C583     1.0000 0.26150  0.39392  0.02230  Biso   1.000  C
  C584     1.0000 0.26451  0.42595  0.01605  Biso   1.000  C
  C585     1.0000 0.29338  0.36022  0.02386  Biso   1.000  C
  C586     1.0000 0.35319  0.33285  0.01733  Biso   1.000  C
  C587     1.0000 0.31945  0.30011  0.03261  Biso   1.000  C
  C588     1.0000 0.41950  0.30408  0.00436  Biso   1.000  C
  C589     1.0000 0.38868  0.33482  0.00688  Biso   1.000  C
  C590     1.0000 0.39311  0.36733  0.99699  Biso   1.000  C
  C591     1.0000 0.42734  0.36700  0.98724  Biso   1.000  C
  C592     1.0000 0.45703  0.33473  0.98593  Biso   1.000  C
  C593     1.0000 0.46168  0.26062  0.07330  Biso   1.000  C
  C594     1.0000 0.45672  0.26570  0.10310  Biso   1.000  C
  C595     1.0000 0.48542  0.26746  0.10506  Biso   1.000  C
  C596     1.0000 0.51851  0.26263  0.07727  Biso   1.000  C
  C597     1.0000 0.52128  0.25720  0.04830  Biso   1.000  C
  C598     1.0000 0.55038  0.26330  0.07822  Biso   1.000  C
  C599     1.0000 0.76973  0.02609  0.54027  Biso   1.000  C
  C600     1.0000 0.70200  0.94760  0.29568  Biso   1.000  C
  C601     1.0000 0.91163  0.02913  0.26741  Biso   1.000  C
  C602     1.0000 0.87839  0.03799  0.26595  Biso   1.000  C
  C603     1.0000 0.87494  0.04908  0.23250  Biso   1.000  C
  C604     1.0000 0.90618  0.05064  0.20188  Biso   1.000  C
  C605     1.0000 0.93891  0.03935  0.20669  Biso   1.000  C
  C606     1.0000 0.82082  0.01462  0.45844  Biso   1.000  C
  C607     1.0000 0.85019  0.02131  0.42759  Biso   1.000  C
  C608     1.0000 0.85110  0.02492  0.39504  Biso   1.000  C
  C609     1.0000 0.82228  0.02230  0.39392  Biso   1.000  C
  C610     1.0000 0.79349  0.01605  0.42595  Biso   1.000  C
  C611     1.0000 0.82254  0.02386  0.36022  Biso   1.000  C
  C612     1.0000 0.79663  0.01733  0.33285  Biso   1.000  C
  C613     1.0000 0.84783  0.03261  0.30011  Biso   1.000  C
  C614     1.0000 0.77206  0.00436  0.30408  Biso   1.000  C
  C615     1.0000 0.76962  0.00688  0.33482  Biso   1.000  C
  C616     1.0000 0.74257  0.99699  0.36733  Biso   1.000  C
  C617     1.0000 0.71842  0.98724  0.36700  Biso   1.000  C
  C618     1.0000 0.72231  0.98593  0.33473  Biso   1.000  C
  C619     1.0000 0.70440  0.07330  0.26062  Biso   1.000  C
  C620     1.0000 0.67448  0.10310  0.26570  Biso   1.000  C
  C621     1.0000 0.64206  0.10506  0.26746  Biso   1.000  C
  C622     1.0000 0.64159  0.07727  0.26263  Biso   1.000  C
  C623     1.0000 0.67322  0.04830  0.25720  Biso   1.000  C
  C624     1.0000 0.60810  0.07822  0.26330  Biso   1.000  C
  C625     1.0000 0.26973  0.16391  0.04027  Biso   1.000  C
  C626     1.0000 0.20200  0.55472  0.79568  Biso   1.000  C
  C627     1.0000 0.41163  0.29183  0.76741  Biso   1.000  C
  C628     1.0000 0.37839  0.31767  0.76595  Biso   1.000  C
  C629     1.0000 0.37494  0.34348  0.73250  Biso   1.000  C
  C630     1.0000 0.40618  0.34130  0.70188  Biso   1.000  C
  C631     1.0000 0.43891  0.31505  0.70669  Biso   1.000  C
  C632     1.0000 0.32082  0.20612  0.95844  Biso   1.000  C
  C633     1.0000 0.35019  0.20091  0.92759  Biso   1.000  C
  C634     1.0000 0.35110  0.22894  0.89504  Biso   1.000  C
  C635     1.0000 0.32228  0.26150  0.89392  Biso   1.000  C
  C636     1.0000 0.29349  0.26451  0.92595  Biso   1.000  C
  C637     1.0000 0.32254  0.29338  0.86022  Biso   1.000  C
  C638     1.0000 0.29663  0.35319  0.83285  Biso   1.000  C
  C639     1.0000 0.34783  0.31945  0.80011  Biso   1.000  C
  C640     1.0000 0.27206  0.41950  0.80408  Biso   1.000  C
  C641     1.0000 0.26962  0.38868  0.83482  Biso   1.000  C
  C642     1.0000 0.24257  0.39311  0.86733  Biso   1.000  C
  C643     1.0000 0.21842  0.42734  0.86700  Biso   1.000  C
  C644     1.0000 0.22231  0.45703  0.83473  Biso   1.000  C
  C645     1.0000 0.20440  0.46168  0.76062  Biso   1.000  C
  C646     1.0000 0.17448  0.45672  0.76570  Biso   1.000  C
  C647     1.0000 0.14206  0.48542  0.76746  Biso   1.000  C
  C648     1.0000 0.14159  0.51851  0.76263  Biso   1.000  C
  C649     1.0000 0.17322  0.52128  0.75720  Biso   1.000  C
  C650     1.0000 0.10810  0.55038  0.76330  Biso   1.000  C
  C651     1.0000 0.66391  0.76973  0.52609  Biso   1.000  C
  C652     1.0000 0.05472  0.70200  0.44760  Biso   1.000  C
  C653     1.0000 0.79183  0.91163  0.52913  Biso   1.000  C
  C654     1.0000 0.81767  0.87839  0.53799  Biso   1.000  C
  C655     1.0000 0.84348  0.87494  0.54908  Biso   1.000  C
  C656     1.0000 0.84130  0.90618  0.55064  Biso   1.000  C
  C657     1.0000 0.81505  0.93891  0.53935  Biso   1.000  C
  C658     1.0000 0.70612  0.82082  0.51462  Biso   1.000  C
  C659     1.0000 0.70091  0.85019  0.52131  Biso   1.000  C
  C660     1.0000 0.72894  0.85110  0.52492  Biso   1.000  C
  C661     1.0000 0.76150  0.82228  0.52230  Biso   1.000  C
  C662     1.0000 0.76451  0.79349  0.51605  Biso   1.000  C
  C663     1.0000 0.79338  0.82254  0.52386  Biso   1.000  C
  C664     1.0000 0.85319  0.79663  0.51733  Biso   1.000  C
  C665     1.0000 0.81945  0.84783  0.53261  Biso   1.000  C
  C666     1.0000 0.91950  0.77206  0.50436  Biso   1.000  C
  C667     1.0000 0.88868  0.76962  0.50688  Biso   1.000  C
  C668     1.0000 0.89311  0.74257  0.49699  Biso   1.000  C
  C669     1.0000 0.92734  0.71842  0.48724  Biso   1.000  C
  C670     1.0000 0.95703  0.72231  0.48593  Biso   1.000  C
  C671     1.0000 0.96168  0.70440  0.57330  Biso   1.000  C
  C672     1.0000 0.95672  0.67448  0.60310  Biso   1.000  C
  C673     1.0000 0.98542  0.64206  0.60506  Biso   1.000  C
  C674     1.0000 0.01851  0.64159  0.57727  Biso   1.000  C
  C675     1.0000 0.02128  0.67322  0.54830  Biso   1.000  C
  C676     1.0000 0.05038  0.60810  0.57822  Biso   1.000  C
  C677     1.0000 0.54027  0.52609  0.76973  Biso   1.000  C
  C678     1.0000 0.29568  0.44760  0.70200  Biso   1.000  C
  C679     1.0000 0.26741  0.52913  0.91163  Biso   1.000  C
  C680     1.0000 0.26595  0.53799  0.87839  Biso   1.000  C
  C681     1.0000 0.23250  0.54908  0.87494  Biso   1.000  C
  C682     1.0000 0.20188  0.55064  0.90618  Biso   1.000  C
  C683     1.0000 0.20669  0.53935  0.93891  Biso   1.000  C
  C684     1.0000 0.45844  0.51462  0.82082  Biso   1.000  C
  C685     1.0000 0.42759  0.52131  0.85019  Biso   1.000  C
  C686     1.0000 0.39504  0.52492  0.85110  Biso   1.000  C
  C687     1.0000 0.39392  0.52230  0.82228  Biso   1.000  C
  C688     1.0000 0.42595  0.51605  0.79349  Biso   1.000  C
  C689     1.0000 0.36022  0.52386  0.82254  Biso   1.000  C
  C690     1.0000 0.33285  0.51733  0.79663  Biso   1.000  C
  C691     1.0000 0.30011  0.53261  0.84783  Biso   1.000  C
  C692     1.0000 0.30408  0.50436  0.77206  Biso   1.000  C
  C693     1.0000 0.33482  0.50688  0.76962  Biso   1.000  C
  C694     1.0000 0.36733  0.49699  0.74257  Biso   1.000  C
  C695     1.0000 0.36700  0.48724  0.71842  Biso   1.000  C
  C696     1.0000 0.33473  0.48593  0.72231  Biso   1.000  C
  C697     1.0000 0.26062  0.57330  0.70440  Biso   1.000  C
  C698     1.0000 0.26570  0.60310  0.67448  Biso   1.000  C
  C699     1.0000 0.26746  0.60506  0.64206  Biso   1.000  C
  C700     1.0000 0.26263  0.57727  0.64159  Biso   1.000  C
  C701     1.0000 0.25720  0.54830  0.67322  Biso   1.000  C
  C702     1.0000 0.26330  0.57822  0.60810  Biso   1.000  C
  C703     1.0000 0.02609  0.04027  0.16391  Biso   1.000  C
  C704     1.0000 0.94760  0.79568  0.55472  Biso   1.000  C
  C705     1.0000 0.02913  0.76741  0.29183  Biso   1.000  C
  C706     1.0000 0.03799  0.76595  0.31767  Biso   1.000  C
  C707     1.0000 0.04908  0.73250  0.34348  Biso   1.000  C
  C708     1.0000 0.05064  0.70188  0.34130  Biso   1.000  C
  C709     1.0000 0.03935  0.70669  0.31505  Biso   1.000  C
  C710     1.0000 0.01462  0.95844  0.20612  Biso   1.000  C
  C711     1.0000 0.02131  0.92759  0.20091  Biso   1.000  C
  C712     1.0000 0.02492  0.89504  0.22894  Biso   1.000  C
  C713     1.0000 0.02230  0.89392  0.26150  Biso   1.000  C
  C714     1.0000 0.01605  0.92595  0.26451  Biso   1.000  C
  C715     1.0000 0.02386  0.86022  0.29338  Biso   1.000  C
  C716     1.0000 0.01733  0.83285  0.35319  Biso   1.000  C
  C717     1.0000 0.03261  0.80011  0.31945  Biso   1.000  C
  C718     1.0000 0.00436  0.80408  0.41950  Biso   1.000  C
  C719     1.0000 0.00688  0.83482  0.38868  Biso   1.000  C
  C720     1.0000 0.99699  0.86733  0.39311  Biso   1.000  C
  C721     1.0000 0.98724  0.86700  0.42734  Biso   1.000  C
  C722     1.0000 0.98593  0.83473  0.45703  Biso   1.000  C
  C723     1.0000 0.07330  0.76062  0.46168  Biso   1.000  C
  C724     1.0000 0.10310  0.76570  0.45672  Biso   1.000  C
  C725     1.0000 0.10506  0.76746  0.48542  Biso   1.000  C
  C726     1.0000 0.07727  0.76263  0.51851  Biso   1.000  C
  C727     1.0000 0.04830  0.75720  0.52128  Biso   1.000  C
  C728     1.0000 0.07822  0.76330  0.55038  Biso   1.000  C
  C729     1.0000 0.26973  0.04027  0.52609  Biso   1.000  C
  C730     1.0000 0.20200  0.79568  0.44760  Biso   1.000  C
  C731     1.0000 0.41163  0.76741  0.52913  Biso   1.000  C
  C732     1.0000 0.37839  0.76595  0.53799  Biso   1.000  C
  C733     1.0000 0.37494  0.73250  0.54908  Biso   1.000  C
  C734     1.0000 0.40618  0.70188  0.55064  Biso   1.000  C
  C735     1.0000 0.43891  0.70669  0.53935  Biso   1.000  C
  C736     1.0000 0.32082  0.95844  0.51462  Biso   1.000  C
  C737     1.0000 0.35019  0.92759  0.52131  Biso   1.000  C
  C738     1.0000 0.35110  0.89504  0.52492  Biso   1.000  C
  C739     1.0000 0.32228  0.89392  0.52230  Biso   1.000  C
  C740     1.0000 0.29349  0.92595  0.51605  Biso   1.000  C
  C741     1.0000 0.32254  0.86022  0.52386  Biso   1.000  C
  C742     1.0000 0.29663  0.83285  0.51733  Biso   1.000  C
  C743     1.0000 0.34783  0.80011  0.53261  Biso   1.000  C
  C744     1.0000 0.27206  0.80408  0.50436  Biso   1.000  C
  C745     1.0000 0.26962  0.83482  0.50688  Biso   1.000  C
  C746     1.0000 0.24257  0.86733  0.49699  Biso   1.000  C
  C747     1.0000 0.21842  0.86700  0.48724  Biso   1.000  C
  C748     1.0000 0.22231  0.83473  0.48593  Biso   1.000  C
  C749     1.0000 0.20440  0.76062  0.57330  Biso   1.000  C
  C750     1.0000 0.17448  0.76570  0.60310  Biso   1.000  C
  C751     1.0000 0.14206  0.76746  0.60506  Biso   1.000  C
  C752     1.0000 0.14159  0.76263  0.57727  Biso   1.000  C
  C753     1.0000 0.17322  0.75720  0.54830  Biso   1.000  C
  C754     1.0000 0.10810  0.76330  0.57822  Biso   1.000  C
  C755     1.0000 0.66391  0.52609  0.04027  Biso   1.000  C
  C756     1.0000 0.05472  0.44760  0.79568  Biso   1.000  C
  C757     1.0000 0.79183  0.52913  0.76741  Biso   1.000  C
  C758     1.0000 0.81767  0.53799  0.76595  Biso   1.000  C
  C759     1.0000 0.84348  0.54908  0.73250  Biso   1.000  C
  C760     1.0000 0.84130  0.55064  0.70188  Biso   1.000  C
  C761     1.0000 0.81505  0.53935  0.70669  Biso   1.000  C
  C762     1.0000 0.70612  0.51462  0.95844  Biso   1.000  C
  C763     1.0000 0.70091  0.52131  0.92759  Biso   1.000  C
  C764     1.0000 0.72894  0.52492  0.89504  Biso   1.000  C
  C765     1.0000 0.76150  0.52230  0.89392  Biso   1.000  C
  C766     1.0000 0.76451  0.51605  0.92595  Biso   1.000  C
  C767     1.0000 0.79338  0.52386  0.86022  Biso   1.000  C
  C768     1.0000 0.85319  0.51733  0.83285  Biso   1.000  C
  C769     1.0000 0.81945  0.53261  0.80011  Biso   1.000  C
  C770     1.0000 0.91950  0.50436  0.80408  Biso   1.000  C
  C771     1.0000 0.88868  0.50688  0.83482  Biso   1.000  C
  C772     1.0000 0.89311  0.49699  0.86733  Biso   1.000  C
  C773     1.0000 0.92734  0.48724  0.86700  Biso   1.000  C
  C774     1.0000 0.95703  0.48593  0.83473  Biso   1.000  C
  C775     1.0000 0.96168  0.57330  0.76062  Biso   1.000  C
  C776     1.0000 0.95672  0.60310  0.76570  Biso   1.000  C
  C777     1.0000 0.98542  0.60506  0.76746  Biso   1.000  C
  C778     1.0000 0.01851  0.57727  0.76263  Biso   1.000  C
  C779     1.0000 0.02128  0.54830  0.75720  Biso   1.000  C
  C780     1.0000 0.05038  0.57822  0.76330  Biso   1.000  C
  C781     1.0000 0.54027  0.76973  0.16391  Biso   1.000  C
  C782     1.0000 0.29568  0.70200  0.55472  Biso   1.000  C
  C783     1.0000 0.26741  0.91163  0.29183  Biso   1.000  C
  C784     1.0000 0.26595  0.87839  0.31767  Biso   1.000  C
  C785     1.0000 0.23250  0.87494  0.34348  Biso   1.000  C
  C786     1.0000 0.20188  0.90618  0.34130  Biso   1.000  C
  C787     1.0000 0.20669  0.93891  0.31505  Biso   1.000  C
  C788     1.0000 0.45844  0.82082  0.20612  Biso   1.000  C
  C789     1.0000 0.42759  0.85019  0.20091  Biso   1.000  C
  C790     1.0000 0.39504  0.85110  0.22894  Biso   1.000  C
  C791     1.0000 0.39392  0.82228  0.26150  Biso   1.000  C
  C792     1.0000 0.42595  0.79349  0.26451  Biso   1.000  C
  C793     1.0000 0.36022  0.82254  0.29338  Biso   1.000  C
  C794     1.0000 0.33285  0.79663  0.35319  Biso   1.000  C
  C795     1.0000 0.30011  0.84783  0.31945  Biso   1.000  C
  C796     1.0000 0.30408  0.77206  0.41950  Biso   1.000  C
  C797     1.0000 0.33482  0.76962  0.38868  Biso   1.000  C
  C798     1.0000 0.36733  0.74257  0.39311  Biso   1.000  C
  C799     1.0000 0.36700  0.71842  0.42734  Biso   1.000  C
  C800     1.0000 0.33473  0.72231  0.45703  Biso   1.000  C
  C801     1.0000 0.26062  0.70440  0.46168  Biso   1.000  C
  C802     1.0000 0.26570  0.67448  0.45672  Biso   1.000  C
  C803     1.0000 0.26746  0.64206  0.48542  Biso   1.000  C
  C804     1.0000 0.26263  0.64159  0.51851  Biso   1.000  C
  C805     1.0000 0.25720  0.67322  0.52128  Biso   1.000  C
  C806     1.0000 0.26330  0.60810  0.55038  Biso   1.000  C
  C807     1.0000 0.02609  0.16391  0.76973  Biso   1.000  C
  C808     1.0000 0.94760  0.55472  0.70200  Biso   1.000  C
  C809     1.0000 0.02913  0.29183  0.91163  Biso   1.000  C
  C810     1.0000 0.03799  0.31767  0.87839  Biso   1.000  C
  C811     1.0000 0.04908  0.34348  0.87494  Biso   1.000  C
  C812     1.0000 0.05064  0.34130  0.90618  Biso   1.000  C
  C813     1.0000 0.03935  0.31505  0.93891  Biso   1.000  C
  C814     1.0000 0.01462  0.20612  0.82082  Biso   1.000  C
  C815     1.0000 0.02131  0.20091  0.85019  Biso   1.000  C
  C816     1.0000 0.02492  0.22894  0.85110  Biso   1.000  C
  C817     1.0000 0.02230  0.26150  0.82228  Biso   1.000  C
  C818     1.0000 0.01605  0.26451  0.79349  Biso   1.000  C
  C819     1.0000 0.02386  0.29338  0.82254  Biso   1.000  C
  C820     1.0000 0.01733  0.35319  0.79663  Biso   1.000  C
  C821     1.0000 0.03261  0.31945  0.84783  Biso   1.000  C
  C822     1.0000 0.00436  0.41950  0.77206  Biso   1.000  C
  C823     1.0000 0.00688  0.38868  0.76962  Biso   1.000  C
  C824     1.0000 0.99699  0.39311  0.74257  Biso   1.000  C
  C825     1.0000 0.98724  0.42734  0.71842  Biso   1.000  C
  C826     1.0000 0.98593  0.45703  0.72231  Biso   1.000  C
  C827     1.0000 0.07330  0.46168  0.70440  Biso   1.000  C
  C828     1.0000 0.10310  0.45672  0.67448  Biso   1.000  C
  C829     1.0000 0.10506  0.48542  0.64206  Biso   1.000  C
  C830     1.0000 0.07727  0.51851  0.64159  Biso   1.000  C
  C831     1.0000 0.04830  0.52128  0.67322  Biso   1.000  C
  C832     1.0000 0.07822  0.55038  0.60810  Biso   1.000  C
  C833     1.0000 0.26973  0.52609  0.16391  Biso   1.000  C
  C834     1.0000 0.20200  0.44760  0.55472  Biso   1.000  C
  C835     1.0000 0.41163  0.52913  0.29183  Biso   1.000  C
  C836     1.0000 0.37839  0.53799  0.31767  Biso   1.000  C
  C837     1.0000 0.37494  0.54908  0.34348  Biso   1.000  C
  C838     1.0000 0.40618  0.55064  0.34130  Biso   1.000  C
  C839     1.0000 0.43891  0.53935  0.31505  Biso   1.000  C
  C840     1.0000 0.32082  0.51462  0.20612  Biso   1.000  C
  C841     1.0000 0.35019  0.52131  0.20091  Biso   1.000  C
  C842     1.0000 0.35110  0.52492  0.22894  Biso   1.000  C
  C843     1.0000 0.32228  0.52230  0.26150  Biso   1.000  C
  C844     1.0000 0.29349  0.51605  0.26451  Biso   1.000  C
  C845     1.0000 0.32254  0.52386  0.29338  Biso   1.000  C
  C846     1.0000 0.29663  0.51733  0.35319  Biso   1.000  C
  C847     1.0000 0.34783  0.53261  0.31945  Biso   1.000  C
  C848     1.0000 0.27206  0.50436  0.41950  Biso   1.000  C
  C849     1.0000 0.26962  0.50688  0.38868  Biso   1.000  C
  C850     1.0000 0.24257  0.49699  0.39311  Biso   1.000  C
  C851     1.0000 0.21842  0.48724  0.42734  Biso   1.000  C
  C852     1.0000 0.22231  0.48593  0.45703  Biso   1.000  C
  C853     1.0000 0.20440  0.57330  0.46168  Biso   1.000  C
  C854     1.0000 0.17448  0.60310  0.45672  Biso   1.000  C
  C855     1.0000 0.14206  0.60506  0.48542  Biso   1.000  C
  C856     1.0000 0.14159  0.57727  0.51851  Biso   1.000  C
  C857     1.0000 0.17322  0.54830  0.52128  Biso   1.000  C
  C858     1.0000 0.10810  0.57822  0.55038  Biso   1.000  C
  C859     1.0000 0.66391  0.04027  0.76973  Biso   1.000  C
  C860     1.0000 0.05472  0.79568  0.70200  Biso   1.000  C
  C861     1.0000 0.79183  0.76741  0.91163  Biso   1.000  C
  C862     1.0000 0.81767  0.76595  0.87839  Biso   1.000  C
  C863     1.0000 0.84348  0.73250  0.87494  Biso   1.000  C
  C864     1.0000 0.84130  0.70188  0.90618  Biso   1.000  C
  C865     1.0000 0.81505  0.70669  0.93891  Biso   1.000  C
  C866     1.0000 0.70612  0.95844  0.82082  Biso   1.000  C
  C867     1.0000 0.70091  0.92759  0.85019  Biso   1.000  C
  C868     1.0000 0.72894  0.89504  0.85110  Biso   1.000  C
  C869     1.0000 0.76150  0.89392  0.82228  Biso   1.000  C
  C870     1.0000 0.76451  0.92595  0.79349  Biso   1.000  C
  C871     1.0000 0.79338  0.86022  0.82254  Biso   1.000  C
  C872     1.0000 0.85319  0.83285  0.79663  Biso   1.000  C
  C873     1.0000 0.81945  0.80011  0.84783  Biso   1.000  C
  C874     1.0000 0.91950  0.80408  0.77206  Biso   1.000  C
  C875     1.0000 0.88868  0.83482  0.76962  Biso   1.000  C
  C876     1.0000 0.89311  0.86733  0.74257  Biso   1.000  C
  C877     1.0000 0.92734  0.86700  0.71842  Biso   1.000  C
  C878     1.0000 0.95703  0.83473  0.72231  Biso   1.000  C
  C879     1.0000 0.96168  0.76062  0.70440  Biso   1.000  C
  C880     1.0000 0.95672  0.76570  0.67448  Biso   1.000  C
  C881     1.0000 0.98542  0.76746  0.64206  Biso   1.000  C
  C882     1.0000 0.01851  0.76263  0.64159  Biso   1.000  C
  C883     1.0000 0.02128  0.75720  0.67322  Biso   1.000  C
  C884     1.0000 0.05038  0.76330  0.60810  Biso   1.000  C
  C885     1.0000 0.54027  0.16391  0.52609  Biso   1.000  C
  C886     1.0000 0.29568  0.55472  0.44760  Biso   1.000  C
  C887     1.0000 0.26741  0.29183  0.52913  Biso   1.000  C
  C888     1.0000 0.26595  0.31767  0.53799  Biso   1.000  C
  C889     1.0000 0.23250  0.34348  0.54908  Biso   1.000  C
  C890     1.0000 0.20188  0.34130  0.55064  Biso   1.000  C
  C891     1.0000 0.20669  0.31505  0.53935  Biso   1.000  C
  C892     1.0000 0.45844  0.20612  0.51462  Biso   1.000  C
  C893     1.0000 0.42759  0.20091  0.52131  Biso   1.000  C
  C894     1.0000 0.39504  0.22894  0.52492  Biso   1.000  C
  C895     1.0000 0.39392  0.26150  0.52230  Biso   1.000  C
  C896     1.0000 0.42595  0.26451  0.51605  Biso   1.000  C
  C897     1.0000 0.36022  0.29338  0.52386  Biso   1.000  C
  C898     1.0000 0.33285  0.35319  0.51733  Biso   1.000  C
  C899     1.0000 0.30011  0.31945  0.53261  Biso   1.000  C
  C900     1.0000 0.30408  0.41950  0.50436  Biso   1.000  C
  C901     1.0000 0.33482  0.38868  0.50688  Biso   1.000  C
  C902     1.0000 0.36733  0.39311  0.49699  Biso   1.000  C
  C903     1.0000 0.36700  0.42734  0.48724  Biso   1.000  C
  C904     1.0000 0.33473  0.45703  0.48593  Biso   1.000  C
  C905     1.0000 0.26062  0.46168  0.57330  Biso   1.000  C
  C906     1.0000 0.26570  0.45672  0.60310  Biso   1.000  C
  C907     1.0000 0.26746  0.48542  0.60506  Biso   1.000  C
  C908     1.0000 0.26263  0.51851  0.57727  Biso   1.000  C
  C909     1.0000 0.25720  0.52128  0.54830  Biso   1.000  C
  C910     1.0000 0.26330  0.55038  0.57822  Biso   1.000  C
  C911     1.0000 0.02609  0.76973  0.04027  Biso   1.000  C
  C912     1.0000 0.94760  0.70200  0.79568  Biso   1.000  C
  C913     1.0000 0.02913  0.91163  0.76741  Biso   1.000  C
  C914     1.0000 0.03799  0.87839  0.76595  Biso   1.000  C
  C915     1.0000 0.04908  0.87494  0.73250  Biso   1.000  C
  C916     1.0000 0.05064  0.90618  0.70188  Biso   1.000  C
  C917     1.0000 0.03935  0.93891  0.70669  Biso   1.000  C
  C918     1.0000 0.01462  0.82082  0.95844  Biso   1.000  C
  C919     1.0000 0.02131  0.85019  0.92759  Biso   1.000  C
  C920     1.0000 0.02492  0.85110  0.89504  Biso   1.000  C
  C921     1.0000 0.02230  0.82228  0.89392  Biso   1.000  C
  C922     1.0000 0.01605  0.79349  0.92595  Biso   1.000  C
  C923     1.0000 0.02386  0.82254  0.86022  Biso   1.000  C
  C924     1.0000 0.01733  0.79663  0.83285  Biso   1.000  C
  C925     1.0000 0.03261  0.84783  0.80011  Biso   1.000  C
  C926     1.0000 0.00436  0.77206  0.80408  Biso   1.000  C
  C927     1.0000 0.00688  0.76962  0.83482  Biso   1.000  C
  C928     1.0000 0.99699  0.74257  0.86733  Biso   1.000  C
  C929     1.0000 0.98724  0.71842  0.86700  Biso   1.000  C
  C930     1.0000 0.98593  0.72231  0.83473  Biso   1.000  C
  C931     1.0000 0.07330  0.70440  0.76062  Biso   1.000  C
  C932     1.0000 0.10310  0.67448  0.76570  Biso   1.000  C
  C933     1.0000 0.10506  0.64206  0.76746  Biso   1.000  C
  C934     1.0000 0.07727  0.64159  0.76263  Biso   1.000  C
  C935     1.0000 0.04830  0.67322  0.75720  Biso   1.000  C
  C936     1.0000 0.07822  0.60810  0.76330  Biso   1.000  C
  C937     1.0000 0.83609  0.73027  0.45973  Biso   1.000  C
  C938     1.0000 0.44528  0.79800  0.70432  Biso   1.000  C
  C939     1.0000 0.70817  0.58837  0.73259  Biso   1.000  C
  C940     1.0000 0.68233  0.62161  0.73405  Biso   1.000  C
  C941     1.0000 0.65652  0.62506  0.76750  Biso   1.000  C
  C942     1.0000 0.65870  0.59382  0.79812  Biso   1.000  C
  C943     1.0000 0.68495  0.56109  0.79331  Biso   1.000  C
  C944     1.0000 0.79388  0.67918  0.54156  Biso   1.000  C
  C945     1.0000 0.79909  0.64981  0.57241  Biso   1.000  C
  C946     1.0000 0.77106  0.64890  0.60496  Biso   1.000  C
  C947     1.0000 0.73850  0.67772  0.60608  Biso   1.000  C
  C948     1.0000 0.73549  0.70651  0.57405  Biso   1.000  C
  C949     1.0000 0.70662  0.67746  0.63978  Biso   1.000  C
  C950     1.0000 0.64681  0.70337  0.66715  Biso   1.000  C
  C951     1.0000 0.68055  0.65217  0.69989  Biso   1.000  C
  C952     1.0000 0.58050  0.72794  0.69592  Biso   1.000  C
  C953     1.0000 0.61132  0.73038  0.66518  Biso   1.000  C
  C954     1.0000 0.60689  0.75743  0.63267  Biso   1.000  C
  C955     1.0000 0.57266  0.78158  0.63300  Biso   1.000  C
  C956     1.0000 0.54297  0.77769  0.66527  Biso   1.000  C
  C957     1.0000 0.53832  0.79560  0.73938  Biso   1.000  C
  C958     1.0000 0.54328  0.82552  0.73430  Biso   1.000  C
  C959     1.0000 0.51458  0.85794  0.73254  Biso   1.000  C
  C960     1.0000 0.48149  0.85841  0.73737  Biso   1.000  C
  C961     1.0000 0.47872  0.82678  0.74280  Biso   1.000  C
  C962     1.0000 0.44962  0.89190  0.73670  Biso   1.000  C
  C963     1.0000 0.23027  0.33609  0.97391  Biso   1.000  C
  C964     1.0000 0.29800  0.94528  0.05240  Biso   1.000  C
  C965     1.0000 0.08837  0.20817  0.97087  Biso   1.000  C
  C966     1.0000 0.12161  0.18233  0.96201  Biso   1.000  C
  C967     1.0000 0.12506  0.15652  0.95092  Biso   1.000  C
  C968     1.0000 0.09382  0.15870  0.94936  Biso   1.000  C
  C969     1.0000 0.06109  0.18495  0.96065  Biso   1.000  C
  C970     1.0000 0.17918  0.29388  0.98538  Biso   1.000  C
  C971     1.0000 0.14981  0.29909  0.97869  Biso   1.000  C
  C972     1.0000 0.14890  0.27106  0.97508  Biso   1.000  C
  C973     1.0000 0.17772  0.23850  0.97770  Biso   1.000  C
  C974     1.0000 0.20651  0.23549  0.98395  Biso   1.000  C
  C975     1.0000 0.17746  0.20662  0.97614  Biso   1.000  C
  C976     1.0000 0.20337  0.14681  0.98267  Biso   1.000  C
  C977     1.0000 0.15217  0.18055  0.96739  Biso   1.000  C
  C978     1.0000 0.22794  0.08050  0.99564  Biso   1.000  C
  C979     1.0000 0.23038  0.11132  0.99312  Biso   1.000  C
  C980     1.0000 0.25743  0.10689  0.00301  Biso   1.000  C
  C981     1.0000 0.28158  0.07266  0.01276  Biso   1.000  C
  C982     1.0000 0.27769  0.04297  0.01407  Biso   1.000  C
  C983     1.0000 0.29560  0.03832  0.92670  Biso   1.000  C
  C984     1.0000 0.32552  0.04328  0.89690  Biso   1.000  C
  C985     1.0000 0.35794  0.01458  0.89494  Biso   1.000  C
  C986     1.0000 0.35841  0.98149  0.92273  Biso   1.000  C
  C987     1.0000 0.32678  0.97872  0.95170  Biso   1.000  C
  C988     1.0000 0.39190  0.94962  0.92178  Biso   1.000  C
  C989     1.0000 0.47391  0.45973  0.73027  Biso   1.000  C
  C990     1.0000 0.55240  0.70432  0.79800  Biso   1.000  C
  C991     1.0000 0.47087  0.73259  0.58837  Biso   1.000  C
  C992     1.0000 0.46201  0.73405  0.62161  Biso   1.000  C
  C993     1.0000 0.45092  0.76750  0.62506  Biso   1.000  C
  C994     1.0000 0.44936  0.79812  0.59382  Biso   1.000  C
  C995     1.0000 0.46065  0.79331  0.56109  Biso   1.000  C
  C996     1.0000 0.48538  0.54156  0.67918  Biso   1.000  C
  C997     1.0000 0.47869  0.57241  0.64981  Biso   1.000  C
  C998     1.0000 0.47508  0.60496  0.64890  Biso   1.000  C
  C999     1.0000 0.47770  0.60608  0.67772  Biso   1.000  C
  C1000    1.0000 0.48395  0.57405  0.70651  Biso   1.000  C
  C1001    1.0000 0.47614  0.63978  0.67746  Biso   1.000  C
  C1002    1.0000 0.48267  0.66715  0.70337  Biso   1.000  C
  C1003    1.0000 0.46739  0.69989  0.65217  Biso   1.000  C
  C1004    1.0000 0.49564  0.69592  0.72794  Biso   1.000  C
  C1005    1.0000 0.49312  0.66518  0.73038  Biso   1.000  C
  C1006    1.0000 0.50301  0.63267  0.75743  Biso   1.000  C
  C1007    1.0000 0.51276  0.63300  0.78158  Biso   1.000  C
  C1008    1.0000 0.51407  0.66527  0.77769  Biso   1.000  C
  C1009    1.0000 0.42670  0.73938  0.79560  Biso   1.000  C
  C1010    1.0000 0.39690  0.73430  0.82552  Biso   1.000  C
  C1011    1.0000 0.39494  0.73254  0.85794  Biso   1.000  C
  C1012    1.0000 0.42273  0.73737  0.85841  Biso   1.000  C
  C1013    1.0000 0.45170  0.74280  0.82678  Biso   1.000  C
  C1014    1.0000 0.42178  0.73670  0.89190  Biso   1.000  C
  C1015    1.0000 0.95973  0.97391  0.33609  Biso   1.000  C
  C1016    1.0000 0.20432  0.05240  0.94528  Biso   1.000  C
  C1017    1.0000 0.23259  0.97087  0.20817  Biso   1.000  C
  C1018    1.0000 0.23405  0.96201  0.18233  Biso   1.000  C
  C1019    1.0000 0.26750  0.95092  0.15652  Biso   1.000  C
  C1020    1.0000 0.29812  0.94936  0.15870  Biso   1.000  C
  C1021    1.0000 0.29331  0.96065  0.18495  Biso   1.000  C
  C1022    1.0000 0.04156  0.98538  0.29388  Biso   1.000  C
  C1023    1.0000 0.07241  0.97869  0.29909  Biso   1.000  C
  C1024    1.0000 0.10496  0.97508  0.27106  Biso   1.000  C
  C1025    1.0000 0.10608  0.97770  0.23850  Biso   1.000  C
  C1026    1.0000 0.07405  0.98395  0.23549  Biso   1.000  C
  C1027    1.0000 0.13978  0.97614  0.20662  Biso   1.000  C
  C1028    1.0000 0.16715  0.98267  0.14681  Biso   1.000  C
  C1029    1.0000 0.19989  0.96739  0.18055  Biso   1.000  C
  C1030    1.0000 0.19592  0.99564  0.08050  Biso   1.000  C
  C1031    1.0000 0.16518  0.99312  0.11132  Biso   1.000  C
  C1032    1.0000 0.13267  0.00301  0.10689  Biso   1.000  C
  C1033    1.0000 0.13300  0.01276  0.07266  Biso   1.000  C
  C1034    1.0000 0.16527  0.01407  0.04297  Biso   1.000  C
  C1035    1.0000 0.23938  0.92670  0.03832  Biso   1.000  C
  C1036    1.0000 0.23430  0.89690  0.04328  Biso   1.000  C
  C1037    1.0000 0.23254  0.89494  0.01458  Biso   1.000  C
  C1038    1.0000 0.23737  0.92273  0.98149  Biso   1.000  C
  C1039    1.0000 0.24280  0.95170  0.97872  Biso   1.000  C
  C1040    1.0000 0.23670  0.92178  0.94962  Biso   1.000  C
  C1041    1.0000 0.95973  0.73027  0.97391  Biso   1.000  C
  C1042    1.0000 0.20432  0.79800  0.05240  Biso   1.000  C
  C1043    1.0000 0.23259  0.58837  0.97087  Biso   1.000  C
  C1044    1.0000 0.23405  0.62161  0.96201  Biso   1.000  C
  C1045    1.0000 0.26750  0.62506  0.95092  Biso   1.000  C
  C1046    1.0000 0.29812  0.59382  0.94936  Biso   1.000  C
  C1047    1.0000 0.29331  0.56109  0.96065  Biso   1.000  C
  C1048    1.0000 0.04156  0.67918  0.98538  Biso   1.000  C
  C1049    1.0000 0.07241  0.64981  0.97869  Biso   1.000  C
  C1050    1.0000 0.10496  0.64890  0.97508  Biso   1.000  C
  C1051    1.0000 0.10608  0.67772  0.97770  Biso   1.000  C
  C1052    1.0000 0.07405  0.70651  0.98395  Biso   1.000  C
  C1053    1.0000 0.13978  0.67746  0.97614  Biso   1.000  C
  C1054    1.0000 0.16715  0.70337  0.98267  Biso   1.000  C
  C1055    1.0000 0.19989  0.65217  0.96739  Biso   1.000  C
  C1056    1.0000 0.19592  0.72794  0.99564  Biso   1.000  C
  C1057    1.0000 0.16518  0.73038  0.99312  Biso   1.000  C
  C1058    1.0000 0.13267  0.75743  0.00301  Biso   1.000  C
  C1059    1.0000 0.13300  0.78158  0.01276  Biso   1.000  C
  C1060    1.0000 0.16527  0.77769  0.01407  Biso   1.000  C
  C1061    1.0000 0.23938  0.79560  0.92670  Biso   1.000  C
  C1062    1.0000 0.23430  0.82552  0.89690  Biso   1.000  C
  C1063    1.0000 0.23254  0.85794  0.89494  Biso   1.000  C
  C1064    1.0000 0.23737  0.85841  0.92273  Biso   1.000  C
  C1065    1.0000 0.24280  0.82678  0.95170  Biso   1.000  C
  C1066    1.0000 0.23670  0.89190  0.92178  Biso   1.000  C
  C1067    1.0000 0.47391  0.33609  0.45973  Biso   1.000  C
  C1068    1.0000 0.55240  0.94528  0.70432  Biso   1.000  C
  C1069    1.0000 0.47087  0.20817  0.73259  Biso   1.000  C
  C1070    1.0000 0.46201  0.18233  0.73405  Biso   1.000  C
  C1071    1.0000 0.45092  0.15652  0.76750  Biso   1.000  C
  C1072    1.0000 0.44936  0.15870  0.79812  Biso   1.000  C
  C1073    1.0000 0.46065  0.18495  0.79331  Biso   1.000  C
  C1074    1.0000 0.48538  0.29388  0.54156  Biso   1.000  C
  C1075    1.0000 0.47869  0.29909  0.57241  Biso   1.000  C
  C1076    1.0000 0.47508  0.27106  0.60496  Biso   1.000  C
  C1077    1.0000 0.47770  0.23850  0.60608  Biso   1.000  C
  C1078    1.0000 0.48395  0.23549  0.57405  Biso   1.000  C
  C1079    1.0000 0.47614  0.20662  0.63978  Biso   1.000  C
  C1080    1.0000 0.48267  0.14681  0.66715  Biso   1.000  C
  C1081    1.0000 0.46739  0.18055  0.69989  Biso   1.000  C
  C1082    1.0000 0.49564  0.08050  0.69592  Biso   1.000  C
  C1083    1.0000 0.49312  0.11132  0.66518  Biso   1.000  C
  C1084    1.0000 0.50301  0.10689  0.63267  Biso   1.000  C
  C1085    1.0000 0.51276  0.07266  0.63300  Biso   1.000  C
  C1086    1.0000 0.51407  0.04297  0.66527  Biso   1.000  C
  C1087    1.0000 0.42670  0.03832  0.73938  Biso   1.000  C
  C1088    1.0000 0.39690  0.04328  0.73430  Biso   1.000  C
  C1089    1.0000 0.39494  0.01458  0.73254  Biso   1.000  C
  C1090    1.0000 0.42273  0.98149  0.73737  Biso   1.000  C
  C1091    1.0000 0.45170  0.97872  0.74280  Biso   1.000  C
  C1092    1.0000 0.42178  0.94962  0.73670  Biso   1.000  C
  C1093    1.0000 0.23027  0.45973  0.33609  Biso   1.000  C
  C1094    1.0000 0.29800  0.70432  0.94528  Biso   1.000  C
  C1095    1.0000 0.08837  0.73259  0.20817  Biso   1.000  C
  C1096    1.0000 0.12161  0.73405  0.18233  Biso   1.000  C
  C1097    1.0000 0.12506  0.76750  0.15652  Biso   1.000  C
  C1098    1.0000 0.09382  0.79812  0.15870  Biso   1.000  C
  C1099    1.0000 0.06109  0.79331  0.18495  Biso   1.000  C
  C1100    1.0000 0.17918  0.54156  0.29388  Biso   1.000  C
  C1101    1.0000 0.14981  0.57241  0.29909  Biso   1.000  C
  C1102    1.0000 0.14890  0.60496  0.27106  Biso   1.000  C
  C1103    1.0000 0.17772  0.60608  0.23850  Biso   1.000  C
  C1104    1.0000 0.20651  0.57405  0.23549  Biso   1.000  C
  C1105    1.0000 0.17746  0.63978  0.20662  Biso   1.000  C
  C1106    1.0000 0.20337  0.66715  0.14681  Biso   1.000  C
  C1107    1.0000 0.15217  0.69989  0.18055  Biso   1.000  C
  C1108    1.0000 0.22794  0.69592  0.08050  Biso   1.000  C
  C1109    1.0000 0.23038  0.66518  0.11132  Biso   1.000  C
  C1110    1.0000 0.25743  0.63267  0.10689  Biso   1.000  C
  C1111    1.0000 0.28158  0.63300  0.07266  Biso   1.000  C
  C1112    1.0000 0.27769  0.66527  0.04297  Biso   1.000  C
  C1113    1.0000 0.29560  0.73938  0.03832  Biso   1.000  C
  C1114    1.0000 0.32552  0.73430  0.04328  Biso   1.000  C
  C1115    1.0000 0.35794  0.73254  0.01458  Biso   1.000  C
  C1116    1.0000 0.35841  0.73737  0.98149  Biso   1.000  C
  C1117    1.0000 0.32678  0.74280  0.97872  Biso   1.000  C
  C1118    1.0000 0.39190  0.73670  0.94962  Biso   1.000  C
  C1119    1.0000 0.83609  0.97391  0.73027  Biso   1.000  C
  C1120    1.0000 0.44528  0.05240  0.79800  Biso   1.000  C
  C1121    1.0000 0.70817  0.97087  0.58837  Biso   1.000  C
  C1122    1.0000 0.68233  0.96201  0.62161  Biso   1.000  C
  C1123    1.0000 0.65652  0.95092  0.62506  Biso   1.000  C
  C1124    1.0000 0.65870  0.94936  0.59382  Biso   1.000  C
  C1125    1.0000 0.68495  0.96065  0.56109  Biso   1.000  C
  C1126    1.0000 0.79388  0.98538  0.67918  Biso   1.000  C
  C1127    1.0000 0.79909  0.97869  0.64981  Biso   1.000  C
  C1128    1.0000 0.77106  0.97508  0.64890  Biso   1.000  C
  C1129    1.0000 0.73850  0.97770  0.67772  Biso   1.000  C
  C1130    1.0000 0.73549  0.98395  0.70651  Biso   1.000  C
  C1131    1.0000 0.70662  0.97614  0.67746  Biso   1.000  C
  C1132    1.0000 0.64681  0.98267  0.70337  Biso   1.000  C
  C1133    1.0000 0.68055  0.96739  0.65217  Biso   1.000  C
  C1134    1.0000 0.58050  0.99564  0.72794  Biso   1.000  C
  C1135    1.0000 0.61132  0.99312  0.73038  Biso   1.000  C
  C1136    1.0000 0.60689  0.00301  0.75743  Biso   1.000  C
  C1137    1.0000 0.57266  0.01276  0.78158  Biso   1.000  C
  C1138    1.0000 0.54297  0.01407  0.77769  Biso   1.000  C
  C1139    1.0000 0.53832  0.92670  0.79560  Biso   1.000  C
  C1140    1.0000 0.54328  0.89690  0.82552  Biso   1.000  C
  C1141    1.0000 0.51458  0.89494  0.85794  Biso   1.000  C
  C1142    1.0000 0.48149  0.92273  0.85841  Biso   1.000  C
  C1143    1.0000 0.47872  0.95170  0.82678  Biso   1.000  C
  C1144    1.0000 0.44962  0.92178  0.89190  Biso   1.000  C
  C1145    1.0000 0.47391  0.73027  0.33609  Biso   1.000  C
  C1146    1.0000 0.55240  0.79800  0.94528  Biso   1.000  C
  C1147    1.0000 0.47087  0.58837  0.20817  Biso   1.000  C
  C1148    1.0000 0.46201  0.62161  0.18233  Biso   1.000  C
  C1149    1.0000 0.45092  0.62506  0.15652  Biso   1.000  C
  C1150    1.0000 0.44936  0.59382  0.15870  Biso   1.000  C
  C1151    1.0000 0.46065  0.56109  0.18495  Biso   1.000  C
  C1152    1.0000 0.48538  0.67918  0.29388  Biso   1.000  C
  C1153    1.0000 0.47869  0.64981  0.29909  Biso   1.000  C
  C1154    1.0000 0.47508  0.64890  0.27106  Biso   1.000  C
  C1155    1.0000 0.47770  0.67772  0.23850  Biso   1.000  C
  C1156    1.0000 0.48395  0.70651  0.23549  Biso   1.000  C
  C1157    1.0000 0.47614  0.67746  0.20662  Biso   1.000  C
  C1158    1.0000 0.48267  0.70337  0.14681  Biso   1.000  C
  C1159    1.0000 0.46739  0.65217  0.18055  Biso   1.000  C
  C1160    1.0000 0.49564  0.72794  0.08050  Biso   1.000  C
  C1161    1.0000 0.49312  0.73038  0.11132  Biso   1.000  C
  C1162    1.0000 0.50301  0.75743  0.10689  Biso   1.000  C
  C1163    1.0000 0.51276  0.78158  0.07266  Biso   1.000  C
  C1164    1.0000 0.51407  0.77769  0.04297  Biso   1.000  C
  C1165    1.0000 0.42670  0.79560  0.03832  Biso   1.000  C
  C1166    1.0000 0.39690  0.82552  0.04328  Biso   1.000  C
  C1167    1.0000 0.39494  0.85794  0.01458  Biso   1.000  C
  C1168    1.0000 0.42273  0.85841  0.98149  Biso   1.000  C
  C1169    1.0000 0.45170  0.82678  0.97872  Biso   1.000  C
  C1170    1.0000 0.42178  0.89190  0.94962  Biso   1.000  C
  C1171    1.0000 0.95973  0.33609  0.73027  Biso   1.000  C
  C1172    1.0000 0.20432  0.94528  0.79800  Biso   1.000  C
  C1173    1.0000 0.23259  0.20817  0.58837  Biso   1.000  C
  C1174    1.0000 0.23405  0.18233  0.62161  Biso   1.000  C
  C1175    1.0000 0.26750  0.15652  0.62506  Biso   1.000  C
  C1176    1.0000 0.29812  0.15870  0.59382  Biso   1.000  C
  C1177    1.0000 0.29331  0.18495  0.56109  Biso   1.000  C
  C1178    1.0000 0.04156  0.29388  0.67918  Biso   1.000  C
  C1179    1.0000 0.07241  0.29909  0.64981  Biso   1.000  C
  C1180    1.0000 0.10496  0.27106  0.64890  Biso   1.000  C
  C1181    1.0000 0.10608  0.23850  0.67772  Biso   1.000  C
  C1182    1.0000 0.07405  0.23549  0.70651  Biso   1.000  C
  C1183    1.0000 0.13978  0.20662  0.67746  Biso   1.000  C
  C1184    1.0000 0.16715  0.14681  0.70337  Biso   1.000  C
  C1185    1.0000 0.19989  0.18055  0.65217  Biso   1.000  C
  C1186    1.0000 0.19592  0.08050  0.72794  Biso   1.000  C
  C1187    1.0000 0.16518  0.11132  0.73038  Biso   1.000  C
  C1188    1.0000 0.13267  0.10689  0.75743  Biso   1.000  C
  C1189    1.0000 0.13300  0.07266  0.78158  Biso   1.000  C
  C1190    1.0000 0.16527  0.04297  0.77769  Biso   1.000  C
  C1191    1.0000 0.23938  0.03832  0.79560  Biso   1.000  C
  C1192    1.0000 0.23430  0.04328  0.82552  Biso   1.000  C
  C1193    1.0000 0.23254  0.01458  0.85794  Biso   1.000  C
  C1194    1.0000 0.23737  0.98149  0.85841  Biso   1.000  C
  C1195    1.0000 0.24280  0.97872  0.82678  Biso   1.000  C
  C1196    1.0000 0.23670  0.94962  0.89190  Biso   1.000  C
  C1197    1.0000 0.83609  0.45973  0.97391  Biso   1.000  C
  C1198    1.0000 0.44528  0.70432  0.05240  Biso   1.000  C
  C1199    1.0000 0.70817  0.73259  0.97087  Biso   1.000  C
  C1200    1.0000 0.68233  0.73405  0.96201  Biso   1.000  C
  C1201    1.0000 0.65652  0.76750  0.95092  Biso   1.000  C
  C1202    1.0000 0.65870  0.79812  0.94936  Biso   1.000  C
  C1203    1.0000 0.68495  0.79331  0.96065  Biso   1.000  C
  C1204    1.0000 0.79388  0.54156  0.98538  Biso   1.000  C
  C1205    1.0000 0.79909  0.57241  0.97869  Biso   1.000  C
  C1206    1.0000 0.77106  0.60496  0.97508  Biso   1.000  C
  C1207    1.0000 0.73850  0.60608  0.97770  Biso   1.000  C
  C1208    1.0000 0.73549  0.57405  0.98395  Biso   1.000  C
  C1209    1.0000 0.70662  0.63978  0.97614  Biso   1.000  C
  C1210    1.0000 0.64681  0.66715  0.98267  Biso   1.000  C
  C1211    1.0000 0.68055  0.69989  0.96739  Biso   1.000  C
  C1212    1.0000 0.58050  0.69592  0.99564  Biso   1.000  C
  C1213    1.0000 0.61132  0.66518  0.99312  Biso   1.000  C
  C1214    1.0000 0.60689  0.63267  0.00301  Biso   1.000  C
  C1215    1.0000 0.57266  0.63300  0.01276  Biso   1.000  C
  C1216    1.0000 0.54297  0.66527  0.01407  Biso   1.000  C
  C1217    1.0000 0.53832  0.73938  0.92670  Biso   1.000  C
  C1218    1.0000 0.54328  0.73430  0.89690  Biso   1.000  C
  C1219    1.0000 0.51458  0.73254  0.89494  Biso   1.000  C
  C1220    1.0000 0.48149  0.73737  0.92273  Biso   1.000  C
  C1221    1.0000 0.47872  0.74280  0.95170  Biso   1.000  C
  C1222    1.0000 0.44962  0.73670  0.92178  Biso   1.000  C
  C1223    1.0000 0.23027  0.97391  0.45973  Biso   1.000  C
  C1224    1.0000 0.29800  0.05240  0.70432  Biso   1.000  C
  C1225    1.0000 0.08837  0.97087  0.73259  Biso   1.000  C
  C1226    1.0000 0.12161  0.96201  0.73405  Biso   1.000  C
  C1227    1.0000 0.12506  0.95092  0.76750  Biso   1.000  C
  C1228    1.0000 0.09382  0.94936  0.79812  Biso   1.000  C
  C1229    1.0000 0.06109  0.96065  0.79331  Biso   1.000  C
  C1230    1.0000 0.17918  0.98538  0.54156  Biso   1.000  C
  C1231    1.0000 0.14981  0.97869  0.57241  Biso   1.000  C
  C1232    1.0000 0.14890  0.97508  0.60496  Biso   1.000  C
  C1233    1.0000 0.17772  0.97770  0.60608  Biso   1.000  C
  C1234    1.0000 0.20651  0.98395  0.57405  Biso   1.000  C
  C1235    1.0000 0.17746  0.97614  0.63978  Biso   1.000  C
  C1236    1.0000 0.20337  0.98267  0.66715  Biso   1.000  C
  C1237    1.0000 0.15217  0.96739  0.69989  Biso   1.000  C
  C1238    1.0000 0.22794  0.99564  0.69592  Biso   1.000  C
  C1239    1.0000 0.23038  0.99312  0.66518  Biso   1.000  C
  C1240    1.0000 0.25743  0.00301  0.63267  Biso   1.000  C
  C1241    1.0000 0.28158  0.01276  0.63300  Biso   1.000  C
  C1242    1.0000 0.27769  0.01407  0.66527  Biso   1.000  C
  C1243    1.0000 0.29560  0.92670  0.73938  Biso   1.000  C
  C1244    1.0000 0.32552  0.89690  0.73430  Biso   1.000  C
  C1245    1.0000 0.35794  0.89494  0.73254  Biso   1.000  C
  C1246    1.0000 0.35841  0.92273  0.73737  Biso   1.000  C
  C1247    1.0000 0.32678  0.95170  0.74280  Biso   1.000  C
  C1248    1.0000 0.39190  0.92178  0.73670  Biso   1.000  C
  S1       1.0000 0.70900  0.87964  0.94636  Biso   1.000  S
  S2       1.0000 0.82409  0.41441  0.18455  Biso   1.000  S
  S3       1.0000 0.37964  0.20900  0.46500  Biso   1.000  S
  S4       1.0000 0.91441  0.32409  0.57695  Biso   1.000  S
  S5       1.0000 0.44636  0.46500  0.20900  Biso   1.000  S
  S6       1.0000 0.68455  0.57695  0.32409  Biso   1.000  S
  S7       1.0000 0.96500  0.94636  0.87964  Biso   1.000  S
  S8       1.0000 0.07695  0.18455  0.41441  Biso   1.000  S
  S9       1.0000 0.70900  0.94636  0.46500  Biso   1.000  S
  S10      1.0000 0.82409  0.18455  0.57695  Biso   1.000  S
  S11      1.0000 0.37964  0.46500  0.94636  Biso   1.000  S
  S12      1.0000 0.91441  0.57695  0.18455  Biso   1.000  S
  S13      1.0000 0.44636  0.20900  0.87964  Biso   1.000  S
  S14      1.0000 0.68455  0.32409  0.41441  Biso   1.000  S
  S15      1.0000 0.96500  0.87964  0.20900  Biso   1.000  S
  S16      1.0000 0.07695  0.41441  0.32409  Biso   1.000  S
  S17      1.0000 0.70900  0.46500  0.87964  Biso   1.000  S
  S18      1.0000 0.82409  0.57695  0.41441  Biso   1.000  S
  S19      1.0000 0.37964  0.94636  0.20900  Biso   1.000  S
  S20      1.0000 0.91441  0.18455  0.32409  Biso   1.000  S
  S21      1.0000 0.44636  0.87964  0.46500  Biso   1.000  S
  S22      1.0000 0.68455  0.41441  0.57695  Biso   1.000  S
  S23      1.0000 0.96500  0.20900  0.94636  Biso   1.000  S
  S24      1.0000 0.07695  0.32409  0.18455  Biso   1.000  S
  S25      1.0000 0.12036  0.29100  0.55364  Biso   1.000  S
  S26      1.0000 0.58559  0.17591  0.31545  Biso   1.000  S
  S27      1.0000 0.79100  0.62036  0.03500  Biso   1.000  S
  S28      1.0000 0.67591  0.08559  0.92305  Biso   1.000  S
  S29      1.0000 0.53500  0.55364  0.29100  Biso   1.000  S
  S30      1.0000 0.42305  0.31545  0.17591  Biso   1.000  S
  S31      1.0000 0.05364  0.03500  0.62036  Biso   1.000  S
  S32      1.0000 0.81545  0.92305  0.08559  Biso   1.000  S
  S33      1.0000 0.05364  0.29100  0.03500  Biso   1.000  S
  S34      1.0000 0.81545  0.17591  0.92305  Biso   1.000  S
  S35      1.0000 0.53500  0.62036  0.55364  Biso   1.000  S
  S36      1.0000 0.42305  0.08559  0.31545  Biso   1.000  S
  S37      1.0000 0.79100  0.55364  0.62036  Biso   1.000  S
  S38      1.0000 0.67591  0.31545  0.08559  Biso   1.000  S
  S39      1.0000 0.12036  0.03500  0.29100  Biso   1.000  S
  S40      1.0000 0.58559  0.92305  0.17591  Biso   1.000  S
  S41      1.0000 0.53500  0.29100  0.62036  Biso   1.000  S
  S42      1.0000 0.42305  0.17591  0.08559  Biso   1.000  S
  S43      1.0000 0.05364  0.62036  0.29100  Biso   1.000  S
  S44      1.0000 0.81545  0.08559  0.17591  Biso   1.000  S
  S45      1.0000 0.12036  0.55364  0.03500  Biso   1.000  S
  S46      1.0000 0.58559  0.31545  0.92305  Biso   1.000  S
  S47      1.0000 0.79100  0.03500  0.55364  Biso   1.000  S
  S48      1.0000 0.67591  0.92305  0.31545  Biso   1.000  S
  S49      1.0000 0.29100  0.12036  0.05364  Biso   1.000  S
  S50      1.0000 0.17591  0.58559  0.81545  Biso   1.000  S
  S51      1.0000 0.62036  0.79100  0.53500  Biso   1.000  S
  S52      1.0000 0.08559  0.67591  0.42305  Biso   1.000  S
  S53      1.0000 0.55364  0.53500  0.79100  Biso   1.000  S
  S54      1.0000 0.31545  0.42305  0.67591  Biso   1.000  S
  S55      1.0000 0.03500  0.05364  0.12036  Biso   1.000  S
  S56      1.0000 0.92305  0.81545  0.58559  Biso   1.000  S
  S57      1.0000 0.29100  0.05364  0.53500  Biso   1.000  S
  S58      1.0000 0.17591  0.81545  0.42305  Biso   1.000  S
  S59      1.0000 0.62036  0.53500  0.05364  Biso   1.000  S
  S60      1.0000 0.08559  0.42305  0.81545  Biso   1.000  S
  S61      1.0000 0.55364  0.79100  0.12036  Biso   1.000  S
  S62      1.0000 0.31545  0.67591  0.58559  Biso   1.000  S
  S63      1.0000 0.03500  0.12036  0.79100  Biso   1.000  S
  S64      1.0000 0.92305  0.58559  0.67591  Biso   1.000  S
  S65      1.0000 0.29100  0.53500  0.12036  Biso   1.000  S
  S66      1.0000 0.17591  0.42305  0.58559  Biso   1.000  S
  S67      1.0000 0.62036  0.05364  0.79100  Biso   1.000  S
  S68      1.0000 0.08559  0.81545  0.67591  Biso   1.000  S
  S69      1.0000 0.55364  0.12036  0.53500  Biso   1.000  S
  S70      1.0000 0.31545  0.58559  0.42305  Biso   1.000  S
  S71      1.0000 0.03500  0.79100  0.05364  Biso   1.000  S
  S72      1.0000 0.92305  0.67591  0.81545  Biso   1.000  S
  S73      1.0000 0.87964  0.70900  0.44636  Biso   1.000  S
  S74      1.0000 0.41441  0.82409  0.68455  Biso   1.000  S
  S75      1.0000 0.20900  0.37964  0.96500  Biso   1.000  S
  S76      1.0000 0.32409  0.91441  0.07695  Biso   1.000  S
  S77      1.0000 0.46500  0.44636  0.70900  Biso   1.000  S
  S78      1.0000 0.57695  0.68455  0.82409  Biso   1.000  S
  S79      1.0000 0.94636  0.96500  0.37964  Biso   1.000  S
  S80      1.0000 0.18455  0.07695  0.91441  Biso   1.000  S
  S81      1.0000 0.94636  0.70900  0.96500  Biso   1.000  S
  S82      1.0000 0.18455  0.82409  0.07695  Biso   1.000  S
  S83      1.0000 0.46500  0.37964  0.44636  Biso   1.000  S
  S84      1.0000 0.57695  0.91441  0.68455  Biso   1.000  S
  S85      1.0000 0.20900  0.44636  0.37964  Biso   1.000  S
  S86      1.0000 0.32409  0.68455  0.91441  Biso   1.000  S
  S87      1.0000 0.87964  0.96500  0.70900  Biso   1.000  S
  S88      1.0000 0.41441  0.07695  0.82409  Biso   1.000  S
  S89      1.0000 0.46500  0.70900  0.37964  Biso   1.000  S
  S90      1.0000 0.57695  0.82409  0.91441  Biso   1.000  S
  S91      1.0000 0.94636  0.37964  0.70900  Biso   1.000  S
  S92      1.0000 0.18455  0.91441  0.82409  Biso   1.000  S
  S93      1.0000 0.87964  0.44636  0.96500  Biso   1.000  S
  S94      1.0000 0.41441  0.68455  0.07695  Biso   1.000  S
  S95      1.0000 0.20900  0.96500  0.44636  Biso   1.000  S
  S96      1.0000 0.32409  0.07695  0.68455  Biso   1.000  S
  N1       1.0000 0.74474  0.80480  0.96910  Biso   1.000  N
  N2       1.0000 0.77926  0.46660  0.21832  Biso   1.000  N
  N3       1.0000 0.55763  0.70961  0.26135  Biso   1.000  N
  N4       1.0000 0.70740  0.76240  0.04184  Biso   1.000  N
  N5       1.0000 0.70441  0.67511  0.13667  Biso   1.000  N
  N6       1.0000 0.65077  0.71085  0.17041  Biso   1.000  N
  N7       1.0000 0.67845  0.64809  0.20035  Biso   1.000  N
  N8       1.0000 0.75111  0.54729  0.19661  Biso   1.000  N
  N9       1.0000 0.79545  0.50639  0.24407  Biso   1.000  N
  N10      1.0000 0.91999  0.45197  0.23675  Biso   1.000  N
  N11      1.0000 0.30480  0.24474  0.48136  Biso   1.000  N
  N12      1.0000 0.96660  0.27926  0.53582  Biso   1.000  N
  N13      1.0000 0.20961  0.05763  0.47141  Biso   1.000  N
  N14      1.0000 0.26240  0.20740  0.48836  Biso   1.000  N
  N15      1.0000 0.17511  0.20441  0.48381  Biso   1.000  N
  N16      1.0000 0.21085  0.15077  0.46797  Biso   1.000  N
  N17      1.0000 0.14809  0.17845  0.47311  Biso   1.000  N
  N18      1.0000 0.04729  0.25111  0.50499  Biso   1.000  N
  N19      1.0000 0.00639  0.29545  0.45409  Biso   1.000  N
  N20      1.0000 0.95197  0.41999  0.39129  Biso   1.000  N
  N21      1.0000 0.46910  0.48136  0.24474  Biso   1.000  N
  N22      1.0000 0.71832  0.53582  0.27926  Biso   1.000  N
  N23      1.0000 0.76135  0.47141  0.05763  Biso   1.000  N
  N24      1.0000 0.54184  0.48836  0.20740  Biso   1.000  N
  N25      1.0000 0.63667  0.48381  0.20441  Biso   1.000  N
  N26      1.0000 0.67041  0.46797  0.15077  Biso   1.000  N
  N27      1.0000 0.70035  0.47311  0.17845  Biso   1.000  N
  N28      1.0000 0.69661  0.50499  0.25111  Biso   1.000  N
  N29      1.0000 0.74407  0.45409  0.29545  Biso   1.000  N
  N30      1.0000 0.73675  0.39129  0.41999  Biso   1.000  N
  N31      1.0000 0.98136  0.96910  0.80480  Biso   1.000  N
  N32      1.0000 0.03582  0.21832  0.46660  Biso   1.000  N
  N33      1.0000 0.97141  0.26135  0.70961  Biso   1.000  N
  N34      1.0000 0.98836  0.04184  0.76240  Biso   1.000  N
  N35      1.0000 0.98381  0.13667  0.67511  Biso   1.000  N
  N36      1.0000 0.96797  0.17041  0.71085  Biso   1.000  N
  N37      1.0000 0.97311  0.20035  0.64809  Biso   1.000  N
  N38      1.0000 0.00499  0.19661  0.54729  Biso   1.000  N
  N39      1.0000 0.95409  0.24407  0.50639  Biso   1.000  N
  N40      1.0000 0.89129  0.23675  0.45197  Biso   1.000  N
  N41      1.0000 0.74474  0.96910  0.48136  Biso   1.000  N
  N42      1.0000 0.77926  0.21832  0.53582  Biso   1.000  N
  N43      1.0000 0.55763  0.26135  0.47141  Biso   1.000  N
  N44      1.0000 0.70740  0.04184  0.48836  Biso   1.000  N
  N45      1.0000 0.70441  0.13667  0.48381  Biso   1.000  N
  N46      1.0000 0.65077  0.17041  0.46797  Biso   1.000  N
  N47      1.0000 0.67845  0.20035  0.47311  Biso   1.000  N
  N48      1.0000 0.75111  0.19661  0.50499  Biso   1.000  N
  N49      1.0000 0.79545  0.24407  0.45409  Biso   1.000  N
  N50      1.0000 0.91999  0.23675  0.39129  Biso   1.000  N
  N51      1.0000 0.30480  0.48136  0.96910  Biso   1.000  N
  N52      1.0000 0.96660  0.53582  0.21832  Biso   1.000  N
  N53      1.0000 0.20961  0.47141  0.26135  Biso   1.000  N
  N54      1.0000 0.26240  0.48836  0.04184  Biso   1.000  N
  N55      1.0000 0.17511  0.48381  0.13667  Biso   1.000  N
  N56      1.0000 0.21085  0.46797  0.17041  Biso   1.000  N
  N57      1.0000 0.14809  0.47311  0.20035  Biso   1.000  N
  N58      1.0000 0.04729  0.50499  0.19661  Biso   1.000  N
  N59      1.0000 0.00639  0.45409  0.24407  Biso   1.000  N
  N60      1.0000 0.95197  0.39129  0.23675  Biso   1.000  N
  N61      1.0000 0.46910  0.24474  0.80480  Biso   1.000  N
  N62      1.0000 0.71832  0.27926  0.46660  Biso   1.000  N
  N63      1.0000 0.76135  0.05763  0.70961  Biso   1.000  N
  N64      1.0000 0.54184  0.20740  0.76240  Biso   1.000  N
  N65      1.0000 0.63667  0.20441  0.67511  Biso   1.000  N
  N66      1.0000 0.67041  0.15077  0.71085  Biso   1.000  N
  N67      1.0000 0.70035  0.17845  0.64809  Biso   1.000  N
  N68      1.0000 0.69661  0.25111  0.54729  Biso   1.000  N
  N69      1.0000 0.74407  0.29545  0.50639  Biso   1.000  N
  N70      1.0000 0.73675  0.41999  0.45197  Biso   1.000  N
  N71      1.0000 0.98136  0.80480  0.24474  Biso   1.000  N
  N72      1.0000 0.03582  0.46660  0.27926  Biso   1.000  N
  N73      1.0000 0.97141  0.70961  0.05763  Biso   1.000  N
  N74      1.0000 0.98836  0.76240  0.20740  Biso   1.000  N
  N75      1.0000 0.98381  0.67511  0.20441  Biso   1.000  N
  N76      1.0000 0.96797  0.71085  0.15077  Biso   1.000  N
  N77      1.0000 0.97311  0.64809  0.17845  Biso   1.000  N
  N78      1.0000 0.00499  0.54729  0.25111  Biso   1.000  N
  N79      1.0000 0.95409  0.50639  0.29545  Biso   1.000  N
  N80      1.0000 0.89129  0.45197  0.41999  Biso   1.000  N
  N81      1.0000 0.74474  0.48136  0.80480  Biso   1.000  N
  N82      1.0000 0.77926  0.53582  0.46660  Biso   1.000  N
  N83      1.0000 0.55763  0.47141  0.70961  Biso   1.000  N
  N84      1.0000 0.70740  0.48836  0.76240  Biso   1.000  N
  N85      1.0000 0.70441  0.48381  0.67511  Biso   1.000  N
  N86      1.0000 0.65077  0.46797  0.71085  Biso   1.000  N
  N87      1.0000 0.67845  0.47311  0.64809  Biso   1.000  N
  N88      1.0000 0.75111  0.50499  0.54729  Biso   1.000  N
  N89      1.0000 0.79545  0.45409  0.50639  Biso   1.000  N
  N90      1.0000 0.91999  0.39129  0.45197  Biso   1.000  N
  N91      1.0000 0.30480  0.96910  0.24474  Biso   1.000  N
  N92      1.0000 0.96660  0.21832  0.27926  Biso   1.000  N
  N93      1.0000 0.20961  0.26135  0.05763  Biso   1.000  N
  N94      1.0000 0.26240  0.04184  0.20740  Biso   1.000  N
  N95      1.0000 0.17511  0.13667  0.20441  Biso   1.000  N
  N96      1.0000 0.21085  0.17041  0.15077  Biso   1.000  N
  N97      1.0000 0.14809  0.20035  0.17845  Biso   1.000  N
  N98      1.0000 0.04729  0.19661  0.25111  Biso   1.000  N
  N99      1.0000 0.00639  0.24407  0.29545  Biso   1.000  N
  N100     1.0000 0.95197  0.23675  0.41999  Biso   1.000  N
  N101     1.0000 0.46910  0.80480  0.48136  Biso   1.000  N
  N102     1.0000 0.71832  0.46660  0.53582  Biso   1.000  N
  N103     1.0000 0.76135  0.70961  0.47141  Biso   1.000  N
  N104     1.0000 0.54184  0.76240  0.48836  Biso   1.000  N
  N105     1.0000 0.63667  0.67511  0.48381  Biso   1.000  N
  N106     1.0000 0.67041  0.71085  0.46797  Biso   1.000  N
  N107     1.0000 0.70035  0.64809  0.47311  Biso   1.000  N
  N108     1.0000 0.69661  0.54729  0.50499  Biso   1.000  N
  N109     1.0000 0.74407  0.50639  0.45409  Biso   1.000  N
  N110     1.0000 0.73675  0.45197  0.39129  Biso   1.000  N
  N111     1.0000 0.98136  0.24474  0.96910  Biso   1.000  N
  N112     1.0000 0.03582  0.27926  0.21832  Biso   1.000  N
  N113     1.0000 0.97141  0.05763  0.26135  Biso   1.000  N
  N114     1.0000 0.98836  0.20740  0.04184  Biso   1.000  N
  N115     1.0000 0.98381  0.20441  0.13667  Biso   1.000  N
  N116     1.0000 0.96797  0.15077  0.17041  Biso   1.000  N
  N117     1.0000 0.97311  0.17845  0.20035  Biso   1.000  N
  N118     1.0000 0.00499  0.25111  0.19661  Biso   1.000  N
  N119     1.0000 0.95409  0.29545  0.24407  Biso   1.000  N
  N120     1.0000 0.89129  0.41999  0.23675  Biso   1.000  N
  N121     1.0000 0.19520  0.25526  0.53090  Biso   1.000  N
  N122     1.0000 0.53340  0.22074  0.28168  Biso   1.000  N
  N123     1.0000 0.29039  0.44237  0.23865  Biso   1.000  N
  N124     1.0000 0.23760  0.29260  0.45816  Biso   1.000  N
  N125     1.0000 0.32489  0.29559  0.36333  Biso   1.000  N
  N126     1.0000 0.28915  0.34923  0.32959  Biso   1.000  N
  N127     1.0000 0.35191  0.32155  0.29965  Biso   1.000  N
  N128     1.0000 0.45271  0.24889  0.30339  Biso   1.000  N
  N129     1.0000 0.49361  0.20455  0.25593  Biso   1.000  N
  N130     1.0000 0.54803  0.08001  0.26325  Biso   1.000  N
  N131     1.0000 0.75526  0.69520  0.01864  Biso   1.000  N
  N132     1.0000 0.72074  0.03340  0.96418  Biso   1.000  N
  N133     1.0000 0.94237  0.79039  0.02859  Biso   1.000  N
  N134     1.0000 0.79260  0.73760  0.01164  Biso   1.000  N
  N135     1.0000 0.79559  0.82489  0.01619  Biso   1.000  N
  N136     1.0000 0.84923  0.78915  0.03203  Biso   1.000  N
  N137     1.0000 0.82155  0.85191  0.02689  Biso   1.000  N
  N138     1.0000 0.74889  0.95271  0.99501  Biso   1.000  N
  N139     1.0000 0.70455  0.99361  0.04591  Biso   1.000  N
  N140     1.0000 0.58001  0.04803  0.10871  Biso   1.000  N
  N141     1.0000 0.51864  0.53090  0.25526  Biso   1.000  N
  N142     1.0000 0.46418  0.28168  0.22074  Biso   1.000  N
  N143     1.0000 0.52859  0.23865  0.44237  Biso   1.000  N
  N144     1.0000 0.51164  0.45816  0.29260  Biso   1.000  N
  N145     1.0000 0.51619  0.36333  0.29559  Biso   1.000  N
  N146     1.0000 0.53203  0.32959  0.34923  Biso   1.000  N
  N147     1.0000 0.52689  0.29965  0.32155  Biso   1.000  N
  N148     1.0000 0.49501  0.30339  0.24889  Biso   1.000  N
  N149     1.0000 0.54591  0.25593  0.20455  Biso   1.000  N
  N150     1.0000 0.60871  0.26325  0.08001  Biso   1.000  N
  N151     1.0000 0.03090  0.01864  0.69520  Biso   1.000  N
  N152     1.0000 0.78168  0.96418  0.03340  Biso   1.000  N
  N153     1.0000 0.73865  0.02859  0.79039  Biso   1.000  N
  N154     1.0000 0.95816  0.01164  0.73760  Biso   1.000  N
  N155     1.0000 0.86333  0.01619  0.82489  Biso   1.000  N
  N156     1.0000 0.82959  0.03203  0.78915  Biso   1.000  N
  N157     1.0000 0.79965  0.02689  0.85191  Biso   1.000  N
  N158     1.0000 0.80339  0.99501  0.95271  Biso   1.000  N
  N159     1.0000 0.75593  0.04591  0.99361  Biso   1.000  N
  N160     1.0000 0.76325  0.10871  0.04803  Biso   1.000  N
  N161     1.0000 0.03090  0.25526  0.01864  Biso   1.000  N
  N162     1.0000 0.78168  0.22074  0.96418  Biso   1.000  N
  N163     1.0000 0.73865  0.44237  0.02859  Biso   1.000  N
  N164     1.0000 0.95816  0.29260  0.01164  Biso   1.000  N
  N165     1.0000 0.86333  0.29559  0.01619  Biso   1.000  N
  N166     1.0000 0.82959  0.34923  0.03203  Biso   1.000  N
  N167     1.0000 0.79965  0.32155  0.02689  Biso   1.000  N
  N168     1.0000 0.80339  0.24889  0.99501  Biso   1.000  N
  N169     1.0000 0.75593  0.20455  0.04591  Biso   1.000  N
  N170     1.0000 0.76325  0.08001  0.10871  Biso   1.000  N
  N171     1.0000 0.51864  0.69520  0.53090  Biso   1.000  N
  N172     1.0000 0.46418  0.03340  0.28168  Biso   1.000  N
  N173     1.0000 0.52859  0.79039  0.23865  Biso   1.000  N
  N174     1.0000 0.51164  0.73760  0.45816  Biso   1.000  N
  N175     1.0000 0.51619  0.82489  0.36333  Biso   1.000  N
  N176     1.0000 0.53203  0.78915  0.32959  Biso   1.000  N
  N177     1.0000 0.52689  0.85191  0.29965  Biso   1.000  N
  N178     1.0000 0.49501  0.95271  0.30339  Biso   1.000  N
  N179     1.0000 0.54591  0.99361  0.25593  Biso   1.000  N
  N180     1.0000 0.60871  0.04803  0.26325  Biso   1.000  N
  N181     1.0000 0.75526  0.53090  0.69520  Biso   1.000  N
  N182     1.0000 0.72074  0.28168  0.03340  Biso   1.000  N
  N183     1.0000 0.94237  0.23865  0.79039  Biso   1.000  N
  N184     1.0000 0.79260  0.45816  0.73760  Biso   1.000  N
  N185     1.0000 0.79559  0.36333  0.82489  Biso   1.000  N
  N186     1.0000 0.84923  0.32959  0.78915  Biso   1.000  N
  N187     1.0000 0.82155  0.29965  0.85191  Biso   1.000  N
  N188     1.0000 0.74889  0.30339  0.95271  Biso   1.000  N
  N189     1.0000 0.70455  0.25593  0.99361  Biso   1.000  N
  N190     1.0000 0.58001  0.26325  0.04803  Biso   1.000  N
  N191     1.0000 0.19520  0.01864  0.25526  Biso   1.000  N
  N192     1.0000 0.53340  0.96418  0.22074  Biso   1.000  N
  N193     1.0000 0.29039  0.02859  0.44237  Biso   1.000  N
  N194     1.0000 0.23760  0.01164  0.29260  Biso   1.000  N
  N195     1.0000 0.32489  0.01619  0.29559  Biso   1.000  N
  N196     1.0000 0.28915  0.03203  0.34923  Biso   1.000  N
  N197     1.0000 0.35191  0.02689  0.32155  Biso   1.000  N
  N198     1.0000 0.45271  0.99501  0.24889  Biso   1.000  N
  N199     1.0000 0.49361  0.04591  0.20455  Biso   1.000  N
  N200     1.0000 0.54803  0.10871  0.08001  Biso   1.000  N
  N201     1.0000 0.51864  0.25526  0.69520  Biso   1.000  N
  N202     1.0000 0.46418  0.22074  0.03340  Biso   1.000  N
  N203     1.0000 0.52859  0.44237  0.79039  Biso   1.000  N
  N204     1.0000 0.51164  0.29260  0.73760  Biso   1.000  N
  N205     1.0000 0.51619  0.29559  0.82489  Biso   1.000  N
  N206     1.0000 0.53203  0.34923  0.78915  Biso   1.000  N
  N207     1.0000 0.52689  0.32155  0.85191  Biso   1.000  N
  N208     1.0000 0.49501  0.24889  0.95271  Biso   1.000  N
  N209     1.0000 0.54591  0.20455  0.99361  Biso   1.000  N
  N210     1.0000 0.60871  0.08001  0.04803  Biso   1.000  N
  N211     1.0000 0.03090  0.69520  0.25526  Biso   1.000  N
  N212     1.0000 0.78168  0.03340  0.22074  Biso   1.000  N
  N213     1.0000 0.73865  0.79039  0.44237  Biso   1.000  N
  N214     1.0000 0.95816  0.73760  0.29260  Biso   1.000  N
  N215     1.0000 0.86333  0.82489  0.29559  Biso   1.000  N
  N216     1.0000 0.82959  0.78915  0.34923  Biso   1.000  N
  N217     1.0000 0.79965  0.85191  0.32155  Biso   1.000  N
  N218     1.0000 0.80339  0.95271  0.24889  Biso   1.000  N
  N219     1.0000 0.75593  0.99361  0.20455  Biso   1.000  N
  N220     1.0000 0.76325  0.04803  0.08001  Biso   1.000  N
  N221     1.0000 0.19520  0.53090  0.01864  Biso   1.000  N
  N222     1.0000 0.53340  0.28168  0.96418  Biso   1.000  N
  N223     1.0000 0.29039  0.23865  0.02859  Biso   1.000  N
  N224     1.0000 0.23760  0.45816  0.01164  Biso   1.000  N
  N225     1.0000 0.32489  0.36333  0.01619  Biso   1.000  N
  N226     1.0000 0.28915  0.32959  0.03203  Biso   1.000  N
  N227     1.0000 0.35191  0.29965  0.02689  Biso   1.000  N
  N228     1.0000 0.45271  0.30339  0.99501  Biso   1.000  N
  N229     1.0000 0.49361  0.25593  0.04591  Biso   1.000  N
  N230     1.0000 0.54803  0.26325  0.10871  Biso   1.000  N
  N231     1.0000 0.75526  0.01864  0.53090  Biso   1.000  N
  N232     1.0000 0.72074  0.96418  0.28168  Biso   1.000  N
  N233     1.0000 0.94237  0.02859  0.23865  Biso   1.000  N
  N234     1.0000 0.79260  0.01164  0.45816  Biso   1.000  N
  N235     1.0000 0.79559  0.01619  0.36333  Biso   1.000  N
  N236     1.0000 0.84923  0.03203  0.32959  Biso   1.000  N
  N237     1.0000 0.82155  0.02689  0.29965  Biso   1.000  N
  N238     1.0000 0.74889  0.99501  0.30339  Biso   1.000  N
  N239     1.0000 0.70455  0.04591  0.25593  Biso   1.000  N
  N240     1.0000 0.58001  0.10871  0.26325  Biso   1.000  N
  N241     1.0000 0.25526  0.19520  0.03090  Biso   1.000  N
  N242     1.0000 0.22074  0.53340  0.78168  Biso   1.000  N
  N243     1.0000 0.44237  0.29039  0.73865  Biso   1.000  N
  N244     1.0000 0.29260  0.23760  0.95816  Biso   1.000  N
  N245     1.0000 0.29559  0.32489  0.86333  Biso   1.000  N
  N246     1.0000 0.34923  0.28915  0.82959  Biso   1.000  N
  N247     1.0000 0.32155  0.35191  0.79965  Biso   1.000  N
  N248     1.0000 0.24889  0.45271  0.80339  Biso   1.000  N
  N249     1.0000 0.20455  0.49361  0.75593  Biso   1.000  N
  N250     1.0000 0.08001  0.54803  0.76325  Biso   1.000  N
  N251     1.0000 0.69520  0.75526  0.51864  Biso   1.000  N
  N252     1.0000 0.03340  0.72074  0.46418  Biso   1.000  N
  N253     1.0000 0.79039  0.94237  0.52859  Biso   1.000  N
  N254     1.0000 0.73760  0.79260  0.51164  Biso   1.000  N
  N255     1.0000 0.82489  0.79559  0.51619  Biso   1.000  N
  N256     1.0000 0.78915  0.84923  0.53203  Biso   1.000  N
  N257     1.0000 0.85191  0.82155  0.52689  Biso   1.000  N
  N258     1.0000 0.95271  0.74889  0.49501  Biso   1.000  N
  N259     1.0000 0.99361  0.70455  0.54591  Biso   1.000  N
  N260     1.0000 0.04803  0.58001  0.60871  Biso   1.000  N
  N261     1.0000 0.53090  0.51864  0.75526  Biso   1.000  N
  N262     1.0000 0.28168  0.46418  0.72074  Biso   1.000  N
  N263     1.0000 0.23865  0.52859  0.94237  Biso   1.000  N
  N264     1.0000 0.45816  0.51164  0.79260  Biso   1.000  N
  N265     1.0000 0.36333  0.51619  0.79559  Biso   1.000  N
  N266     1.0000 0.32959  0.53203  0.84923  Biso   1.000  N
  N267     1.0000 0.29965  0.52689  0.82155  Biso   1.000  N
  N268     1.0000 0.30339  0.49501  0.74889  Biso   1.000  N
  N269     1.0000 0.25593  0.54591  0.70455  Biso   1.000  N
  N270     1.0000 0.26325  0.60871  0.58001  Biso   1.000  N
  N271     1.0000 0.01864  0.03090  0.19520  Biso   1.000  N
  N272     1.0000 0.96418  0.78168  0.53340  Biso   1.000  N
  N273     1.0000 0.02859  0.73865  0.29039  Biso   1.000  N
  N274     1.0000 0.01164  0.95816  0.23760  Biso   1.000  N
  N275     1.0000 0.01619  0.86333  0.32489  Biso   1.000  N
  N276     1.0000 0.03203  0.82959  0.28915  Biso   1.000  N
  N277     1.0000 0.02689  0.79965  0.35191  Biso   1.000  N
  N278     1.0000 0.99501  0.80339  0.45271  Biso   1.000  N
  N279     1.0000 0.04591  0.75593  0.49361  Biso   1.000  N
  N280     1.0000 0.10871  0.76325  0.54803  Biso   1.000  N
  N281     1.0000 0.25526  0.03090  0.51864  Biso   1.000  N
  N282     1.0000 0.22074  0.78168  0.46418  Biso   1.000  N
  N283     1.0000 0.44237  0.73865  0.52859  Biso   1.000  N
  N284     1.0000 0.29260  0.95816  0.51164  Biso   1.000  N
  N285     1.0000 0.29559  0.86333  0.51619  Biso   1.000  N
  N286     1.0000 0.34923  0.82959  0.53203  Biso   1.000  N
  N287     1.0000 0.32155  0.79965  0.52689  Biso   1.000  N
  N288     1.0000 0.24889  0.80339  0.49501  Biso   1.000  N
  N289     1.0000 0.20455  0.75593  0.54591  Biso   1.000  N
  N290     1.0000 0.08001  0.76325  0.60871  Biso   1.000  N
  N291     1.0000 0.69520  0.51864  0.03090  Biso   1.000  N
  N292     1.0000 0.03340  0.46418  0.78168  Biso   1.000  N
  N293     1.0000 0.79039  0.52859  0.73865  Biso   1.000  N
  N294     1.0000 0.73760  0.51164  0.95816  Biso   1.000  N
  N295     1.0000 0.82489  0.51619  0.86333  Biso   1.000  N
  N296     1.0000 0.78915  0.53203  0.82959  Biso   1.000  N
  N297     1.0000 0.85191  0.52689  0.79965  Biso   1.000  N
  N298     1.0000 0.95271  0.49501  0.80339  Biso   1.000  N
  N299     1.0000 0.99361  0.54591  0.75593  Biso   1.000  N
  N300     1.0000 0.04803  0.60871  0.76325  Biso   1.000  N
  N301     1.0000 0.53090  0.75526  0.19520  Biso   1.000  N
  N302     1.0000 0.28168  0.72074  0.53340  Biso   1.000  N
  N303     1.0000 0.23865  0.94237  0.29039  Biso   1.000  N
  N304     1.0000 0.45816  0.79260  0.23760  Biso   1.000  N
  N305     1.0000 0.36333  0.79559  0.32489  Biso   1.000  N
  N306     1.0000 0.32959  0.84923  0.28915  Biso   1.000  N
  N307     1.0000 0.29965  0.82155  0.35191  Biso   1.000  N
  N308     1.0000 0.30339  0.74889  0.45271  Biso   1.000  N
  N309     1.0000 0.25593  0.70455  0.49361  Biso   1.000  N
  N310     1.0000 0.26325  0.58001  0.54803  Biso   1.000  N
  N311     1.0000 0.01864  0.19520  0.75526  Biso   1.000  N
  N312     1.0000 0.96418  0.53340  0.72074  Biso   1.000  N
  N313     1.0000 0.02859  0.29039  0.94237  Biso   1.000  N
  N314     1.0000 0.01164  0.23760  0.79260  Biso   1.000  N
  N315     1.0000 0.01619  0.32489  0.79559  Biso   1.000  N
  N316     1.0000 0.03203  0.28915  0.84923  Biso   1.000  N
  N317     1.0000 0.02689  0.35191  0.82155  Biso   1.000  N
  N318     1.0000 0.99501  0.45271  0.74889  Biso   1.000  N
  N319     1.0000 0.04591  0.49361  0.70455  Biso   1.000  N
  N320     1.0000 0.10871  0.54803  0.58001  Biso   1.000  N
  N321     1.0000 0.25526  0.51864  0.19520  Biso   1.000  N
  N322     1.0000 0.22074  0.46418  0.53340  Biso   1.000  N
  N323     1.0000 0.44237  0.52859  0.29039  Biso   1.000  N
  N324     1.0000 0.29260  0.51164  0.23760  Biso   1.000  N
  N325     1.0000 0.29559  0.51619  0.32489  Biso   1.000  N
  N326     1.0000 0.34923  0.53203  0.28915  Biso   1.000  N
  N327     1.0000 0.32155  0.52689  0.35191  Biso   1.000  N
  N328     1.0000 0.24889  0.49501  0.45271  Biso   1.000  N
  N329     1.0000 0.20455  0.54591  0.49361  Biso   1.000  N
  N330     1.0000 0.08001  0.60871  0.54803  Biso   1.000  N
  N331     1.0000 0.69520  0.03090  0.75526  Biso   1.000  N
  N332     1.0000 0.03340  0.78168  0.72074  Biso   1.000  N
  N333     1.0000 0.79039  0.73865  0.94237  Biso   1.000  N
  N334     1.0000 0.73760  0.95816  0.79260  Biso   1.000  N
  N335     1.0000 0.82489  0.86333  0.79559  Biso   1.000  N
  N336     1.0000 0.78915  0.82959  0.84923  Biso   1.000  N
  N337     1.0000 0.85191  0.79965  0.82155  Biso   1.000  N
  N338     1.0000 0.95271  0.80339  0.74889  Biso   1.000  N
  N339     1.0000 0.99361  0.75593  0.70455  Biso   1.000  N
  N340     1.0000 0.04803  0.76325  0.58001  Biso   1.000  N
  N341     1.0000 0.53090  0.19520  0.51864  Biso   1.000  N
  N342     1.0000 0.28168  0.53340  0.46418  Biso   1.000  N
  N343     1.0000 0.23865  0.29039  0.52859  Biso   1.000  N
  N344     1.0000 0.45816  0.23760  0.51164  Biso   1.000  N
  N345     1.0000 0.36333  0.32489  0.51619  Biso   1.000  N
  N346     1.0000 0.32959  0.28915  0.53203  Biso   1.000  N
  N347     1.0000 0.29965  0.35191  0.52689  Biso   1.000  N
  N348     1.0000 0.30339  0.45271  0.49501  Biso   1.000  N
  N349     1.0000 0.25593  0.49361  0.54591  Biso   1.000  N
  N350     1.0000 0.26325  0.54803  0.60871  Biso   1.000  N
  N351     1.0000 0.01864  0.75526  0.03090  Biso   1.000  N
  N352     1.0000 0.96418  0.72074  0.78168  Biso   1.000  N
  N353     1.0000 0.02859  0.94237  0.73865  Biso   1.000  N
  N354     1.0000 0.01164  0.79260  0.95816  Biso   1.000  N
  N355     1.0000 0.01619  0.79559  0.86333  Biso   1.000  N
  N356     1.0000 0.03203  0.84923  0.82959  Biso   1.000  N
  N357     1.0000 0.02689  0.82155  0.79965  Biso   1.000  N
  N358     1.0000 0.99501  0.74889  0.80339  Biso   1.000  N
  N359     1.0000 0.04591  0.70455  0.75593  Biso   1.000  N
  N360     1.0000 0.10871  0.58001  0.76325  Biso   1.000  N
  N361     1.0000 0.80480  0.74474  0.46910  Biso   1.000  N
  N362     1.0000 0.46660  0.77926  0.71832  Biso   1.000  N
  N363     1.0000 0.70961  0.55763  0.76135  Biso   1.000  N
  N364     1.0000 0.76240  0.70740  0.54184  Biso   1.000  N
  N365     1.0000 0.67511  0.70441  0.63667  Biso   1.000  N
  N366     1.0000 0.71085  0.65077  0.67041  Biso   1.000  N
  N367     1.0000 0.64809  0.67845  0.70035  Biso   1.000  N
  N368     1.0000 0.54729  0.75111  0.69661  Biso   1.000  N
  N369     1.0000 0.50639  0.79545  0.74407  Biso   1.000  N
  N370     1.0000 0.45197  0.91999  0.73675  Biso   1.000  N
  N371     1.0000 0.24474  0.30480  0.98136  Biso   1.000  N
  N372     1.0000 0.27926  0.96660  0.03582  Biso   1.000  N
  N373     1.0000 0.05763  0.20961  0.97141  Biso   1.000  N
  N374     1.0000 0.20740  0.26240  0.98836  Biso   1.000  N
  N375     1.0000 0.20441  0.17511  0.98381  Biso   1.000  N
  N376     1.0000 0.15077  0.21085  0.96797  Biso   1.000  N
  N377     1.0000 0.17845  0.14809  0.97311  Biso   1.000  N
  N378     1.0000 0.25111  0.04729  0.00499  Biso   1.000  N
  N379     1.0000 0.29545  0.00639  0.95409  Biso   1.000  N
  N380     1.0000 0.41999  0.95197  0.89129  Biso   1.000  N
  N381     1.0000 0.48136  0.46910  0.74474  Biso   1.000  N
  N382     1.0000 0.53582  0.71832  0.77926  Biso   1.000  N
  N383     1.0000 0.47141  0.76135  0.55763  Biso   1.000  N
  N384     1.0000 0.48836  0.54184  0.70740  Biso   1.000  N
  N385     1.0000 0.48381  0.63667  0.70441  Biso   1.000  N
  N386     1.0000 0.46797  0.67041  0.65077  Biso   1.000  N
  N387     1.0000 0.47311  0.70035  0.67845  Biso   1.000  N
  N388     1.0000 0.50499  0.69661  0.75111  Biso   1.000  N
  N389     1.0000 0.45409  0.74407  0.79545  Biso   1.000  N
  N390     1.0000 0.39129  0.73675  0.91999  Biso   1.000  N
  N391     1.0000 0.96910  0.98136  0.30480  Biso   1.000  N
  N392     1.0000 0.21832  0.03582  0.96660  Biso   1.000  N
  N393     1.0000 0.26135  0.97141  0.20961  Biso   1.000  N
  N394     1.0000 0.04184  0.98836  0.26240  Biso   1.000  N
  N395     1.0000 0.13667  0.98381  0.17511  Biso   1.000  N
  N396     1.0000 0.17041  0.96797  0.21085  Biso   1.000  N
  N397     1.0000 0.20035  0.97311  0.14809  Biso   1.000  N
  N398     1.0000 0.19661  0.00499  0.04729  Biso   1.000  N
  N399     1.0000 0.24407  0.95409  0.00639  Biso   1.000  N
  N400     1.0000 0.23675  0.89129  0.95197  Biso   1.000  N
  N401     1.0000 0.96910  0.74474  0.98136  Biso   1.000  N
  N402     1.0000 0.21832  0.77926  0.03582  Biso   1.000  N
  N403     1.0000 0.26135  0.55763  0.97141  Biso   1.000  N
  N404     1.0000 0.04184  0.70740  0.98836  Biso   1.000  N
  N405     1.0000 0.13667  0.70441  0.98381  Biso   1.000  N
  N406     1.0000 0.17041  0.65077  0.96797  Biso   1.000  N
  N407     1.0000 0.20035  0.67845  0.97311  Biso   1.000  N
  N408     1.0000 0.19661  0.75111  0.00499  Biso   1.000  N
  N409     1.0000 0.24407  0.79545  0.95409  Biso   1.000  N
  N410     1.0000 0.23675  0.91999  0.89129  Biso   1.000  N
  N411     1.0000 0.48136  0.30480  0.46910  Biso   1.000  N
  N412     1.0000 0.53582  0.96660  0.71832  Biso   1.000  N
  N413     1.0000 0.47141  0.20961  0.76135  Biso   1.000  N
  N414     1.0000 0.48836  0.26240  0.54184  Biso   1.000  N
  N415     1.0000 0.48381  0.17511  0.63667  Biso   1.000  N
  N416     1.0000 0.46797  0.21085  0.67041  Biso   1.000  N
  N417     1.0000 0.47311  0.14809  0.70035  Biso   1.000  N
  N418     1.0000 0.50499  0.04729  0.69661  Biso   1.000  N
  N419     1.0000 0.45409  0.00639  0.74407  Biso   1.000  N
  N420     1.0000 0.39129  0.95197  0.73675  Biso   1.000  N
  N421     1.0000 0.24474  0.46910  0.30480  Biso   1.000  N
  N422     1.0000 0.27926  0.71832  0.96660  Biso   1.000  N
  N423     1.0000 0.05763  0.76135  0.20961  Biso   1.000  N
  N424     1.0000 0.20740  0.54184  0.26240  Biso   1.000  N
  N425     1.0000 0.20441  0.63667  0.17511  Biso   1.000  N
  N426     1.0000 0.15077  0.67041  0.21085  Biso   1.000  N
  N427     1.0000 0.17845  0.70035  0.14809  Biso   1.000  N
  N428     1.0000 0.25111  0.69661  0.04729  Biso   1.000  N
  N429     1.0000 0.29545  0.74407  0.00639  Biso   1.000  N
  N430     1.0000 0.41999  0.73675  0.95197  Biso   1.000  N
  N431     1.0000 0.80480  0.98136  0.74474  Biso   1.000  N
  N432     1.0000 0.46660  0.03582  0.77926  Biso   1.000  N
  N433     1.0000 0.70961  0.97141  0.55763  Biso   1.000  N
  N434     1.0000 0.76240  0.98836  0.70740  Biso   1.000  N
  N435     1.0000 0.67511  0.98381  0.70441  Biso   1.000  N
  N436     1.0000 0.71085  0.96797  0.65077  Biso   1.000  N
  N437     1.0000 0.64809  0.97311  0.67845  Biso   1.000  N
  N438     1.0000 0.54729  0.00499  0.75111  Biso   1.000  N
  N439     1.0000 0.50639  0.95409  0.79545  Biso   1.000  N
  N440     1.0000 0.45197  0.89129  0.91999  Biso   1.000  N
  N441     1.0000 0.48136  0.74474  0.30480  Biso   1.000  N
  N442     1.0000 0.53582  0.77926  0.96660  Biso   1.000  N
  N443     1.0000 0.47141  0.55763  0.20961  Biso   1.000  N
  N444     1.0000 0.48836  0.70740  0.26240  Biso   1.000  N
  N445     1.0000 0.48381  0.70441  0.17511  Biso   1.000  N
  N446     1.0000 0.46797  0.65077  0.21085  Biso   1.000  N
  N447     1.0000 0.47311  0.67845  0.14809  Biso   1.000  N
  N448     1.0000 0.50499  0.75111  0.04729  Biso   1.000  N
  N449     1.0000 0.45409  0.79545  0.00639  Biso   1.000  N
  N450     1.0000 0.39129  0.91999  0.95197  Biso   1.000  N
  N451     1.0000 0.96910  0.30480  0.74474  Biso   1.000  N
  N452     1.0000 0.21832  0.96660  0.77926  Biso   1.000  N
  N453     1.0000 0.26135  0.20961  0.55763  Biso   1.000  N
  N454     1.0000 0.04184  0.26240  0.70740  Biso   1.000  N
  N455     1.0000 0.13667  0.17511  0.70441  Biso   1.000  N
  N456     1.0000 0.17041  0.21085  0.65077  Biso   1.000  N
  N457     1.0000 0.20035  0.14809  0.67845  Biso   1.000  N
  N458     1.0000 0.19661  0.04729  0.75111  Biso   1.000  N
  N459     1.0000 0.24407  0.00639  0.79545  Biso   1.000  N
  N460     1.0000 0.23675  0.95197  0.91999  Biso   1.000  N
  N461     1.0000 0.80480  0.46910  0.98136  Biso   1.000  N
  N462     1.0000 0.46660  0.71832  0.03582  Biso   1.000  N
  N463     1.0000 0.70961  0.76135  0.97141  Biso   1.000  N
  N464     1.0000 0.76240  0.54184  0.98836  Biso   1.000  N
  N465     1.0000 0.67511  0.63667  0.98381  Biso   1.000  N
  N466     1.0000 0.71085  0.67041  0.96797  Biso   1.000  N
  N467     1.0000 0.64809  0.70035  0.97311  Biso   1.000  N
  N468     1.0000 0.54729  0.69661  0.00499  Biso   1.000  N
  N469     1.0000 0.50639  0.74407  0.95409  Biso   1.000  N
  N470     1.0000 0.45197  0.73675  0.89129  Biso   1.000  N
  N471     1.0000 0.24474  0.98136  0.46910  Biso   1.000  N
  N472     1.0000 0.27926  0.03582  0.71832  Biso   1.000  N
  N473     1.0000 0.05763  0.97141  0.76135  Biso   1.000  N
  N474     1.0000 0.20740  0.98836  0.54184  Biso   1.000  N
  N475     1.0000 0.20441  0.98381  0.63667  Biso   1.000  N
  N476     1.0000 0.15077  0.96797  0.67041  Biso   1.000  N
  N477     1.0000 0.17845  0.97311  0.70035  Biso   1.000  N
  N478     1.0000 0.25111  0.00499  0.69661  Biso   1.000  N
  N479     1.0000 0.29545  0.95409  0.74407  Biso   1.000  N
  N480     1.0000 0.41999  0.89129  0.73675  Biso   1.000  N
