data_image0
_cell_length_a       45.0597
_cell_length_b       45.0597
_cell_length_c       45.0597
_cell_angle_alpha    60
_cell_angle_beta     60
_cell_angle_gamma    60

_symmetry_space_group_name_H-M    P 1
_symmetry_int_tables_number       1

loop_
  _symmetry_equiv_pos_as_xyz
  'x, y, z'

loop_
  _atom_site_label
  _atom_site_occupancy
  _atom_site_fract_x
  _atom_site_fract_y
  _atom_site_fract_z
  _atom_site_thermal_displace_type
  _atom_site_B_iso_or_equiv
  _atom_site_type_symbol
  Co1      1.0000 0.50816  0.25000  0.49184  Biso   1.000  Co
  Co2      1.0000 0.75000  0.00816  0.75000  Biso   1.000  Co
  Co3      1.0000 0.99184  0.75000  0.00816  Biso   1.000  Co
  Co4      1.0000 0.25000  0.49184  0.25000  Biso   1.000  Co
  Co5      1.0000 0.50816  0.49184  0.75000  Biso   1.000  Co
  Co6      1.0000 0.75000  0.75000  0.49184  Biso   1.000  Co
  Co7      1.0000 0.99184  0.00816  0.25000  Biso   1.000  Co
  Co8      1.0000 0.25000  0.25000  0.00816  Biso   1.000  Co
  Co9      1.0000 0.50816  0.75000  0.25000  Biso   1.000  Co
  Co10     1.0000 0.75000  0.49184  0.00816  Biso   1.000  Co
  Co11     1.0000 0.99184  0.25000  0.75000  Biso   1.000  Co
  Co12     1.0000 0.25000  0.00816  0.49184  Biso   1.000  Co
  Co13     1.0000 0.49184  0.75000  0.50816  Biso   1.000  Co
  Co14     1.0000 0.25000  0.99184  0.25000  Biso   1.000  Co
  Co15     1.0000 0.00816  0.25000  0.99184  Biso   1.000  Co
  Co16     1.0000 0.75000  0.50816  0.75000  Biso   1.000  Co
  Co17     1.0000 0.49184  0.50816  0.25000  Biso   1.000  Co
  Co18     1.0000 0.25000  0.25000  0.50816  Biso   1.000  Co
  Co19     1.0000 0.00816  0.99184  0.75000  Biso   1.000  Co
  Co20     1.0000 0.75000  0.75000  0.99184  Biso   1.000  Co
  Co21     1.0000 0.49184  0.25000  0.75000  Biso   1.000  Co
  Co22     1.0000 0.25000  0.50816  0.99184  Biso   1.000  Co
  Co23     1.0000 0.00816  0.75000  0.25000  Biso   1.000  Co
  Co24     1.0000 0.75000  0.99184  0.50816  Biso   1.000  Co
  Co25     1.0000 0.50223  0.00223  0.74777  Biso   1.000  Co
  Co26     1.0000 0.24777  0.74777  0.00223  Biso   1.000  Co
  Co27     1.0000 0.50223  0.74777  0.74777  Biso   1.000  Co
  Co28     1.0000 0.24777  0.00223  0.00223  Biso   1.000  Co
  Co29     1.0000 0.50223  0.74777  0.00223  Biso   1.000  Co
  Co30     1.0000 0.24777  0.00223  0.74777  Biso   1.000  Co
  Co31     1.0000 0.99777  0.49777  0.75223  Biso   1.000  Co
  Co32     1.0000 0.25223  0.75223  0.49777  Biso   1.000  Co
  Co33     1.0000 0.25223  0.49777  0.75223  Biso   1.000  Co
  Co34     1.0000 0.99777  0.75223  0.49777  Biso   1.000  Co
  Co35     1.0000 0.25223  0.49777  0.49777  Biso   1.000  Co
  Co36     1.0000 0.99777  0.75223  0.75223  Biso   1.000  Co
  Co37     1.0000 0.49777  0.99777  0.25223  Biso   1.000  Co
  Co38     1.0000 0.75223  0.25223  0.99777  Biso   1.000  Co
  Co39     1.0000 0.49777  0.25223  0.25223  Biso   1.000  Co
  Co40     1.0000 0.75223  0.99777  0.99777  Biso   1.000  Co
  Co41     1.0000 0.49777  0.25223  0.99777  Biso   1.000  Co
  Co42     1.0000 0.75223  0.99777  0.25223  Biso   1.000  Co
  Co43     1.0000 0.00223  0.50223  0.24777  Biso   1.000  Co
  Co44     1.0000 0.74777  0.24777  0.50223  Biso   1.000  Co
  Co45     1.0000 0.74777  0.50223  0.24777  Biso   1.000  Co
  Co46     1.0000 0.00223  0.24777  0.50223  Biso   1.000  Co
  Co47     1.0000 0.74777  0.50223  0.50223  Biso   1.000  Co
  Co48     1.0000 0.00223  0.24777  0.24777  Biso   1.000  Co
  H1       1.0000 0.45920  0.18540  0.81420  Biso   1.000  H
  H2       1.0000 0.44100  0.14240  0.82040  Biso   1.000  H
  H3       1.0000 0.44770  0.13650  0.76830  Biso   1.000  H
  H4       1.0000 0.47880  0.22520  0.70900  Biso   1.000  H
  H5       1.0000 0.48880  0.31240  0.51900  Biso   1.000  H
  H6       1.0000 0.47820  0.32040  0.57080  Biso   1.000  H
  H7       1.0000 0.47410  0.27210  0.62590  Biso   1.000  H
  H8       1.0000 0.49040  0.21140  0.57340  Biso   1.000  H
  H9       1.0000 0.49280  0.08200  0.71700  Biso   1.000  H
  H10      1.0000 0.50430  0.12530  0.61030  Biso   1.000  H
  H11      1.0000 0.52010  0.06670  0.61150  Biso   1.000  H
  H12      1.0000 0.51920  0.01860  0.66580  Biso   1.000  H
  H13      1.0000 0.55840  0.92880  0.77380  Biso   1.000  H
  H14      1.0000 0.56720  0.88020  0.82520  Biso   1.000  H
  H15      1.0000 0.51810  0.87590  0.88010  Biso   1.000  H
  H16      1.0000 0.45580  0.97100  0.82760  Biso   1.000  H
  H17      1.0000 0.68540  0.95920  0.54120  Biso   1.000  H
  H18      1.0000 0.64240  0.94100  0.59620  Biso   1.000  H
  H19      1.0000 0.63650  0.94770  0.64750  Biso   1.000  H
  H20      1.0000 0.72520  0.97880  0.58700  Biso   1.000  H
  H21      1.0000 0.81240  0.98880  0.67980  Biso   1.000  H
  H22      1.0000 0.82040  0.97820  0.63060  Biso   1.000  H
  H23      1.0000 0.77210  0.97410  0.62790  Biso   1.000  H
  H24      1.0000 0.71140  0.99040  0.72480  Biso   1.000  H
  H25      1.0000 0.58200  0.99280  0.70820  Biso   1.000  H
  H26      1.0000 0.62530  0.00430  0.76010  Biso   1.000  H
  H27      1.0000 0.56670  0.02010  0.80170  Biso   1.000  H
  H28      1.0000 0.51860  0.01920  0.79640  Biso   1.000  H
  H29      1.0000 0.42880  0.05840  0.73900  Biso   1.000  H
  H30      1.0000 0.38020  0.06720  0.72740  Biso   1.000  H
  H31      1.0000 0.37590  0.01810  0.72590  Biso   1.000  H
  H32      1.0000 0.47100  0.95580  0.74560  Biso   1.000  H
  H33      1.0000 0.31420  0.54120  0.95920  Biso   1.000  H
  H34      1.0000 0.32040  0.59620  0.94100  Biso   1.000  H
  H35      1.0000 0.26830  0.64750  0.94770  Biso   1.000  H
  H36      1.0000 0.20900  0.58700  0.97880  Biso   1.000  H
  H37      1.0000 0.01900  0.67980  0.98880  Biso   1.000  H
  H38      1.0000 0.07080  0.63060  0.97820  Biso   1.000  H
  H39      1.0000 0.12590  0.62790  0.97410  Biso   1.000  H
  H40      1.0000 0.07340  0.72480  0.99040  Biso   1.000  H
  H41      1.0000 0.21700  0.70820  0.99280  Biso   1.000  H
  H42      1.0000 0.11030  0.76010  0.00430  Biso   1.000  H
  H43      1.0000 0.11150  0.80170  0.02010  Biso   1.000  H
  H44      1.0000 0.16580  0.79640  0.01920  Biso   1.000  H
  H45      1.0000 0.27380  0.73900  0.05840  Biso   1.000  H
  H46      1.0000 0.32520  0.72740  0.06720  Biso   1.000  H
  H47      1.0000 0.38010  0.72590  0.01810  Biso   1.000  H
  H48      1.0000 0.32760  0.74560  0.95580  Biso   1.000  H
  H49      1.0000 0.04120  0.81420  0.18540  Biso   1.000  H
  H50      1.0000 0.09620  0.82040  0.14240  Biso   1.000  H
  H51      1.0000 0.14750  0.76830  0.13650  Biso   1.000  H
  H52      1.0000 0.08700  0.70900  0.22520  Biso   1.000  H
  H53      1.0000 0.17980  0.51900  0.31240  Biso   1.000  H
  H54      1.0000 0.13060  0.57080  0.32040  Biso   1.000  H
  H55      1.0000 0.12790  0.62590  0.27210  Biso   1.000  H
  H56      1.0000 0.22480  0.57340  0.21140  Biso   1.000  H
  H57      1.0000 0.20820  0.71700  0.08200  Biso   1.000  H
  H58      1.0000 0.26010  0.61030  0.12530  Biso   1.000  H
  H59      1.0000 0.30170  0.61150  0.06670  Biso   1.000  H
  H60      1.0000 0.29640  0.66580  0.01860  Biso   1.000  H
  H61      1.0000 0.23900  0.77380  0.92880  Biso   1.000  H
  H62      1.0000 0.22740  0.82520  0.88020  Biso   1.000  H
  H63      1.0000 0.22590  0.88010  0.87590  Biso   1.000  H
  H64      1.0000 0.24560  0.82760  0.97100  Biso   1.000  H
  H65      1.0000 0.45920  0.81420  0.54120  Biso   1.000  H
  H66      1.0000 0.44100  0.82040  0.59620  Biso   1.000  H
  H67      1.0000 0.44770  0.76830  0.64750  Biso   1.000  H
  H68      1.0000 0.47880  0.70900  0.58700  Biso   1.000  H
  H69      1.0000 0.48880  0.51900  0.67980  Biso   1.000  H
  H70      1.0000 0.47820  0.57080  0.63060  Biso   1.000  H
  H71      1.0000 0.47410  0.62590  0.62790  Biso   1.000  H
  H72      1.0000 0.49040  0.57340  0.72480  Biso   1.000  H
  H73      1.0000 0.49280  0.71700  0.70820  Biso   1.000  H
  H74      1.0000 0.50430  0.61030  0.76010  Biso   1.000  H
  H75      1.0000 0.52010  0.61150  0.80170  Biso   1.000  H
  H76      1.0000 0.51920  0.66580  0.79640  Biso   1.000  H
  H77      1.0000 0.55840  0.77380  0.73900  Biso   1.000  H
  H78      1.0000 0.56720  0.82520  0.72740  Biso   1.000  H
  H79      1.0000 0.51810  0.88010  0.72590  Biso   1.000  H
  H80      1.0000 0.45580  0.82760  0.74560  Biso   1.000  H
  H81      1.0000 0.68540  0.54120  0.81420  Biso   1.000  H
  H82      1.0000 0.64240  0.59620  0.82040  Biso   1.000  H
  H83      1.0000 0.63650  0.64750  0.76830  Biso   1.000  H
  H84      1.0000 0.72520  0.58700  0.70900  Biso   1.000  H
  H85      1.0000 0.81240  0.67980  0.51900  Biso   1.000  H
  H86      1.0000 0.82040  0.63060  0.57080  Biso   1.000  H
  H87      1.0000 0.77210  0.62790  0.62590  Biso   1.000  H
  H88      1.0000 0.71140  0.72480  0.57340  Biso   1.000  H
  H89      1.0000 0.58200  0.70820  0.71700  Biso   1.000  H
  H90      1.0000 0.62530  0.76010  0.61030  Biso   1.000  H
  H91      1.0000 0.56670  0.80170  0.61150  Biso   1.000  H
  H92      1.0000 0.51860  0.79640  0.66580  Biso   1.000  H
  H93      1.0000 0.42880  0.73900  0.77380  Biso   1.000  H
  H94      1.0000 0.38020  0.72740  0.82520  Biso   1.000  H
  H95      1.0000 0.37590  0.72590  0.88010  Biso   1.000  H
  H96      1.0000 0.47100  0.74560  0.82760  Biso   1.000  H
  H97      1.0000 0.31420  0.95920  0.18540  Biso   1.000  H
  H98      1.0000 0.32040  0.94100  0.14240  Biso   1.000  H
  H99      1.0000 0.26830  0.94770  0.13650  Biso   1.000  H
  H100     1.0000 0.20900  0.97880  0.22520  Biso   1.000  H
  H101     1.0000 0.01900  0.98880  0.31240  Biso   1.000  H
  H102     1.0000 0.07080  0.97820  0.32040  Biso   1.000  H
  H103     1.0000 0.12590  0.97410  0.27210  Biso   1.000  H
  H104     1.0000 0.07340  0.99040  0.21140  Biso   1.000  H
  H105     1.0000 0.21700  0.99280  0.08200  Biso   1.000  H
  H106     1.0000 0.11030  0.00430  0.12530  Biso   1.000  H
  H107     1.0000 0.11150  0.02010  0.06670  Biso   1.000  H
  H108     1.0000 0.16580  0.01920  0.01860  Biso   1.000  H
  H109     1.0000 0.27380  0.05840  0.92880  Biso   1.000  H
  H110     1.0000 0.32520  0.06720  0.88020  Biso   1.000  H
  H111     1.0000 0.38010  0.01810  0.87590  Biso   1.000  H
  H112     1.0000 0.32760  0.95580  0.97100  Biso   1.000  H
  H113     1.0000 0.04120  0.18540  0.95920  Biso   1.000  H
  H114     1.0000 0.09620  0.14240  0.94100  Biso   1.000  H
  H115     1.0000 0.14750  0.13650  0.94770  Biso   1.000  H
  H116     1.0000 0.08700  0.22520  0.97880  Biso   1.000  H
  H117     1.0000 0.17980  0.31240  0.98880  Biso   1.000  H
  H118     1.0000 0.13060  0.32040  0.97820  Biso   1.000  H
  H119     1.0000 0.12790  0.27210  0.97410  Biso   1.000  H
  H120     1.0000 0.22480  0.21140  0.99040  Biso   1.000  H
  H121     1.0000 0.20820  0.08200  0.99280  Biso   1.000  H
  H122     1.0000 0.26010  0.12530  0.00430  Biso   1.000  H
  H123     1.0000 0.30170  0.06670  0.02010  Biso   1.000  H
  H124     1.0000 0.29640  0.01860  0.01920  Biso   1.000  H
  H125     1.0000 0.23900  0.92880  0.05840  Biso   1.000  H
  H126     1.0000 0.22740  0.88020  0.06720  Biso   1.000  H
  H127     1.0000 0.22590  0.87590  0.01810  Biso   1.000  H
  H128     1.0000 0.24560  0.97100  0.95580  Biso   1.000  H
  H129     1.0000 0.45920  0.54120  0.18540  Biso   1.000  H
  H130     1.0000 0.44100  0.59620  0.14240  Biso   1.000  H
  H131     1.0000 0.44770  0.64750  0.13650  Biso   1.000  H
  H132     1.0000 0.47880  0.58700  0.22520  Biso   1.000  H
  H133     1.0000 0.48880  0.67980  0.31240  Biso   1.000  H
  H134     1.0000 0.47820  0.63060  0.32040  Biso   1.000  H
  H135     1.0000 0.47410  0.62790  0.27210  Biso   1.000  H
  H136     1.0000 0.49040  0.72480  0.21140  Biso   1.000  H
  H137     1.0000 0.49280  0.70820  0.08200  Biso   1.000  H
  H138     1.0000 0.50430  0.76010  0.12530  Biso   1.000  H
  H139     1.0000 0.52010  0.80170  0.06670  Biso   1.000  H
  H140     1.0000 0.51920  0.79640  0.01860  Biso   1.000  H
  H141     1.0000 0.55840  0.73900  0.92880  Biso   1.000  H
  H142     1.0000 0.56720  0.72740  0.88020  Biso   1.000  H
  H143     1.0000 0.51810  0.72590  0.87590  Biso   1.000  H
  H144     1.0000 0.45580  0.74560  0.97100  Biso   1.000  H
  H145     1.0000 0.68540  0.81420  0.95920  Biso   1.000  H
  H146     1.0000 0.64240  0.82040  0.94100  Biso   1.000  H
  H147     1.0000 0.63650  0.76830  0.94770  Biso   1.000  H
  H148     1.0000 0.72520  0.70900  0.97880  Biso   1.000  H
  H149     1.0000 0.81240  0.51900  0.98880  Biso   1.000  H
  H150     1.0000 0.82040  0.57080  0.97820  Biso   1.000  H
  H151     1.0000 0.77210  0.62590  0.97410  Biso   1.000  H
  H152     1.0000 0.71140  0.57340  0.99040  Biso   1.000  H
  H153     1.0000 0.58200  0.71700  0.99280  Biso   1.000  H
  H154     1.0000 0.62530  0.61030  0.00430  Biso   1.000  H
  H155     1.0000 0.56670  0.61150  0.02010  Biso   1.000  H
  H156     1.0000 0.51860  0.66580  0.01920  Biso   1.000  H
  H157     1.0000 0.42880  0.77380  0.05840  Biso   1.000  H
  H158     1.0000 0.38020  0.82520  0.06720  Biso   1.000  H
  H159     1.0000 0.37590  0.88010  0.01810  Biso   1.000  H
  H160     1.0000 0.47100  0.82760  0.95580  Biso   1.000  H
  H161     1.0000 0.31420  0.18540  0.54120  Biso   1.000  H
  H162     1.0000 0.32040  0.14240  0.59620  Biso   1.000  H
  H163     1.0000 0.26830  0.13650  0.64750  Biso   1.000  H
  H164     1.0000 0.20900  0.22520  0.58700  Biso   1.000  H
  H165     1.0000 0.01900  0.31240  0.67980  Biso   1.000  H
  H166     1.0000 0.07080  0.32040  0.63060  Biso   1.000  H
  H167     1.0000 0.12590  0.27210  0.62790  Biso   1.000  H
  H168     1.0000 0.07340  0.21140  0.72480  Biso   1.000  H
  H169     1.0000 0.21700  0.08200  0.70820  Biso   1.000  H
  H170     1.0000 0.11030  0.12530  0.76010  Biso   1.000  H
  H171     1.0000 0.11150  0.06670  0.80170  Biso   1.000  H
  H172     1.0000 0.16580  0.01860  0.79640  Biso   1.000  H
  H173     1.0000 0.27380  0.92880  0.73900  Biso   1.000  H
  H174     1.0000 0.32520  0.88020  0.72740  Biso   1.000  H
  H175     1.0000 0.38010  0.87590  0.72590  Biso   1.000  H
  H176     1.0000 0.32760  0.97100  0.74560  Biso   1.000  H
  H177     1.0000 0.04120  0.95920  0.81420  Biso   1.000  H
  H178     1.0000 0.09620  0.94100  0.82040  Biso   1.000  H
  H179     1.0000 0.14750  0.94770  0.76830  Biso   1.000  H
  H180     1.0000 0.08700  0.97880  0.70900  Biso   1.000  H
  H181     1.0000 0.17980  0.98880  0.51900  Biso   1.000  H
  H182     1.0000 0.13060  0.97820  0.57080  Biso   1.000  H
  H183     1.0000 0.12790  0.97410  0.62590  Biso   1.000  H
  H184     1.0000 0.22480  0.99040  0.57340  Biso   1.000  H
  H185     1.0000 0.20820  0.99280  0.71700  Biso   1.000  H
  H186     1.0000 0.26010  0.00430  0.61030  Biso   1.000  H
  H187     1.0000 0.30170  0.02010  0.61150  Biso   1.000  H
  H188     1.0000 0.29640  0.01920  0.66580  Biso   1.000  H
  H189     1.0000 0.23900  0.05840  0.77380  Biso   1.000  H
  H190     1.0000 0.22740  0.06720  0.82520  Biso   1.000  H
  H191     1.0000 0.22590  0.01810  0.88010  Biso   1.000  H
  H192     1.0000 0.24560  0.95580  0.82760  Biso   1.000  H
  H193     1.0000 0.81460  0.54080  0.68580  Biso   1.000  H
  H194     1.0000 0.85760  0.55900  0.67960  Biso   1.000  H
  H195     1.0000 0.86350  0.55230  0.73170  Biso   1.000  H
  H196     1.0000 0.77480  0.52120  0.79100  Biso   1.000  H
  H197     1.0000 0.68760  0.51120  0.98100  Biso   1.000  H
  H198     1.0000 0.67960  0.52180  0.92920  Biso   1.000  H
  H199     1.0000 0.72790  0.52590  0.87410  Biso   1.000  H
  H200     1.0000 0.78860  0.50960  0.92660  Biso   1.000  H
  H201     1.0000 0.91800  0.50720  0.78300  Biso   1.000  H
  H202     1.0000 0.87470  0.49570  0.88970  Biso   1.000  H
  H203     1.0000 0.93330  0.47990  0.88850  Biso   1.000  H
  H204     1.0000 0.98140  0.48080  0.83420  Biso   1.000  H
  H205     1.0000 0.07120  0.44160  0.72620  Biso   1.000  H
  H206     1.0000 0.11980  0.43280  0.67480  Biso   1.000  H
  H207     1.0000 0.12410  0.48190  0.61990  Biso   1.000  H
  H208     1.0000 0.02900  0.54420  0.67240  Biso   1.000  H
  H209     1.0000 0.04080  0.31460  0.95880  Biso   1.000  H
  H210     1.0000 0.05900  0.35760  0.90380  Biso   1.000  H
  H211     1.0000 0.05230  0.36350  0.85250  Biso   1.000  H
  H212     1.0000 0.02120  0.27480  0.91300  Biso   1.000  H
  H213     1.0000 0.01120  0.18760  0.82020  Biso   1.000  H
  H214     1.0000 0.02180  0.17960  0.86940  Biso   1.000  H
  H215     1.0000 0.02590  0.22790  0.87210  Biso   1.000  H
  H216     1.0000 0.00960  0.28860  0.77520  Biso   1.000  H
  H217     1.0000 0.00720  0.41800  0.79180  Biso   1.000  H
  H218     1.0000 0.99570  0.37470  0.73990  Biso   1.000  H
  H219     1.0000 0.97990  0.43330  0.69830  Biso   1.000  H
  H220     1.0000 0.98080  0.48140  0.70360  Biso   1.000  H
  H221     1.0000 0.94160  0.57120  0.76100  Biso   1.000  H
  H222     1.0000 0.93280  0.61980  0.77260  Biso   1.000  H
  H223     1.0000 0.98190  0.62410  0.77410  Biso   1.000  H
  H224     1.0000 0.04420  0.52900  0.75440  Biso   1.000  H
  H225     1.0000 0.45880  0.68580  0.54080  Biso   1.000  H
  H226     1.0000 0.40380  0.67960  0.55900  Biso   1.000  H
  H227     1.0000 0.35250  0.73170  0.55230  Biso   1.000  H
  H228     1.0000 0.41300  0.79100  0.52120  Biso   1.000  H
  H229     1.0000 0.32020  0.98100  0.51120  Biso   1.000  H
  H230     1.0000 0.36940  0.92920  0.52180  Biso   1.000  H
  H231     1.0000 0.37210  0.87410  0.52590  Biso   1.000  H
  H232     1.0000 0.27520  0.92660  0.50960  Biso   1.000  H
  H233     1.0000 0.29180  0.78300  0.50720  Biso   1.000  H
  H234     1.0000 0.23990  0.88970  0.49570  Biso   1.000  H
  H235     1.0000 0.19830  0.88850  0.47990  Biso   1.000  H
  H236     1.0000 0.20360  0.83420  0.48080  Biso   1.000  H
  H237     1.0000 0.26100  0.72620  0.44160  Biso   1.000  H
  H238     1.0000 0.27260  0.67480  0.43280  Biso   1.000  H
  H239     1.0000 0.27410  0.61990  0.48190  Biso   1.000  H
  H240     1.0000 0.25440  0.67240  0.54420  Biso   1.000  H
  H241     1.0000 0.18580  0.95880  0.31460  Biso   1.000  H
  H242     1.0000 0.17960  0.90380  0.35760  Biso   1.000  H
  H243     1.0000 0.23170  0.85250  0.36350  Biso   1.000  H
  H244     1.0000 0.29100  0.91300  0.27480  Biso   1.000  H
  H245     1.0000 0.48100  0.82020  0.18760  Biso   1.000  H
  H246     1.0000 0.42920  0.86940  0.17960  Biso   1.000  H
  H247     1.0000 0.37410  0.87210  0.22790  Biso   1.000  H
  H248     1.0000 0.42660  0.77520  0.28860  Biso   1.000  H
  H249     1.0000 0.28300  0.79180  0.41800  Biso   1.000  H
  H250     1.0000 0.38970  0.73990  0.37470  Biso   1.000  H
  H251     1.0000 0.38850  0.69830  0.43330  Biso   1.000  H
  H252     1.0000 0.33420  0.70360  0.48140  Biso   1.000  H
  H253     1.0000 0.22620  0.76100  0.57120  Biso   1.000  H
  H254     1.0000 0.17480  0.77260  0.61980  Biso   1.000  H
  H255     1.0000 0.11990  0.77410  0.62410  Biso   1.000  H
  H256     1.0000 0.17240  0.75440  0.52900  Biso   1.000  H
  H257     1.0000 0.18580  0.54080  0.95880  Biso   1.000  H
  H258     1.0000 0.17960  0.55900  0.90380  Biso   1.000  H
  H259     1.0000 0.23170  0.55230  0.85250  Biso   1.000  H
  H260     1.0000 0.29100  0.52120  0.91300  Biso   1.000  H
  H261     1.0000 0.48100  0.51120  0.82020  Biso   1.000  H
  H262     1.0000 0.42920  0.52180  0.86940  Biso   1.000  H
  H263     1.0000 0.37410  0.52590  0.87210  Biso   1.000  H
  H264     1.0000 0.42660  0.50960  0.77520  Biso   1.000  H
  H265     1.0000 0.28300  0.50720  0.79180  Biso   1.000  H
  H266     1.0000 0.38970  0.49570  0.73990  Biso   1.000  H
  H267     1.0000 0.38850  0.47990  0.69830  Biso   1.000  H
  H268     1.0000 0.33420  0.48080  0.70360  Biso   1.000  H
  H269     1.0000 0.22620  0.44160  0.76100  Biso   1.000  H
  H270     1.0000 0.17480  0.43280  0.77260  Biso   1.000  H
  H271     1.0000 0.11990  0.48190  0.77410  Biso   1.000  H
  H272     1.0000 0.17240  0.54420  0.75440  Biso   1.000  H
  H273     1.0000 0.45880  0.31460  0.68580  Biso   1.000  H
  H274     1.0000 0.40380  0.35760  0.67960  Biso   1.000  H
  H275     1.0000 0.35250  0.36350  0.73170  Biso   1.000  H
  H276     1.0000 0.41300  0.27480  0.79100  Biso   1.000  H
  H277     1.0000 0.32020  0.18760  0.98100  Biso   1.000  H
  H278     1.0000 0.36940  0.17960  0.92920  Biso   1.000  H
  H279     1.0000 0.37210  0.22790  0.87410  Biso   1.000  H
  H280     1.0000 0.27520  0.28860  0.92660  Biso   1.000  H
  H281     1.0000 0.29180  0.41800  0.78300  Biso   1.000  H
  H282     1.0000 0.23990  0.37470  0.88970  Biso   1.000  H
  H283     1.0000 0.19830  0.43330  0.88850  Biso   1.000  H
  H284     1.0000 0.20360  0.48140  0.83420  Biso   1.000  H
  H285     1.0000 0.26100  0.57120  0.72620  Biso   1.000  H
  H286     1.0000 0.27260  0.61980  0.67480  Biso   1.000  H
  H287     1.0000 0.27410  0.62410  0.61990  Biso   1.000  H
  H288     1.0000 0.25440  0.52900  0.67240  Biso   1.000  H
  H289     1.0000 0.04080  0.68580  0.31460  Biso   1.000  H
  H290     1.0000 0.05900  0.67960  0.35760  Biso   1.000  H
  H291     1.0000 0.05230  0.73170  0.36350  Biso   1.000  H
  H292     1.0000 0.02120  0.79100  0.27480  Biso   1.000  H
  H293     1.0000 0.01120  0.98100  0.18760  Biso   1.000  H
  H294     1.0000 0.02180  0.92920  0.17960  Biso   1.000  H
  H295     1.0000 0.02590  0.87410  0.22790  Biso   1.000  H
  H296     1.0000 0.00960  0.92660  0.28860  Biso   1.000  H
  H297     1.0000 0.00720  0.78300  0.41800  Biso   1.000  H
  H298     1.0000 0.99570  0.88970  0.37470  Biso   1.000  H
  H299     1.0000 0.97990  0.88850  0.43330  Biso   1.000  H
  H300     1.0000 0.98080  0.83420  0.48140  Biso   1.000  H
  H301     1.0000 0.94160  0.72620  0.57120  Biso   1.000  H
  H302     1.0000 0.93280  0.67480  0.61980  Biso   1.000  H
  H303     1.0000 0.98190  0.61990  0.62410  Biso   1.000  H
  H304     1.0000 0.04420  0.67240  0.52900  Biso   1.000  H
  H305     1.0000 0.81460  0.95880  0.54080  Biso   1.000  H
  H306     1.0000 0.85760  0.90380  0.55900  Biso   1.000  H
  H307     1.0000 0.86350  0.85250  0.55230  Biso   1.000  H
  H308     1.0000 0.77480  0.91300  0.52120  Biso   1.000  H
  H309     1.0000 0.68760  0.82020  0.51120  Biso   1.000  H
  H310     1.0000 0.67960  0.86940  0.52180  Biso   1.000  H
  H311     1.0000 0.72790  0.87210  0.52590  Biso   1.000  H
  H312     1.0000 0.78860  0.77520  0.50960  Biso   1.000  H
  H313     1.0000 0.91800  0.79180  0.50720  Biso   1.000  H
  H314     1.0000 0.87470  0.73990  0.49570  Biso   1.000  H
  H315     1.0000 0.93330  0.69830  0.47990  Biso   1.000  H
  H316     1.0000 0.98140  0.70360  0.48080  Biso   1.000  H
  H317     1.0000 0.07120  0.76100  0.44160  Biso   1.000  H
  H318     1.0000 0.11980  0.77260  0.43280  Biso   1.000  H
  H319     1.0000 0.12410  0.77410  0.48190  Biso   1.000  H
  H320     1.0000 0.02900  0.75440  0.54420  Biso   1.000  H
  H321     1.0000 0.45880  0.54080  0.31460  Biso   1.000  H
  H322     1.0000 0.40380  0.55900  0.35760  Biso   1.000  H
  H323     1.0000 0.35250  0.55230  0.36350  Biso   1.000  H
  H324     1.0000 0.41300  0.52120  0.27480  Biso   1.000  H
  H325     1.0000 0.32020  0.51120  0.18760  Biso   1.000  H
  H326     1.0000 0.36940  0.52180  0.17960  Biso   1.000  H
  H327     1.0000 0.37210  0.52590  0.22790  Biso   1.000  H
  H328     1.0000 0.27520  0.50960  0.28860  Biso   1.000  H
  H329     1.0000 0.29180  0.50720  0.41800  Biso   1.000  H
  H330     1.0000 0.23990  0.49570  0.37470  Biso   1.000  H
  H331     1.0000 0.19830  0.47990  0.43330  Biso   1.000  H
  H332     1.0000 0.20360  0.48080  0.48140  Biso   1.000  H
  H333     1.0000 0.26100  0.44160  0.57120  Biso   1.000  H
  H334     1.0000 0.27260  0.43280  0.61980  Biso   1.000  H
  H335     1.0000 0.27410  0.48190  0.62410  Biso   1.000  H
  H336     1.0000 0.25440  0.54420  0.52900  Biso   1.000  H
  H337     1.0000 0.18580  0.31460  0.54080  Biso   1.000  H
  H338     1.0000 0.17960  0.35760  0.55900  Biso   1.000  H
  H339     1.0000 0.23170  0.36350  0.55230  Biso   1.000  H
  H340     1.0000 0.29100  0.27480  0.52120  Biso   1.000  H
  H341     1.0000 0.48100  0.18760  0.51120  Biso   1.000  H
  H342     1.0000 0.42920  0.17960  0.52180  Biso   1.000  H
  H343     1.0000 0.37410  0.22790  0.52590  Biso   1.000  H
  H344     1.0000 0.42660  0.28860  0.50960  Biso   1.000  H
  H345     1.0000 0.28300  0.41800  0.50720  Biso   1.000  H
  H346     1.0000 0.38970  0.37470  0.49570  Biso   1.000  H
  H347     1.0000 0.38850  0.43330  0.47990  Biso   1.000  H
  H348     1.0000 0.33420  0.48140  0.48080  Biso   1.000  H
  H349     1.0000 0.22620  0.57120  0.44160  Biso   1.000  H
  H350     1.0000 0.17480  0.61980  0.43280  Biso   1.000  H
  H351     1.0000 0.11990  0.62410  0.48190  Biso   1.000  H
  H352     1.0000 0.17240  0.52900  0.54420  Biso   1.000  H
  H353     1.0000 0.81460  0.68580  0.95880  Biso   1.000  H
  H354     1.0000 0.85760  0.67960  0.90380  Biso   1.000  H
  H355     1.0000 0.86350  0.73170  0.85250  Biso   1.000  H
  H356     1.0000 0.77480  0.79100  0.91300  Biso   1.000  H
  H357     1.0000 0.68760  0.98100  0.82020  Biso   1.000  H
  H358     1.0000 0.67960  0.92920  0.86940  Biso   1.000  H
  H359     1.0000 0.72790  0.87410  0.87210  Biso   1.000  H
  H360     1.0000 0.78860  0.92660  0.77520  Biso   1.000  H
  H361     1.0000 0.91800  0.78300  0.79180  Biso   1.000  H
  H362     1.0000 0.87470  0.88970  0.73990  Biso   1.000  H
  H363     1.0000 0.93330  0.88850  0.69830  Biso   1.000  H
  H364     1.0000 0.98140  0.83420  0.70360  Biso   1.000  H
  H365     1.0000 0.07120  0.72620  0.76100  Biso   1.000  H
  H366     1.0000 0.11980  0.67480  0.77260  Biso   1.000  H
  H367     1.0000 0.12410  0.61990  0.77410  Biso   1.000  H
  H368     1.0000 0.02900  0.67240  0.75440  Biso   1.000  H
  H369     1.0000 0.04080  0.95880  0.68580  Biso   1.000  H
  H370     1.0000 0.05900  0.90380  0.67960  Biso   1.000  H
  H371     1.0000 0.05230  0.85250  0.73170  Biso   1.000  H
  H372     1.0000 0.02120  0.91300  0.79100  Biso   1.000  H
  H373     1.0000 0.01120  0.82020  0.98100  Biso   1.000  H
  H374     1.0000 0.02180  0.86940  0.92920  Biso   1.000  H
  H375     1.0000 0.02590  0.87210  0.87410  Biso   1.000  H
  H376     1.0000 0.00960  0.77520  0.92660  Biso   1.000  H
  H377     1.0000 0.00720  0.79180  0.78300  Biso   1.000  H
  H378     1.0000 0.99570  0.73990  0.88970  Biso   1.000  H
  H379     1.0000 0.97990  0.69830  0.88850  Biso   1.000  H
  H380     1.0000 0.98080  0.70360  0.83420  Biso   1.000  H
  H381     1.0000 0.94160  0.76100  0.72620  Biso   1.000  H
  H382     1.0000 0.93280  0.77260  0.67480  Biso   1.000  H
  H383     1.0000 0.98190  0.77410  0.61990  Biso   1.000  H
  H384     1.0000 0.04420  0.75440  0.67240  Biso   1.000  H
  H385     1.0000 0.54080  0.81460  0.18580  Biso   1.000  H
  H386     1.0000 0.55900  0.85760  0.17960  Biso   1.000  H
  H387     1.0000 0.55230  0.86350  0.23170  Biso   1.000  H
  H388     1.0000 0.52120  0.77480  0.29100  Biso   1.000  H
  H389     1.0000 0.51120  0.68760  0.48100  Biso   1.000  H
  H390     1.0000 0.52180  0.67960  0.42920  Biso   1.000  H
  H391     1.0000 0.52590  0.72790  0.37410  Biso   1.000  H
  H392     1.0000 0.50960  0.78860  0.42660  Biso   1.000  H
  H393     1.0000 0.50720  0.91800  0.28300  Biso   1.000  H
  H394     1.0000 0.49570  0.87470  0.38970  Biso   1.000  H
  H395     1.0000 0.47990  0.93330  0.38850  Biso   1.000  H
  H396     1.0000 0.48080  0.98140  0.33420  Biso   1.000  H
  H397     1.0000 0.44160  0.07120  0.22620  Biso   1.000  H
  H398     1.0000 0.43280  0.11980  0.17480  Biso   1.000  H
  H399     1.0000 0.48190  0.12410  0.11990  Biso   1.000  H
  H400     1.0000 0.54420  0.02900  0.17240  Biso   1.000  H
  H401     1.0000 0.31460  0.04080  0.45880  Biso   1.000  H
  H402     1.0000 0.35760  0.05900  0.40380  Biso   1.000  H
  H403     1.0000 0.36350  0.05230  0.35250  Biso   1.000  H
  H404     1.0000 0.27480  0.02120  0.41300  Biso   1.000  H
  H405     1.0000 0.18760  0.01120  0.32020  Biso   1.000  H
  H406     1.0000 0.17960  0.02180  0.36940  Biso   1.000  H
  H407     1.0000 0.22790  0.02590  0.37210  Biso   1.000  H
  H408     1.0000 0.28860  0.00960  0.27520  Biso   1.000  H
  H409     1.0000 0.41800  0.00720  0.29180  Biso   1.000  H
  H410     1.0000 0.37470  0.99570  0.23990  Biso   1.000  H
  H411     1.0000 0.43330  0.97990  0.19830  Biso   1.000  H
  H412     1.0000 0.48140  0.98080  0.20360  Biso   1.000  H
  H413     1.0000 0.57120  0.94160  0.26100  Biso   1.000  H
  H414     1.0000 0.61980  0.93280  0.27260  Biso   1.000  H
  H415     1.0000 0.62410  0.98190  0.27410  Biso   1.000  H
  H416     1.0000 0.52900  0.04420  0.25440  Biso   1.000  H
  H417     1.0000 0.68580  0.45880  0.04080  Biso   1.000  H
  H418     1.0000 0.67960  0.40380  0.05900  Biso   1.000  H
  H419     1.0000 0.73170  0.35250  0.05230  Biso   1.000  H
  H420     1.0000 0.79100  0.41300  0.02120  Biso   1.000  H
  H421     1.0000 0.98100  0.32020  0.01120  Biso   1.000  H
  H422     1.0000 0.92920  0.36940  0.02180  Biso   1.000  H
  H423     1.0000 0.87410  0.37210  0.02590  Biso   1.000  H
  H424     1.0000 0.92660  0.27520  0.00960  Biso   1.000  H
  H425     1.0000 0.78300  0.29180  0.00720  Biso   1.000  H
  H426     1.0000 0.88970  0.23990  0.99570  Biso   1.000  H
  H427     1.0000 0.88850  0.19830  0.97990  Biso   1.000  H
  H428     1.0000 0.83420  0.20360  0.98080  Biso   1.000  H
  H429     1.0000 0.72620  0.26100  0.94160  Biso   1.000  H
  H430     1.0000 0.67480  0.27260  0.93280  Biso   1.000  H
  H431     1.0000 0.61990  0.27410  0.98190  Biso   1.000  H
  H432     1.0000 0.67240  0.25440  0.04420  Biso   1.000  H
  H433     1.0000 0.95880  0.18580  0.81460  Biso   1.000  H
  H434     1.0000 0.90380  0.17960  0.85760  Biso   1.000  H
  H435     1.0000 0.85250  0.23170  0.86350  Biso   1.000  H
  H436     1.0000 0.91300  0.29100  0.77480  Biso   1.000  H
  H437     1.0000 0.82020  0.48100  0.68760  Biso   1.000  H
  H438     1.0000 0.86940  0.42920  0.67960  Biso   1.000  H
  H439     1.0000 0.87210  0.37410  0.72790  Biso   1.000  H
  H440     1.0000 0.77520  0.42660  0.78860  Biso   1.000  H
  H441     1.0000 0.79180  0.28300  0.91800  Biso   1.000  H
  H442     1.0000 0.73990  0.38970  0.87470  Biso   1.000  H
  H443     1.0000 0.69830  0.38850  0.93330  Biso   1.000  H
  H444     1.0000 0.70360  0.33420  0.98140  Biso   1.000  H
  H445     1.0000 0.76100  0.22620  0.07120  Biso   1.000  H
  H446     1.0000 0.77260  0.17480  0.11980  Biso   1.000  H
  H447     1.0000 0.77410  0.11990  0.12410  Biso   1.000  H
  H448     1.0000 0.75440  0.17240  0.02900  Biso   1.000  H
  H449     1.0000 0.54080  0.18580  0.45880  Biso   1.000  H
  H450     1.0000 0.55900  0.17960  0.40380  Biso   1.000  H
  H451     1.0000 0.55230  0.23170  0.35250  Biso   1.000  H
  H452     1.0000 0.52120  0.29100  0.41300  Biso   1.000  H
  H453     1.0000 0.51120  0.48100  0.32020  Biso   1.000  H
  H454     1.0000 0.52180  0.42920  0.36940  Biso   1.000  H
  H455     1.0000 0.52590  0.37410  0.37210  Biso   1.000  H
  H456     1.0000 0.50960  0.42660  0.27520  Biso   1.000  H
  H457     1.0000 0.50720  0.28300  0.29180  Biso   1.000  H
  H458     1.0000 0.49570  0.38970  0.23990  Biso   1.000  H
  H459     1.0000 0.47990  0.38850  0.19830  Biso   1.000  H
  H460     1.0000 0.48080  0.33420  0.20360  Biso   1.000  H
  H461     1.0000 0.44160  0.22620  0.26100  Biso   1.000  H
  H462     1.0000 0.43280  0.17480  0.27260  Biso   1.000  H
  H463     1.0000 0.48190  0.11990  0.27410  Biso   1.000  H
  H464     1.0000 0.54420  0.17240  0.25440  Biso   1.000  H
  H465     1.0000 0.31460  0.45880  0.18580  Biso   1.000  H
  H466     1.0000 0.35760  0.40380  0.17960  Biso   1.000  H
  H467     1.0000 0.36350  0.35250  0.23170  Biso   1.000  H
  H468     1.0000 0.27480  0.41300  0.29100  Biso   1.000  H
  H469     1.0000 0.18760  0.32020  0.48100  Biso   1.000  H
  H470     1.0000 0.17960  0.36940  0.42920  Biso   1.000  H
  H471     1.0000 0.22790  0.37210  0.37410  Biso   1.000  H
  H472     1.0000 0.28860  0.27520  0.42660  Biso   1.000  H
  H473     1.0000 0.41800  0.29180  0.28300  Biso   1.000  H
  H474     1.0000 0.37470  0.23990  0.38970  Biso   1.000  H
  H475     1.0000 0.43330  0.19830  0.38850  Biso   1.000  H
  H476     1.0000 0.48140  0.20360  0.33420  Biso   1.000  H
  H477     1.0000 0.57120  0.26100  0.22620  Biso   1.000  H
  H478     1.0000 0.61980  0.27260  0.17480  Biso   1.000  H
  H479     1.0000 0.62410  0.27410  0.11990  Biso   1.000  H
  H480     1.0000 0.52900  0.25440  0.17240  Biso   1.000  H
  H481     1.0000 0.68580  0.04080  0.81460  Biso   1.000  H
  H482     1.0000 0.67960  0.05900  0.85760  Biso   1.000  H
  H483     1.0000 0.73170  0.05230  0.86350  Biso   1.000  H
  H484     1.0000 0.79100  0.02120  0.77480  Biso   1.000  H
  H485     1.0000 0.98100  0.01120  0.68760  Biso   1.000  H
  H486     1.0000 0.92920  0.02180  0.67960  Biso   1.000  H
  H487     1.0000 0.87410  0.02590  0.72790  Biso   1.000  H
  H488     1.0000 0.92660  0.00960  0.78860  Biso   1.000  H
  H489     1.0000 0.78300  0.00720  0.91800  Biso   1.000  H
  H490     1.0000 0.88970  0.99570  0.87470  Biso   1.000  H
  H491     1.0000 0.88850  0.97990  0.93330  Biso   1.000  H
  H492     1.0000 0.83420  0.98080  0.98140  Biso   1.000  H
  H493     1.0000 0.72620  0.94160  0.07120  Biso   1.000  H
  H494     1.0000 0.67480  0.93280  0.11980  Biso   1.000  H
  H495     1.0000 0.61990  0.98190  0.12410  Biso   1.000  H
  H496     1.0000 0.67240  0.04420  0.02900  Biso   1.000  H
  H497     1.0000 0.95880  0.81460  0.04080  Biso   1.000  H
  H498     1.0000 0.90380  0.85760  0.05900  Biso   1.000  H
  H499     1.0000 0.85250  0.86350  0.05230  Biso   1.000  H
  H500     1.0000 0.91300  0.77480  0.02120  Biso   1.000  H
  H501     1.0000 0.82020  0.68760  0.01120  Biso   1.000  H
  H502     1.0000 0.86940  0.67960  0.02180  Biso   1.000  H
  H503     1.0000 0.87210  0.72790  0.02590  Biso   1.000  H
  H504     1.0000 0.77520  0.78860  0.00960  Biso   1.000  H
  H505     1.0000 0.79180  0.91800  0.00720  Biso   1.000  H
  H506     1.0000 0.73990  0.87470  0.99570  Biso   1.000  H
  H507     1.0000 0.69830  0.93330  0.97990  Biso   1.000  H
  H508     1.0000 0.70360  0.98140  0.98080  Biso   1.000  H
  H509     1.0000 0.76100  0.07120  0.94160  Biso   1.000  H
  H510     1.0000 0.77260  0.11980  0.93280  Biso   1.000  H
  H511     1.0000 0.77410  0.12410  0.98190  Biso   1.000  H
  H512     1.0000 0.75440  0.02900  0.04420  Biso   1.000  H
  H513     1.0000 0.54080  0.45880  0.81460  Biso   1.000  H
  H514     1.0000 0.55900  0.40380  0.85760  Biso   1.000  H
  H515     1.0000 0.55230  0.35250  0.86350  Biso   1.000  H
  H516     1.0000 0.52120  0.41300  0.77480  Biso   1.000  H
  H517     1.0000 0.51120  0.32020  0.68760  Biso   1.000  H
  H518     1.0000 0.52180  0.36940  0.67960  Biso   1.000  H
  H519     1.0000 0.52590  0.37210  0.72790  Biso   1.000  H
  H520     1.0000 0.50960  0.27520  0.78860  Biso   1.000  H
  H521     1.0000 0.50720  0.29180  0.91800  Biso   1.000  H
  H522     1.0000 0.49570  0.23990  0.87470  Biso   1.000  H
  H523     1.0000 0.47990  0.19830  0.93330  Biso   1.000  H
  H524     1.0000 0.48080  0.20360  0.98140  Biso   1.000  H
  H525     1.0000 0.44160  0.26100  0.07120  Biso   1.000  H
  H526     1.0000 0.43280  0.27260  0.11980  Biso   1.000  H
  H527     1.0000 0.48190  0.27410  0.12410  Biso   1.000  H
  H528     1.0000 0.54420  0.25440  0.02900  Biso   1.000  H
  H529     1.0000 0.31460  0.18580  0.04080  Biso   1.000  H
  H530     1.0000 0.35760  0.17960  0.05900  Biso   1.000  H
  H531     1.0000 0.36350  0.23170  0.05230  Biso   1.000  H
  H532     1.0000 0.27480  0.29100  0.02120  Biso   1.000  H
  H533     1.0000 0.18760  0.48100  0.01120  Biso   1.000  H
  H534     1.0000 0.17960  0.42920  0.02180  Biso   1.000  H
  H535     1.0000 0.22790  0.37410  0.02590  Biso   1.000  H
  H536     1.0000 0.28860  0.42660  0.00960  Biso   1.000  H
  H537     1.0000 0.41800  0.28300  0.00720  Biso   1.000  H
  H538     1.0000 0.37470  0.38970  0.99570  Biso   1.000  H
  H539     1.0000 0.43330  0.38850  0.97990  Biso   1.000  H
  H540     1.0000 0.48140  0.33420  0.98080  Biso   1.000  H
  H541     1.0000 0.57120  0.22620  0.94160  Biso   1.000  H
  H542     1.0000 0.61980  0.17480  0.93280  Biso   1.000  H
  H543     1.0000 0.62410  0.11990  0.98190  Biso   1.000  H
  H544     1.0000 0.52900  0.17240  0.04420  Biso   1.000  H
  H545     1.0000 0.68580  0.81460  0.45880  Biso   1.000  H
  H546     1.0000 0.67960  0.85760  0.40380  Biso   1.000  H
  H547     1.0000 0.73170  0.86350  0.35250  Biso   1.000  H
  H548     1.0000 0.79100  0.77480  0.41300  Biso   1.000  H
  H549     1.0000 0.98100  0.68760  0.32020  Biso   1.000  H
  H550     1.0000 0.92920  0.67960  0.36940  Biso   1.000  H
  H551     1.0000 0.87410  0.72790  0.37210  Biso   1.000  H
  H552     1.0000 0.92660  0.78860  0.27520  Biso   1.000  H
  H553     1.0000 0.78300  0.91800  0.29180  Biso   1.000  H
  H554     1.0000 0.88970  0.87470  0.23990  Biso   1.000  H
  H555     1.0000 0.88850  0.93330  0.19830  Biso   1.000  H
  H556     1.0000 0.83420  0.98140  0.20360  Biso   1.000  H
  H557     1.0000 0.72620  0.07120  0.26100  Biso   1.000  H
  H558     1.0000 0.67480  0.11980  0.27260  Biso   1.000  H
  H559     1.0000 0.61990  0.12410  0.27410  Biso   1.000  H
  H560     1.0000 0.67240  0.02900  0.25440  Biso   1.000  H
  H561     1.0000 0.95880  0.04080  0.18580  Biso   1.000  H
  H562     1.0000 0.90380  0.05900  0.17960  Biso   1.000  H
  H563     1.0000 0.85250  0.05230  0.23170  Biso   1.000  H
  H564     1.0000 0.91300  0.02120  0.29100  Biso   1.000  H
  H565     1.0000 0.82020  0.01120  0.48100  Biso   1.000  H
  H566     1.0000 0.86940  0.02180  0.42920  Biso   1.000  H
  H567     1.0000 0.87210  0.02590  0.37410  Biso   1.000  H
  H568     1.0000 0.77520  0.00960  0.42660  Biso   1.000  H
  H569     1.0000 0.79180  0.00720  0.28300  Biso   1.000  H
  H570     1.0000 0.73990  0.99570  0.38970  Biso   1.000  H
  H571     1.0000 0.69830  0.97990  0.38850  Biso   1.000  H
  H572     1.0000 0.70360  0.98080  0.33420  Biso   1.000  H
  H573     1.0000 0.76100  0.94160  0.22620  Biso   1.000  H
  H574     1.0000 0.77260  0.93280  0.17480  Biso   1.000  H
  H575     1.0000 0.77410  0.98190  0.11990  Biso   1.000  H
  H576     1.0000 0.75440  0.04420  0.17240  Biso   1.000  H
  H577     1.0000 0.18540  0.45920  0.31420  Biso   1.000  H
  H578     1.0000 0.14240  0.44100  0.32040  Biso   1.000  H
  H579     1.0000 0.13650  0.44770  0.26830  Biso   1.000  H
  H580     1.0000 0.22520  0.47880  0.20900  Biso   1.000  H
  H581     1.0000 0.31240  0.48880  0.01900  Biso   1.000  H
  H582     1.0000 0.32040  0.47820  0.07080  Biso   1.000  H
  H583     1.0000 0.27210  0.47410  0.12590  Biso   1.000  H
  H584     1.0000 0.21140  0.49040  0.07340  Biso   1.000  H
  H585     1.0000 0.08200  0.49280  0.21700  Biso   1.000  H
  H586     1.0000 0.12530  0.50430  0.11030  Biso   1.000  H
  H587     1.0000 0.06670  0.52010  0.11150  Biso   1.000  H
  H588     1.0000 0.01860  0.51920  0.16580  Biso   1.000  H
  H589     1.0000 0.92880  0.55840  0.27380  Biso   1.000  H
  H590     1.0000 0.88020  0.56720  0.32520  Biso   1.000  H
  H591     1.0000 0.87590  0.51810  0.38010  Biso   1.000  H
  H592     1.0000 0.97100  0.45580  0.32760  Biso   1.000  H
  H593     1.0000 0.95920  0.68540  0.04120  Biso   1.000  H
  H594     1.0000 0.94100  0.64240  0.09620  Biso   1.000  H
  H595     1.0000 0.94770  0.63650  0.14750  Biso   1.000  H
  H596     1.0000 0.97880  0.72520  0.08700  Biso   1.000  H
  H597     1.0000 0.98880  0.81240  0.17980  Biso   1.000  H
  H598     1.0000 0.97820  0.82040  0.13060  Biso   1.000  H
  H599     1.0000 0.97410  0.77210  0.12790  Biso   1.000  H
  H600     1.0000 0.99040  0.71140  0.22480  Biso   1.000  H
  H601     1.0000 0.99280  0.58200  0.20820  Biso   1.000  H
  H602     1.0000 0.00430  0.62530  0.26010  Biso   1.000  H
  H603     1.0000 0.02010  0.56670  0.30170  Biso   1.000  H
  H604     1.0000 0.01920  0.51860  0.29640  Biso   1.000  H
  H605     1.0000 0.05840  0.42880  0.23900  Biso   1.000  H
  H606     1.0000 0.06720  0.38020  0.22740  Biso   1.000  H
  H607     1.0000 0.01810  0.37590  0.22590  Biso   1.000  H
  H608     1.0000 0.95580  0.47100  0.24560  Biso   1.000  H
  H609     1.0000 0.54120  0.31420  0.45920  Biso   1.000  H
  H610     1.0000 0.59620  0.32040  0.44100  Biso   1.000  H
  H611     1.0000 0.64750  0.26830  0.44770  Biso   1.000  H
  H612     1.0000 0.58700  0.20900  0.47880  Biso   1.000  H
  H613     1.0000 0.67980  0.01900  0.48880  Biso   1.000  H
  H614     1.0000 0.63060  0.07080  0.47820  Biso   1.000  H
  H615     1.0000 0.62790  0.12590  0.47410  Biso   1.000  H
  H616     1.0000 0.72480  0.07340  0.49040  Biso   1.000  H
  H617     1.0000 0.70820  0.21700  0.49280  Biso   1.000  H
  H618     1.0000 0.76010  0.11030  0.50430  Biso   1.000  H
  H619     1.0000 0.80170  0.11150  0.52010  Biso   1.000  H
  H620     1.0000 0.79640  0.16580  0.51920  Biso   1.000  H
  H621     1.0000 0.73900  0.27380  0.55840  Biso   1.000  H
  H622     1.0000 0.72740  0.32520  0.56720  Biso   1.000  H
  H623     1.0000 0.72590  0.38010  0.51810  Biso   1.000  H
  H624     1.0000 0.74560  0.32760  0.45580  Biso   1.000  H
  H625     1.0000 0.81420  0.04120  0.68540  Biso   1.000  H
  H626     1.0000 0.82040  0.09620  0.64240  Biso   1.000  H
  H627     1.0000 0.76830  0.14750  0.63650  Biso   1.000  H
  H628     1.0000 0.70900  0.08700  0.72520  Biso   1.000  H
  H629     1.0000 0.51900  0.17980  0.81240  Biso   1.000  H
  H630     1.0000 0.57080  0.13060  0.82040  Biso   1.000  H
  H631     1.0000 0.62590  0.12790  0.77210  Biso   1.000  H
  H632     1.0000 0.57340  0.22480  0.71140  Biso   1.000  H
  H633     1.0000 0.71700  0.20820  0.58200  Biso   1.000  H
  H634     1.0000 0.61030  0.26010  0.62530  Biso   1.000  H
  H635     1.0000 0.61150  0.30170  0.56670  Biso   1.000  H
  H636     1.0000 0.66580  0.29640  0.51860  Biso   1.000  H
  H637     1.0000 0.77380  0.23900  0.42880  Biso   1.000  H
  H638     1.0000 0.82520  0.22740  0.38020  Biso   1.000  H
  H639     1.0000 0.88010  0.22590  0.37590  Biso   1.000  H
  H640     1.0000 0.82760  0.24560  0.47100  Biso   1.000  H
  H641     1.0000 0.81420  0.45920  0.04120  Biso   1.000  H
  H642     1.0000 0.82040  0.44100  0.09620  Biso   1.000  H
  H643     1.0000 0.76830  0.44770  0.14750  Biso   1.000  H
  H644     1.0000 0.70900  0.47880  0.08700  Biso   1.000  H
  H645     1.0000 0.51900  0.48880  0.17980  Biso   1.000  H
  H646     1.0000 0.57080  0.47820  0.13060  Biso   1.000  H
  H647     1.0000 0.62590  0.47410  0.12790  Biso   1.000  H
  H648     1.0000 0.57340  0.49040  0.22480  Biso   1.000  H
  H649     1.0000 0.71700  0.49280  0.20820  Biso   1.000  H
  H650     1.0000 0.61030  0.50430  0.26010  Biso   1.000  H
  H651     1.0000 0.61150  0.52010  0.30170  Biso   1.000  H
  H652     1.0000 0.66580  0.51920  0.29640  Biso   1.000  H
  H653     1.0000 0.77380  0.55840  0.23900  Biso   1.000  H
  H654     1.0000 0.82520  0.56720  0.22740  Biso   1.000  H
  H655     1.0000 0.88010  0.51810  0.22590  Biso   1.000  H
  H656     1.0000 0.82760  0.45580  0.24560  Biso   1.000  H
  H657     1.0000 0.54120  0.68540  0.31420  Biso   1.000  H
  H658     1.0000 0.59620  0.64240  0.32040  Biso   1.000  H
  H659     1.0000 0.64750  0.63650  0.26830  Biso   1.000  H
  H660     1.0000 0.58700  0.72520  0.20900  Biso   1.000  H
  H661     1.0000 0.67980  0.81240  0.01900  Biso   1.000  H
  H662     1.0000 0.63060  0.82040  0.07080  Biso   1.000  H
  H663     1.0000 0.62790  0.77210  0.12590  Biso   1.000  H
  H664     1.0000 0.72480  0.71140  0.07340  Biso   1.000  H
  H665     1.0000 0.70820  0.58200  0.21700  Biso   1.000  H
  H666     1.0000 0.76010  0.62530  0.11030  Biso   1.000  H
  H667     1.0000 0.80170  0.56670  0.11150  Biso   1.000  H
  H668     1.0000 0.79640  0.51860  0.16580  Biso   1.000  H
  H669     1.0000 0.73900  0.42880  0.27380  Biso   1.000  H
  H670     1.0000 0.72740  0.38020  0.32520  Biso   1.000  H
  H671     1.0000 0.72590  0.37590  0.38010  Biso   1.000  H
  H672     1.0000 0.74560  0.47100  0.32760  Biso   1.000  H
  H673     1.0000 0.95920  0.31420  0.68540  Biso   1.000  H
  H674     1.0000 0.94100  0.32040  0.64240  Biso   1.000  H
  H675     1.0000 0.94770  0.26830  0.63650  Biso   1.000  H
  H676     1.0000 0.97880  0.20900  0.72520  Biso   1.000  H
  H677     1.0000 0.98880  0.01900  0.81240  Biso   1.000  H
  H678     1.0000 0.97820  0.07080  0.82040  Biso   1.000  H
  H679     1.0000 0.97410  0.12590  0.77210  Biso   1.000  H
  H680     1.0000 0.99040  0.07340  0.71140  Biso   1.000  H
  H681     1.0000 0.99280  0.21700  0.58200  Biso   1.000  H
  H682     1.0000 0.00430  0.11030  0.62530  Biso   1.000  H
  H683     1.0000 0.02010  0.11150  0.56670  Biso   1.000  H
  H684     1.0000 0.01920  0.16580  0.51860  Biso   1.000  H
  H685     1.0000 0.05840  0.27380  0.42880  Biso   1.000  H
  H686     1.0000 0.06720  0.32520  0.38020  Biso   1.000  H
  H687     1.0000 0.01810  0.38010  0.37590  Biso   1.000  H
  H688     1.0000 0.95580  0.32760  0.47100  Biso   1.000  H
  H689     1.0000 0.18540  0.04120  0.45920  Biso   1.000  H
  H690     1.0000 0.14240  0.09620  0.44100  Biso   1.000  H
  H691     1.0000 0.13650  0.14750  0.44770  Biso   1.000  H
  H692     1.0000 0.22520  0.08700  0.47880  Biso   1.000  H
  H693     1.0000 0.31240  0.17980  0.48880  Biso   1.000  H
  H694     1.0000 0.32040  0.13060  0.47820  Biso   1.000  H
  H695     1.0000 0.27210  0.12790  0.47410  Biso   1.000  H
  H696     1.0000 0.21140  0.22480  0.49040  Biso   1.000  H
  H697     1.0000 0.08200  0.20820  0.49280  Biso   1.000  H
  H698     1.0000 0.12530  0.26010  0.50430  Biso   1.000  H
  H699     1.0000 0.06670  0.30170  0.52010  Biso   1.000  H
  H700     1.0000 0.01860  0.29640  0.51920  Biso   1.000  H
  H701     1.0000 0.92880  0.23900  0.55840  Biso   1.000  H
  H702     1.0000 0.88020  0.22740  0.56720  Biso   1.000  H
  H703     1.0000 0.87590  0.22590  0.51810  Biso   1.000  H
  H704     1.0000 0.97100  0.24560  0.45580  Biso   1.000  H
  H705     1.0000 0.54120  0.45920  0.68540  Biso   1.000  H
  H706     1.0000 0.59620  0.44100  0.64240  Biso   1.000  H
  H707     1.0000 0.64750  0.44770  0.63650  Biso   1.000  H
  H708     1.0000 0.58700  0.47880  0.72520  Biso   1.000  H
  H709     1.0000 0.67980  0.48880  0.81240  Biso   1.000  H
  H710     1.0000 0.63060  0.47820  0.82040  Biso   1.000  H
  H711     1.0000 0.62790  0.47410  0.77210  Biso   1.000  H
  H712     1.0000 0.72480  0.49040  0.71140  Biso   1.000  H
  H713     1.0000 0.70820  0.49280  0.58200  Biso   1.000  H
  H714     1.0000 0.76010  0.50430  0.62530  Biso   1.000  H
  H715     1.0000 0.80170  0.52010  0.56670  Biso   1.000  H
  H716     1.0000 0.79640  0.51920  0.51860  Biso   1.000  H
  H717     1.0000 0.73900  0.55840  0.42880  Biso   1.000  H
  H718     1.0000 0.72740  0.56720  0.38020  Biso   1.000  H
  H719     1.0000 0.72590  0.51810  0.37590  Biso   1.000  H
  H720     1.0000 0.74560  0.45580  0.47100  Biso   1.000  H
  H721     1.0000 0.81420  0.68540  0.45920  Biso   1.000  H
  H722     1.0000 0.82040  0.64240  0.44100  Biso   1.000  H
  H723     1.0000 0.76830  0.63650  0.44770  Biso   1.000  H
  H724     1.0000 0.70900  0.72520  0.47880  Biso   1.000  H
  H725     1.0000 0.51900  0.81240  0.48880  Biso   1.000  H
  H726     1.0000 0.57080  0.82040  0.47820  Biso   1.000  H
  H727     1.0000 0.62590  0.77210  0.47410  Biso   1.000  H
  H728     1.0000 0.57340  0.71140  0.49040  Biso   1.000  H
  H729     1.0000 0.71700  0.58200  0.49280  Biso   1.000  H
  H730     1.0000 0.61030  0.62530  0.50430  Biso   1.000  H
  H731     1.0000 0.61150  0.56670  0.52010  Biso   1.000  H
  H732     1.0000 0.66580  0.51860  0.51920  Biso   1.000  H
  H733     1.0000 0.77380  0.42880  0.55840  Biso   1.000  H
  H734     1.0000 0.82520  0.38020  0.56720  Biso   1.000  H
  H735     1.0000 0.88010  0.37590  0.51810  Biso   1.000  H
  H736     1.0000 0.82760  0.47100  0.45580  Biso   1.000  H
  H737     1.0000 0.18540  0.31420  0.04120  Biso   1.000  H
  H738     1.0000 0.14240  0.32040  0.09620  Biso   1.000  H
  H739     1.0000 0.13650  0.26830  0.14750  Biso   1.000  H
  H740     1.0000 0.22520  0.20900  0.08700  Biso   1.000  H
  H741     1.0000 0.31240  0.01900  0.17980  Biso   1.000  H
  H742     1.0000 0.32040  0.07080  0.13060  Biso   1.000  H
  H743     1.0000 0.27210  0.12590  0.12790  Biso   1.000  H
  H744     1.0000 0.21140  0.07340  0.22480  Biso   1.000  H
  H745     1.0000 0.08200  0.21700  0.20820  Biso   1.000  H
  H746     1.0000 0.12530  0.11030  0.26010  Biso   1.000  H
  H747     1.0000 0.06670  0.11150  0.30170  Biso   1.000  H
  H748     1.0000 0.01860  0.16580  0.29640  Biso   1.000  H
  H749     1.0000 0.92880  0.27380  0.23900  Biso   1.000  H
  H750     1.0000 0.88020  0.32520  0.22740  Biso   1.000  H
  H751     1.0000 0.87590  0.38010  0.22590  Biso   1.000  H
  H752     1.0000 0.97100  0.32760  0.24560  Biso   1.000  H
  H753     1.0000 0.95920  0.04120  0.31420  Biso   1.000  H
  H754     1.0000 0.94100  0.09620  0.32040  Biso   1.000  H
  H755     1.0000 0.94770  0.14750  0.26830  Biso   1.000  H
  H756     1.0000 0.97880  0.08700  0.20900  Biso   1.000  H
  H757     1.0000 0.98880  0.17980  0.01900  Biso   1.000  H
  H758     1.0000 0.97820  0.13060  0.07080  Biso   1.000  H
  H759     1.0000 0.97410  0.12790  0.12590  Biso   1.000  H
  H760     1.0000 0.99040  0.22480  0.07340  Biso   1.000  H
  H761     1.0000 0.99280  0.20820  0.21700  Biso   1.000  H
  H762     1.0000 0.00430  0.26010  0.11030  Biso   1.000  H
  H763     1.0000 0.02010  0.30170  0.11150  Biso   1.000  H
  H764     1.0000 0.01920  0.29640  0.16580  Biso   1.000  H
  H765     1.0000 0.05840  0.23900  0.27380  Biso   1.000  H
  H766     1.0000 0.06720  0.22740  0.32520  Biso   1.000  H
  H767     1.0000 0.01810  0.22590  0.38010  Biso   1.000  H
  H768     1.0000 0.95580  0.24560  0.32760  Biso   1.000  H
  C1       1.0000 0.54067  0.16339  0.52505  Biso   1.000  C
  C2       1.0000 0.55307  0.94473  0.70453  Biso   1.000  C
  C3       1.0000 0.46010  0.18470  0.79306  Biso   1.000  C
  C4       1.0000 0.44997  0.15831  0.79695  Biso   1.000  C
  C5       1.0000 0.45309  0.15525  0.76651  Biso   1.000  C
  C6       1.0000 0.46447  0.18053  0.73313  Biso   1.000  C
  C7       1.0000 0.47230  0.20724  0.73190  Biso   1.000  C
  C8       1.0000 0.48713  0.29249  0.54121  Biso   1.000  C
  C9       1.0000 0.48070  0.29760  0.57210  Biso   1.000  C
  C10      1.0000 0.47807  0.26945  0.60439  Biso   1.000  C
  C11      1.0000 0.48128  0.23664  0.60504  Biso   1.000  C
  C12      1.0000 0.48789  0.23385  0.57293  Biso   1.000  C
  C13      1.0000 0.47968  0.20476  0.63868  Biso   1.000  C
  C14      1.0000 0.47087  0.17867  0.69863  Biso   1.000  C
  C15      1.0000 0.48644  0.14504  0.66608  Biso   1.000  C
  C16      1.0000 0.49803  0.07901  0.69519  Biso   1.000  C
  C17      1.0000 0.49643  0.10959  0.66417  Biso   1.000  C
  C18      1.0000 0.50477  0.10515  0.63223  Biso   1.000  C
  C19      1.0000 0.51388  0.07064  0.63302  Biso   1.000  C
  C20      1.0000 0.51381  0.04205  0.66539  Biso   1.000  C
  C21      1.0000 0.53855  0.92749  0.79591  Biso   1.000  C
  C22      1.0000 0.54393  0.89835  0.82637  Biso   1.000  C
  C23      1.0000 0.51516  0.89574  0.85864  Biso   1.000  C
  C24      1.0000 0.48147  0.92321  0.85885  Biso   1.000  C
  C25      1.0000 0.47850  0.95202  0.82716  Biso   1.000  C
  C26      1.0000 0.44980  0.92230  0.89242  Biso   1.000  C
  C27      1.0000 0.66339  0.04067  0.77089  Biso   1.000  C
  C28      1.0000 0.44473  0.05307  0.79767  Biso   1.000  C
  C29      1.0000 0.68470  0.96010  0.56214  Biso   1.000  C
  C30      1.0000 0.65831  0.94997  0.59477  Biso   1.000  C
  C31      1.0000 0.65525  0.95309  0.62515  Biso   1.000  C
  C32      1.0000 0.68053  0.96447  0.62187  Biso   1.000  C
  C33      1.0000 0.70724  0.97230  0.58856  Biso   1.000  C
  C34      1.0000 0.79249  0.98713  0.67917  Biso   1.000  C
  C35      1.0000 0.79760  0.98070  0.64960  Biso   1.000  C
  C36      1.0000 0.76945  0.97807  0.64809  Biso   1.000  C
  C37      1.0000 0.73664  0.98128  0.67704  Biso   1.000  C
  C38      1.0000 0.73385  0.98789  0.70533  Biso   1.000  C
  C39      1.0000 0.70476  0.97968  0.67688  Biso   1.000  C
  C40      1.0000 0.67867  0.97087  0.65183  Biso   1.000  C
  C41      1.0000 0.64504  0.98644  0.70244  Biso   1.000  C
  C42      1.0000 0.57901  0.99803  0.72777  Biso   1.000  C
  C43      1.0000 0.60959  0.99643  0.72981  Biso   1.000  C
  C44      1.0000 0.60515  0.00477  0.75785  Biso   1.000  C
  C45      1.0000 0.57064  0.01388  0.78246  Biso   1.000  C
  C46      1.0000 0.54205  0.01381  0.77875  Biso   1.000  C
  C47      1.0000 0.42749  0.03855  0.73805  Biso   1.000  C
  C48      1.0000 0.39835  0.04393  0.73135  Biso   1.000  C
  C49      1.0000 0.39574  0.01516  0.73046  Biso   1.000  C
  C50      1.0000 0.42321  0.98147  0.73647  Biso   1.000  C
  C51      1.0000 0.45202  0.97850  0.74232  Biso   1.000  C
  C52      1.0000 0.42230  0.94980  0.73548  Biso   1.000  C
  C53      1.0000 0.02505  0.77089  0.04067  Biso   1.000  C
  C54      1.0000 0.20453  0.79767  0.05307  Biso   1.000  C
  C55      1.0000 0.29306  0.56214  0.96010  Biso   1.000  C
  C56      1.0000 0.29695  0.59477  0.94997  Biso   1.000  C
  C57      1.0000 0.26651  0.62515  0.95309  Biso   1.000  C
  C58      1.0000 0.23313  0.62187  0.96447  Biso   1.000  C
  C59      1.0000 0.23190  0.58856  0.97230  Biso   1.000  C
  C60      1.0000 0.04121  0.67917  0.98713  Biso   1.000  C
  C61      1.0000 0.07210  0.64960  0.98070  Biso   1.000  C
  C62      1.0000 0.10439  0.64809  0.97807  Biso   1.000  C
  C63      1.0000 0.10504  0.67704  0.98128  Biso   1.000  C
  C64      1.0000 0.07293  0.70533  0.98789  Biso   1.000  C
  C65      1.0000 0.13868  0.67688  0.97968  Biso   1.000  C
  C66      1.0000 0.19863  0.65183  0.97087  Biso   1.000  C
  C67      1.0000 0.16608  0.70244  0.98644  Biso   1.000  C
  C68      1.0000 0.19519  0.72777  0.99803  Biso   1.000  C
  C69      1.0000 0.16417  0.72981  0.99643  Biso   1.000  C
  C70      1.0000 0.13223  0.75785  0.00477  Biso   1.000  C
  C71      1.0000 0.13302  0.78246  0.01388  Biso   1.000  C
  C72      1.0000 0.16539  0.77875  0.01381  Biso   1.000  C
  C73      1.0000 0.29591  0.73805  0.03855  Biso   1.000  C
  C74      1.0000 0.32637  0.73135  0.04393  Biso   1.000  C
  C75      1.0000 0.35864  0.73046  0.01516  Biso   1.000  C
  C76      1.0000 0.35885  0.73647  0.98147  Biso   1.000  C
  C77      1.0000 0.32716  0.74232  0.97850  Biso   1.000  C
  C78      1.0000 0.39242  0.73548  0.94980  Biso   1.000  C
  C79      1.0000 0.27089  0.52505  0.16339  Biso   1.000  C
  C80      1.0000 0.29767  0.70453  0.94473  Biso   1.000  C
  C81      1.0000 0.06214  0.79306  0.18470  Biso   1.000  C
  C82      1.0000 0.09477  0.79695  0.15831  Biso   1.000  C
  C83      1.0000 0.12515  0.76651  0.15525  Biso   1.000  C
  C84      1.0000 0.12187  0.73313  0.18053  Biso   1.000  C
  C85      1.0000 0.08856  0.73190  0.20724  Biso   1.000  C
  C86      1.0000 0.17917  0.54121  0.29249  Biso   1.000  C
  C87      1.0000 0.14960  0.57210  0.29760  Biso   1.000  C
  C88      1.0000 0.14809  0.60439  0.26945  Biso   1.000  C
  C89      1.0000 0.17704  0.60504  0.23664  Biso   1.000  C
  C90      1.0000 0.20533  0.57293  0.23385  Biso   1.000  C
  C91      1.0000 0.17688  0.63868  0.20476  Biso   1.000  C
  C92      1.0000 0.15183  0.69863  0.17867  Biso   1.000  C
  C93      1.0000 0.20244  0.66608  0.14504  Biso   1.000  C
  C94      1.0000 0.22777  0.69519  0.07901  Biso   1.000  C
  C95      1.0000 0.22981  0.66417  0.10959  Biso   1.000  C
  C96      1.0000 0.25785  0.63223  0.10515  Biso   1.000  C
  C97      1.0000 0.28246  0.63302  0.07064  Biso   1.000  C
  C98      1.0000 0.27875  0.66539  0.04205  Biso   1.000  C
  C99      1.0000 0.23805  0.79591  0.92749  Biso   1.000  C
  C100     1.0000 0.23135  0.82637  0.89835  Biso   1.000  C
  C101     1.0000 0.23046  0.85864  0.89574  Biso   1.000  C
  C102     1.0000 0.23647  0.85885  0.92321  Biso   1.000  C
  C103     1.0000 0.24232  0.82716  0.95202  Biso   1.000  C
  C104     1.0000 0.23548  0.89242  0.92230  Biso   1.000  C
  C105     1.0000 0.54067  0.52505  0.77089  Biso   1.000  C
  C106     1.0000 0.55307  0.70453  0.79767  Biso   1.000  C
  C107     1.0000 0.46010  0.79306  0.56214  Biso   1.000  C
  C108     1.0000 0.44997  0.79695  0.59477  Biso   1.000  C
  C109     1.0000 0.45309  0.76651  0.62515  Biso   1.000  C
  C110     1.0000 0.46447  0.73313  0.62187  Biso   1.000  C
  C111     1.0000 0.47230  0.73190  0.58856  Biso   1.000  C
  C112     1.0000 0.48713  0.54121  0.67917  Biso   1.000  C
  C113     1.0000 0.48070  0.57210  0.64960  Biso   1.000  C
  C114     1.0000 0.47807  0.60439  0.64809  Biso   1.000  C
  C115     1.0000 0.48128  0.60504  0.67704  Biso   1.000  C
  C116     1.0000 0.48789  0.57293  0.70533  Biso   1.000  C
  C117     1.0000 0.47968  0.63868  0.67688  Biso   1.000  C
  C118     1.0000 0.47087  0.69863  0.65183  Biso   1.000  C
  C119     1.0000 0.48644  0.66608  0.70244  Biso   1.000  C
  C120     1.0000 0.49803  0.69519  0.72777  Biso   1.000  C
  C121     1.0000 0.49643  0.66417  0.72981  Biso   1.000  C
  C122     1.0000 0.50477  0.63223  0.75785  Biso   1.000  C
  C123     1.0000 0.51388  0.63302  0.78246  Biso   1.000  C
  C124     1.0000 0.51381  0.66539  0.77875  Biso   1.000  C
  C125     1.0000 0.53855  0.79591  0.73805  Biso   1.000  C
  C126     1.0000 0.54393  0.82637  0.73135  Biso   1.000  C
  C127     1.0000 0.51516  0.85864  0.73046  Biso   1.000  C
  C128     1.0000 0.48147  0.85885  0.73647  Biso   1.000  C
  C129     1.0000 0.47850  0.82716  0.74232  Biso   1.000  C
  C130     1.0000 0.44980  0.89242  0.73548  Biso   1.000  C
  C131     1.0000 0.66339  0.77089  0.52505  Biso   1.000  C
  C132     1.0000 0.44473  0.79767  0.70453  Biso   1.000  C
  C133     1.0000 0.68470  0.56214  0.79306  Biso   1.000  C
  C134     1.0000 0.65831  0.59477  0.79695  Biso   1.000  C
  C135     1.0000 0.65525  0.62515  0.76651  Biso   1.000  C
  C136     1.0000 0.68053  0.62187  0.73313  Biso   1.000  C
  C137     1.0000 0.70724  0.58856  0.73190  Biso   1.000  C
  C138     1.0000 0.79249  0.67917  0.54121  Biso   1.000  C
  C139     1.0000 0.79760  0.64960  0.57210  Biso   1.000  C
  C140     1.0000 0.76945  0.64809  0.60439  Biso   1.000  C
  C141     1.0000 0.73664  0.67704  0.60504  Biso   1.000  C
  C142     1.0000 0.73385  0.70533  0.57293  Biso   1.000  C
  C143     1.0000 0.70476  0.67688  0.63868  Biso   1.000  C
  C144     1.0000 0.67867  0.65183  0.69863  Biso   1.000  C
  C145     1.0000 0.64504  0.70244  0.66608  Biso   1.000  C
  C146     1.0000 0.57901  0.72777  0.69519  Biso   1.000  C
  C147     1.0000 0.60959  0.72981  0.66417  Biso   1.000  C
  C148     1.0000 0.60515  0.75785  0.63223  Biso   1.000  C
  C149     1.0000 0.57064  0.78246  0.63302  Biso   1.000  C
  C150     1.0000 0.54205  0.77875  0.66539  Biso   1.000  C
  C151     1.0000 0.42749  0.73805  0.79591  Biso   1.000  C
  C152     1.0000 0.39835  0.73135  0.82637  Biso   1.000  C
  C153     1.0000 0.39574  0.73046  0.85864  Biso   1.000  C
  C154     1.0000 0.42321  0.73647  0.85885  Biso   1.000  C
  C155     1.0000 0.45202  0.74232  0.82716  Biso   1.000  C
  C156     1.0000 0.42230  0.73548  0.89242  Biso   1.000  C
  C157     1.0000 0.02505  0.04067  0.16339  Biso   1.000  C
  C158     1.0000 0.20453  0.05307  0.94473  Biso   1.000  C
  C159     1.0000 0.29306  0.96010  0.18470  Biso   1.000  C
  C160     1.0000 0.29695  0.94997  0.15831  Biso   1.000  C
  C161     1.0000 0.26651  0.95309  0.15525  Biso   1.000  C
  C162     1.0000 0.23313  0.96447  0.18053  Biso   1.000  C
  C163     1.0000 0.23190  0.97230  0.20724  Biso   1.000  C
  C164     1.0000 0.04121  0.98713  0.29249  Biso   1.000  C
  C165     1.0000 0.07210  0.98070  0.29760  Biso   1.000  C
  C166     1.0000 0.10439  0.97807  0.26945  Biso   1.000  C
  C167     1.0000 0.10504  0.98128  0.23664  Biso   1.000  C
  C168     1.0000 0.07293  0.98789  0.23385  Biso   1.000  C
  C169     1.0000 0.13868  0.97968  0.20476  Biso   1.000  C
  C170     1.0000 0.19863  0.97087  0.17867  Biso   1.000  C
  C171     1.0000 0.16608  0.98644  0.14504  Biso   1.000  C
  C172     1.0000 0.19519  0.99803  0.07901  Biso   1.000  C
  C173     1.0000 0.16417  0.99643  0.10959  Biso   1.000  C
  C174     1.0000 0.13223  0.00477  0.10515  Biso   1.000  C
  C175     1.0000 0.13302  0.01388  0.07064  Biso   1.000  C
  C176     1.0000 0.16539  0.01381  0.04205  Biso   1.000  C
  C177     1.0000 0.29591  0.03855  0.92749  Biso   1.000  C
  C178     1.0000 0.32637  0.04393  0.89835  Biso   1.000  C
  C179     1.0000 0.35864  0.01516  0.89574  Biso   1.000  C
  C180     1.0000 0.35885  0.98147  0.92321  Biso   1.000  C
  C181     1.0000 0.32716  0.97850  0.95202  Biso   1.000  C
  C182     1.0000 0.39242  0.94980  0.92230  Biso   1.000  C
  C183     1.0000 0.27089  0.16339  0.04067  Biso   1.000  C
  C184     1.0000 0.29767  0.94473  0.05307  Biso   1.000  C
  C185     1.0000 0.06214  0.18470  0.96010  Biso   1.000  C
  C186     1.0000 0.09477  0.15831  0.94997  Biso   1.000  C
  C187     1.0000 0.12515  0.15525  0.95309  Biso   1.000  C
  C188     1.0000 0.12187  0.18053  0.96447  Biso   1.000  C
  C189     1.0000 0.08856  0.20724  0.97230  Biso   1.000  C
  C190     1.0000 0.17917  0.29249  0.98713  Biso   1.000  C
  C191     1.0000 0.14960  0.29760  0.98070  Biso   1.000  C
  C192     1.0000 0.14809  0.26945  0.97807  Biso   1.000  C
  C193     1.0000 0.17704  0.23664  0.98128  Biso   1.000  C
  C194     1.0000 0.20533  0.23385  0.98789  Biso   1.000  C
  C195     1.0000 0.17688  0.20476  0.97968  Biso   1.000  C
  C196     1.0000 0.15183  0.17867  0.97087  Biso   1.000  C
  C197     1.0000 0.20244  0.14504  0.98644  Biso   1.000  C
  C198     1.0000 0.22777  0.07901  0.99803  Biso   1.000  C
  C199     1.0000 0.22981  0.10959  0.99643  Biso   1.000  C
  C200     1.0000 0.25785  0.10515  0.00477  Biso   1.000  C
  C201     1.0000 0.28246  0.07064  0.01388  Biso   1.000  C
  C202     1.0000 0.27875  0.04205  0.01381  Biso   1.000  C
  C203     1.0000 0.23805  0.92749  0.03855  Biso   1.000  C
  C204     1.0000 0.23135  0.89835  0.04393  Biso   1.000  C
  C205     1.0000 0.23046  0.89574  0.01516  Biso   1.000  C
  C206     1.0000 0.23647  0.92321  0.98147  Biso   1.000  C
  C207     1.0000 0.24232  0.95202  0.97850  Biso   1.000  C
  C208     1.0000 0.23548  0.92230  0.94980  Biso   1.000  C
  C209     1.0000 0.54067  0.77089  0.16339  Biso   1.000  C
  C210     1.0000 0.55307  0.79767  0.94473  Biso   1.000  C
  C211     1.0000 0.46010  0.56214  0.18470  Biso   1.000  C
  C212     1.0000 0.44997  0.59477  0.15831  Biso   1.000  C
  C213     1.0000 0.45309  0.62515  0.15525  Biso   1.000  C
  C214     1.0000 0.46447  0.62187  0.18053  Biso   1.000  C
  C215     1.0000 0.47230  0.58856  0.20724  Biso   1.000  C
  C216     1.0000 0.48713  0.67917  0.29249  Biso   1.000  C
  C217     1.0000 0.48070  0.64960  0.29760  Biso   1.000  C
  C218     1.0000 0.47807  0.64809  0.26945  Biso   1.000  C
  C219     1.0000 0.48128  0.67704  0.23664  Biso   1.000  C
  C220     1.0000 0.48789  0.70533  0.23385  Biso   1.000  C
  C221     1.0000 0.47968  0.67688  0.20476  Biso   1.000  C
  C222     1.0000 0.47087  0.65183  0.17867  Biso   1.000  C
  C223     1.0000 0.48644  0.70244  0.14504  Biso   1.000  C
  C224     1.0000 0.49803  0.72777  0.07901  Biso   1.000  C
  C225     1.0000 0.49643  0.72981  0.10959  Biso   1.000  C
  C226     1.0000 0.50477  0.75785  0.10515  Biso   1.000  C
  C227     1.0000 0.51388  0.78246  0.07064  Biso   1.000  C
  C228     1.0000 0.51381  0.77875  0.04205  Biso   1.000  C
  C229     1.0000 0.53855  0.73805  0.92749  Biso   1.000  C
  C230     1.0000 0.54393  0.73135  0.89835  Biso   1.000  C
  C231     1.0000 0.51516  0.73046  0.89574  Biso   1.000  C
  C232     1.0000 0.48147  0.73647  0.92321  Biso   1.000  C
  C233     1.0000 0.47850  0.74232  0.95202  Biso   1.000  C
  C234     1.0000 0.44980  0.73548  0.92230  Biso   1.000  C
  C235     1.0000 0.66339  0.52505  0.04067  Biso   1.000  C
  C236     1.0000 0.44473  0.70453  0.05307  Biso   1.000  C
  C237     1.0000 0.68470  0.79306  0.96010  Biso   1.000  C
  C238     1.0000 0.65831  0.79695  0.94997  Biso   1.000  C
  C239     1.0000 0.65525  0.76651  0.95309  Biso   1.000  C
  C240     1.0000 0.68053  0.73313  0.96447  Biso   1.000  C
  C241     1.0000 0.70724  0.73190  0.97230  Biso   1.000  C
  C242     1.0000 0.79249  0.54121  0.98713  Biso   1.000  C
  C243     1.0000 0.79760  0.57210  0.98070  Biso   1.000  C
  C244     1.0000 0.76945  0.60439  0.97807  Biso   1.000  C
  C245     1.0000 0.73664  0.60504  0.98128  Biso   1.000  C
  C246     1.0000 0.73385  0.57293  0.98789  Biso   1.000  C
  C247     1.0000 0.70476  0.63868  0.97968  Biso   1.000  C
  C248     1.0000 0.67867  0.69863  0.97087  Biso   1.000  C
  C249     1.0000 0.64504  0.66608  0.98644  Biso   1.000  C
  C250     1.0000 0.57901  0.69519  0.99803  Biso   1.000  C
  C251     1.0000 0.60959  0.66417  0.99643  Biso   1.000  C
  C252     1.0000 0.60515  0.63223  0.00477  Biso   1.000  C
  C253     1.0000 0.57064  0.63302  0.01388  Biso   1.000  C
  C254     1.0000 0.54205  0.66539  0.01381  Biso   1.000  C
  C255     1.0000 0.42749  0.79591  0.03855  Biso   1.000  C
  C256     1.0000 0.39835  0.82637  0.04393  Biso   1.000  C
  C257     1.0000 0.39574  0.85864  0.01516  Biso   1.000  C
  C258     1.0000 0.42321  0.85885  0.98147  Biso   1.000  C
  C259     1.0000 0.45202  0.82716  0.97850  Biso   1.000  C
  C260     1.0000 0.42230  0.89242  0.94980  Biso   1.000  C
  C261     1.0000 0.02505  0.16339  0.77089  Biso   1.000  C
  C262     1.0000 0.20453  0.94473  0.79767  Biso   1.000  C
  C263     1.0000 0.29306  0.18470  0.56214  Biso   1.000  C
  C264     1.0000 0.29695  0.15831  0.59477  Biso   1.000  C
  C265     1.0000 0.26651  0.15525  0.62515  Biso   1.000  C
  C266     1.0000 0.23313  0.18053  0.62187  Biso   1.000  C
  C267     1.0000 0.23190  0.20724  0.58856  Biso   1.000  C
  C268     1.0000 0.04121  0.29249  0.67917  Biso   1.000  C
  C269     1.0000 0.07210  0.29760  0.64960  Biso   1.000  C
  C270     1.0000 0.10439  0.26945  0.64809  Biso   1.000  C
  C271     1.0000 0.10504  0.23664  0.67704  Biso   1.000  C
  C272     1.0000 0.07293  0.23385  0.70533  Biso   1.000  C
  C273     1.0000 0.13868  0.20476  0.67688  Biso   1.000  C
  C274     1.0000 0.19863  0.17867  0.65183  Biso   1.000  C
  C275     1.0000 0.16608  0.14504  0.70244  Biso   1.000  C
  C276     1.0000 0.19519  0.07901  0.72777  Biso   1.000  C
  C277     1.0000 0.16417  0.10959  0.72981  Biso   1.000  C
  C278     1.0000 0.13223  0.10515  0.75785  Biso   1.000  C
  C279     1.0000 0.13302  0.07064  0.78246  Biso   1.000  C
  C280     1.0000 0.16539  0.04205  0.77875  Biso   1.000  C
  C281     1.0000 0.29591  0.92749  0.73805  Biso   1.000  C
  C282     1.0000 0.32637  0.89835  0.73135  Biso   1.000  C
  C283     1.0000 0.35864  0.89574  0.73046  Biso   1.000  C
  C284     1.0000 0.35885  0.92321  0.73647  Biso   1.000  C
  C285     1.0000 0.32716  0.95202  0.74232  Biso   1.000  C
  C286     1.0000 0.39242  0.92230  0.73548  Biso   1.000  C
  C287     1.0000 0.27089  0.04067  0.52505  Biso   1.000  C
  C288     1.0000 0.29767  0.05307  0.70453  Biso   1.000  C
  C289     1.0000 0.06214  0.96010  0.79306  Biso   1.000  C
  C290     1.0000 0.09477  0.94997  0.79695  Biso   1.000  C
  C291     1.0000 0.12515  0.95309  0.76651  Biso   1.000  C
  C292     1.0000 0.12187  0.96447  0.73313  Biso   1.000  C
  C293     1.0000 0.08856  0.97230  0.73190  Biso   1.000  C
  C294     1.0000 0.17917  0.98713  0.54121  Biso   1.000  C
  C295     1.0000 0.14960  0.98070  0.57210  Biso   1.000  C
  C296     1.0000 0.14809  0.97807  0.60439  Biso   1.000  C
  C297     1.0000 0.17704  0.98128  0.60504  Biso   1.000  C
  C298     1.0000 0.20533  0.98789  0.57293  Biso   1.000  C
  C299     1.0000 0.17688  0.97968  0.63868  Biso   1.000  C
  C300     1.0000 0.15183  0.97087  0.69863  Biso   1.000  C
  C301     1.0000 0.20244  0.98644  0.66608  Biso   1.000  C
  C302     1.0000 0.22777  0.99803  0.69519  Biso   1.000  C
  C303     1.0000 0.22981  0.99643  0.66417  Biso   1.000  C
  C304     1.0000 0.25785  0.00477  0.63223  Biso   1.000  C
  C305     1.0000 0.28246  0.01388  0.63302  Biso   1.000  C
  C306     1.0000 0.27875  0.01381  0.66539  Biso   1.000  C
  C307     1.0000 0.23805  0.03855  0.79591  Biso   1.000  C
  C308     1.0000 0.23135  0.04393  0.82637  Biso   1.000  C
  C309     1.0000 0.23046  0.01516  0.85864  Biso   1.000  C
  C310     1.0000 0.23647  0.98147  0.85885  Biso   1.000  C
  C311     1.0000 0.24232  0.97850  0.82716  Biso   1.000  C
  C312     1.0000 0.23548  0.94980  0.89242  Biso   1.000  C
  C313     1.0000 0.83661  0.45933  0.97495  Biso   1.000  C
  C314     1.0000 0.05527  0.44693  0.79547  Biso   1.000  C
  C315     1.0000 0.81530  0.53990  0.70694  Biso   1.000  C
  C316     1.0000 0.84169  0.55003  0.70305  Biso   1.000  C
  C317     1.0000 0.84475  0.54691  0.73349  Biso   1.000  C
  C318     1.0000 0.81947  0.53553  0.76687  Biso   1.000  C
  C319     1.0000 0.79276  0.52770  0.76810  Biso   1.000  C
  C320     1.0000 0.70751  0.51287  0.95879  Biso   1.000  C
  C321     1.0000 0.70240  0.51930  0.92790  Biso   1.000  C
  C322     1.0000 0.73055  0.52193  0.89561  Biso   1.000  C
  C323     1.0000 0.76336  0.51872  0.89496  Biso   1.000  C
  C324     1.0000 0.76615  0.51211  0.92707  Biso   1.000  C
  C325     1.0000 0.79524  0.52032  0.86132  Biso   1.000  C
  C326     1.0000 0.82133  0.52913  0.80137  Biso   1.000  C
  C327     1.0000 0.85496  0.51356  0.83392  Biso   1.000  C
  C328     1.0000 0.92099  0.50197  0.80481  Biso   1.000  C
  C329     1.0000 0.89041  0.50357  0.83583  Biso   1.000  C
  C330     1.0000 0.89485  0.49523  0.86777  Biso   1.000  C
  C331     1.0000 0.92936  0.48612  0.86698  Biso   1.000  C
  C332     1.0000 0.95795  0.48619  0.83461  Biso   1.000  C
  C333     1.0000 0.07251  0.46145  0.70409  Biso   1.000  C
  C334     1.0000 0.10165  0.45607  0.67363  Biso   1.000  C
  C335     1.0000 0.10426  0.48484  0.64136  Biso   1.000  C
  C336     1.0000 0.07679  0.51853  0.64115  Biso   1.000  C
  C337     1.0000 0.04798  0.52150  0.67284  Biso   1.000  C
  C338     1.0000 0.07770  0.55020  0.60758  Biso   1.000  C
  C339     1.0000 0.95933  0.33661  0.72911  Biso   1.000  C
  C340     1.0000 0.94693  0.55527  0.70233  Biso   1.000  C
  C341     1.0000 0.03990  0.31530  0.93786  Biso   1.000  C
  C342     1.0000 0.05003  0.34169  0.90523  Biso   1.000  C
  C343     1.0000 0.04691  0.34475  0.87485  Biso   1.000  C
  C344     1.0000 0.03553  0.31947  0.87813  Biso   1.000  C
  C345     1.0000 0.02770  0.29276  0.91144  Biso   1.000  C
  C346     1.0000 0.01287  0.20751  0.82083  Biso   1.000  C
  C347     1.0000 0.01930  0.20240  0.85040  Biso   1.000  C
  C348     1.0000 0.02193  0.23055  0.85191  Biso   1.000  C
  C349     1.0000 0.01872  0.26336  0.82296  Biso   1.000  C
  C350     1.0000 0.01211  0.26615  0.79467  Biso   1.000  C
  C351     1.0000 0.02032  0.29524  0.82312  Biso   1.000  C
  C352     1.0000 0.02913  0.32133  0.84817  Biso   1.000  C
  C353     1.0000 0.01356  0.35496  0.79756  Biso   1.000  C
  C354     1.0000 0.00197  0.42099  0.77223  Biso   1.000  C
  C355     1.0000 0.00357  0.39041  0.77019  Biso   1.000  C
  C356     1.0000 0.99523  0.39485  0.74215  Biso   1.000  C
  C357     1.0000 0.98612  0.42936  0.71754  Biso   1.000  C
  C358     1.0000 0.98619  0.45795  0.72125  Biso   1.000  C
  C359     1.0000 0.96145  0.57251  0.76195  Biso   1.000  C
  C360     1.0000 0.95607  0.60165  0.76865  Biso   1.000  C
  C361     1.0000 0.98484  0.60426  0.76954  Biso   1.000  C
  C362     1.0000 0.01853  0.57679  0.76353  Biso   1.000  C
  C363     1.0000 0.02150  0.54798  0.75768  Biso   1.000  C
  C364     1.0000 0.05020  0.57770  0.76452  Biso   1.000  C
  C365     1.0000 0.22911  0.97495  0.45933  Biso   1.000  C
  C366     1.0000 0.20233  0.79547  0.44693  Biso   1.000  C
  C367     1.0000 0.43786  0.70694  0.53990  Biso   1.000  C
  C368     1.0000 0.40523  0.70305  0.55003  Biso   1.000  C
  C369     1.0000 0.37485  0.73349  0.54691  Biso   1.000  C
  C370     1.0000 0.37813  0.76687  0.53553  Biso   1.000  C
  C371     1.0000 0.41144  0.76810  0.52770  Biso   1.000  C
  C372     1.0000 0.32083  0.95879  0.51287  Biso   1.000  C
  C373     1.0000 0.35040  0.92790  0.51930  Biso   1.000  C
  C374     1.0000 0.35191  0.89561  0.52193  Biso   1.000  C
  C375     1.0000 0.32296  0.89496  0.51872  Biso   1.000  C
  C376     1.0000 0.29467  0.92707  0.51211  Biso   1.000  C
  C377     1.0000 0.32312  0.86132  0.52032  Biso   1.000  C
  C378     1.0000 0.34817  0.80137  0.52913  Biso   1.000  C
  C379     1.0000 0.29756  0.83392  0.51356  Biso   1.000  C
  C380     1.0000 0.27223  0.80481  0.50197  Biso   1.000  C
  C381     1.0000 0.27019  0.83583  0.50357  Biso   1.000  C
  C382     1.0000 0.24215  0.86777  0.49523  Biso   1.000  C
  C383     1.0000 0.21754  0.86698  0.48612  Biso   1.000  C
  C384     1.0000 0.22125  0.83461  0.48619  Biso   1.000  C
  C385     1.0000 0.26195  0.70409  0.46145  Biso   1.000  C
  C386     1.0000 0.26865  0.67363  0.45607  Biso   1.000  C
  C387     1.0000 0.26954  0.64136  0.48484  Biso   1.000  C
  C388     1.0000 0.26353  0.64115  0.51853  Biso   1.000  C
  C389     1.0000 0.25768  0.67284  0.52150  Biso   1.000  C
  C390     1.0000 0.26452  0.60758  0.55020  Biso   1.000  C
  C391     1.0000 0.47495  0.72911  0.33661  Biso   1.000  C
  C392     1.0000 0.29547  0.70233  0.55527  Biso   1.000  C
  C393     1.0000 0.20694  0.93786  0.31530  Biso   1.000  C
  C394     1.0000 0.20305  0.90523  0.34169  Biso   1.000  C
  C395     1.0000 0.23349  0.87485  0.34475  Biso   1.000  C
  C396     1.0000 0.26687  0.87813  0.31947  Biso   1.000  C
  C397     1.0000 0.26810  0.91144  0.29276  Biso   1.000  C
  C398     1.0000 0.45879  0.82083  0.20751  Biso   1.000  C
  C399     1.0000 0.42790  0.85040  0.20240  Biso   1.000  C
  C400     1.0000 0.39561  0.85191  0.23055  Biso   1.000  C
  C401     1.0000 0.39496  0.82296  0.26336  Biso   1.000  C
  C402     1.0000 0.42707  0.79467  0.26615  Biso   1.000  C
  C403     1.0000 0.36132  0.82312  0.29524  Biso   1.000  C
  C404     1.0000 0.30137  0.84817  0.32133  Biso   1.000  C
  C405     1.0000 0.33392  0.79756  0.35496  Biso   1.000  C
  C406     1.0000 0.30481  0.77223  0.42099  Biso   1.000  C
  C407     1.0000 0.33583  0.77019  0.39041  Biso   1.000  C
  C408     1.0000 0.36777  0.74215  0.39485  Biso   1.000  C
  C409     1.0000 0.36698  0.71754  0.42936  Biso   1.000  C
  C410     1.0000 0.33461  0.72125  0.45795  Biso   1.000  C
  C411     1.0000 0.20409  0.76195  0.57251  Biso   1.000  C
  C412     1.0000 0.17363  0.76865  0.60165  Biso   1.000  C
  C413     1.0000 0.14136  0.76954  0.60426  Biso   1.000  C
  C414     1.0000 0.14115  0.76353  0.57679  Biso   1.000  C
  C415     1.0000 0.17284  0.75768  0.54798  Biso   1.000  C
  C416     1.0000 0.10758  0.76452  0.57770  Biso   1.000  C
  C417     1.0000 0.47495  0.45933  0.72911  Biso   1.000  C
  C418     1.0000 0.29547  0.44693  0.70233  Biso   1.000  C
  C419     1.0000 0.20694  0.53990  0.93786  Biso   1.000  C
  C420     1.0000 0.20305  0.55003  0.90523  Biso   1.000  C
  C421     1.0000 0.23349  0.54691  0.87485  Biso   1.000  C
  C422     1.0000 0.26687  0.53553  0.87813  Biso   1.000  C
  C423     1.0000 0.26810  0.52770  0.91144  Biso   1.000  C
  C424     1.0000 0.45879  0.51287  0.82083  Biso   1.000  C
  C425     1.0000 0.42790  0.51930  0.85040  Biso   1.000  C
  C426     1.0000 0.39561  0.52193  0.85191  Biso   1.000  C
  C427     1.0000 0.39496  0.51872  0.82296  Biso   1.000  C
  C428     1.0000 0.42707  0.51211  0.79467  Biso   1.000  C
  C429     1.0000 0.36132  0.52032  0.82312  Biso   1.000  C
  C430     1.0000 0.30137  0.52913  0.84817  Biso   1.000  C
  C431     1.0000 0.33392  0.51356  0.79756  Biso   1.000  C
  C432     1.0000 0.30481  0.50197  0.77223  Biso   1.000  C
  C433     1.0000 0.33583  0.50357  0.77019  Biso   1.000  C
  C434     1.0000 0.36777  0.49523  0.74215  Biso   1.000  C
  C435     1.0000 0.36698  0.48612  0.71754  Biso   1.000  C
  C436     1.0000 0.33461  0.48619  0.72125  Biso   1.000  C
  C437     1.0000 0.20409  0.46145  0.76195  Biso   1.000  C
  C438     1.0000 0.17363  0.45607  0.76865  Biso   1.000  C
  C439     1.0000 0.14136  0.48484  0.76954  Biso   1.000  C
  C440     1.0000 0.14115  0.51853  0.76353  Biso   1.000  C
  C441     1.0000 0.17284  0.52150  0.75768  Biso   1.000  C
  C442     1.0000 0.10758  0.55020  0.76452  Biso   1.000  C
  C443     1.0000 0.22911  0.33661  0.97495  Biso   1.000  C
  C444     1.0000 0.20233  0.55527  0.79547  Biso   1.000  C
  C445     1.0000 0.43786  0.31530  0.70694  Biso   1.000  C
  C446     1.0000 0.40523  0.34169  0.70305  Biso   1.000  C
  C447     1.0000 0.37485  0.34475  0.73349  Biso   1.000  C
  C448     1.0000 0.37813  0.31947  0.76687  Biso   1.000  C
  C449     1.0000 0.41144  0.29276  0.76810  Biso   1.000  C
  C450     1.0000 0.32083  0.20751  0.95879  Biso   1.000  C
  C451     1.0000 0.35040  0.20240  0.92790  Biso   1.000  C
  C452     1.0000 0.35191  0.23055  0.89561  Biso   1.000  C
  C453     1.0000 0.32296  0.26336  0.89496  Biso   1.000  C
  C454     1.0000 0.29467  0.26615  0.92707  Biso   1.000  C
  C455     1.0000 0.32312  0.29524  0.86132  Biso   1.000  C
  C456     1.0000 0.34817  0.32133  0.80137  Biso   1.000  C
  C457     1.0000 0.29756  0.35496  0.83392  Biso   1.000  C
  C458     1.0000 0.27223  0.42099  0.80481  Biso   1.000  C
  C459     1.0000 0.27019  0.39041  0.83583  Biso   1.000  C
  C460     1.0000 0.24215  0.39485  0.86777  Biso   1.000  C
  C461     1.0000 0.21754  0.42936  0.86698  Biso   1.000  C
  C462     1.0000 0.22125  0.45795  0.83461  Biso   1.000  C
  C463     1.0000 0.26195  0.57251  0.70409  Biso   1.000  C
  C464     1.0000 0.26865  0.60165  0.67363  Biso   1.000  C
  C465     1.0000 0.26954  0.60426  0.64136  Biso   1.000  C
  C466     1.0000 0.26353  0.57679  0.64115  Biso   1.000  C
  C467     1.0000 0.25768  0.54798  0.67284  Biso   1.000  C
  C468     1.0000 0.26452  0.57770  0.60758  Biso   1.000  C
  C469     1.0000 0.95933  0.97495  0.33661  Biso   1.000  C
  C470     1.0000 0.94693  0.79547  0.55527  Biso   1.000  C
  C471     1.0000 0.03990  0.70694  0.31530  Biso   1.000  C
  C472     1.0000 0.05003  0.70305  0.34169  Biso   1.000  C
  C473     1.0000 0.04691  0.73349  0.34475  Biso   1.000  C
  C474     1.0000 0.03553  0.76687  0.31947  Biso   1.000  C
  C475     1.0000 0.02770  0.76810  0.29276  Biso   1.000  C
  C476     1.0000 0.01287  0.95879  0.20751  Biso   1.000  C
  C477     1.0000 0.01930  0.92790  0.20240  Biso   1.000  C
  C478     1.0000 0.02193  0.89561  0.23055  Biso   1.000  C
  C479     1.0000 0.01872  0.89496  0.26336  Biso   1.000  C
  C480     1.0000 0.01211  0.92707  0.26615  Biso   1.000  C
  C481     1.0000 0.02032  0.86132  0.29524  Biso   1.000  C
  C482     1.0000 0.02913  0.80137  0.32133  Biso   1.000  C
  C483     1.0000 0.01356  0.83392  0.35496  Biso   1.000  C
  C484     1.0000 0.00197  0.80481  0.42099  Biso   1.000  C
  C485     1.0000 0.00357  0.83583  0.39041  Biso   1.000  C
  C486     1.0000 0.99523  0.86777  0.39485  Biso   1.000  C
  C487     1.0000 0.98612  0.86698  0.42936  Biso   1.000  C
  C488     1.0000 0.98619  0.83461  0.45795  Biso   1.000  C
  C489     1.0000 0.96145  0.70409  0.57251  Biso   1.000  C
  C490     1.0000 0.95607  0.67363  0.60165  Biso   1.000  C
  C491     1.0000 0.98484  0.64136  0.60426  Biso   1.000  C
  C492     1.0000 0.01853  0.64115  0.57679  Biso   1.000  C
  C493     1.0000 0.02150  0.67284  0.54798  Biso   1.000  C
  C494     1.0000 0.05020  0.60758  0.57770  Biso   1.000  C
  C495     1.0000 0.83661  0.72911  0.45933  Biso   1.000  C
  C496     1.0000 0.05527  0.70233  0.44693  Biso   1.000  C
  C497     1.0000 0.81530  0.93786  0.53990  Biso   1.000  C
  C498     1.0000 0.84169  0.90523  0.55003  Biso   1.000  C
  C499     1.0000 0.84475  0.87485  0.54691  Biso   1.000  C
  C500     1.0000 0.81947  0.87813  0.53553  Biso   1.000  C
  C501     1.0000 0.79276  0.91144  0.52770  Biso   1.000  C
  C502     1.0000 0.70751  0.82083  0.51287  Biso   1.000  C
  C503     1.0000 0.70240  0.85040  0.51930  Biso   1.000  C
  C504     1.0000 0.73055  0.85191  0.52193  Biso   1.000  C
  C505     1.0000 0.76336  0.82296  0.51872  Biso   1.000  C
  C506     1.0000 0.76615  0.79467  0.51211  Biso   1.000  C
  C507     1.0000 0.79524  0.82312  0.52032  Biso   1.000  C
  C508     1.0000 0.82133  0.84817  0.52913  Biso   1.000  C
  C509     1.0000 0.85496  0.79756  0.51356  Biso   1.000  C
  C510     1.0000 0.92099  0.77223  0.50197  Biso   1.000  C
  C511     1.0000 0.89041  0.77019  0.50357  Biso   1.000  C
  C512     1.0000 0.89485  0.74215  0.49523  Biso   1.000  C
  C513     1.0000 0.92936  0.71754  0.48612  Biso   1.000  C
  C514     1.0000 0.95795  0.72125  0.48619  Biso   1.000  C
  C515     1.0000 0.07251  0.76195  0.46145  Biso   1.000  C
  C516     1.0000 0.10165  0.76865  0.45607  Biso   1.000  C
  C517     1.0000 0.10426  0.76954  0.48484  Biso   1.000  C
  C518     1.0000 0.07679  0.76353  0.51853  Biso   1.000  C
  C519     1.0000 0.04798  0.75768  0.52150  Biso   1.000  C
  C520     1.0000 0.07770  0.76452  0.55020  Biso   1.000  C
  C521     1.0000 0.22911  0.45933  0.33661  Biso   1.000  C
  C522     1.0000 0.20233  0.44693  0.55527  Biso   1.000  C
  C523     1.0000 0.43786  0.53990  0.31530  Biso   1.000  C
  C524     1.0000 0.40523  0.55003  0.34169  Biso   1.000  C
  C525     1.0000 0.37485  0.54691  0.34475  Biso   1.000  C
  C526     1.0000 0.37813  0.53553  0.31947  Biso   1.000  C
  C527     1.0000 0.41144  0.52770  0.29276  Biso   1.000  C
  C528     1.0000 0.32083  0.51287  0.20751  Biso   1.000  C
  C529     1.0000 0.35040  0.51930  0.20240  Biso   1.000  C
  C530     1.0000 0.35191  0.52193  0.23055  Biso   1.000  C
  C531     1.0000 0.32296  0.51872  0.26336  Biso   1.000  C
  C532     1.0000 0.29467  0.51211  0.26615  Biso   1.000  C
  C533     1.0000 0.32312  0.52032  0.29524  Biso   1.000  C
  C534     1.0000 0.34817  0.52913  0.32133  Biso   1.000  C
  C535     1.0000 0.29756  0.51356  0.35496  Biso   1.000  C
  C536     1.0000 0.27223  0.50197  0.42099  Biso   1.000  C
  C537     1.0000 0.27019  0.50357  0.39041  Biso   1.000  C
  C538     1.0000 0.24215  0.49523  0.39485  Biso   1.000  C
  C539     1.0000 0.21754  0.48612  0.42936  Biso   1.000  C
  C540     1.0000 0.22125  0.48619  0.45795  Biso   1.000  C
  C541     1.0000 0.26195  0.46145  0.57251  Biso   1.000  C
  C542     1.0000 0.26865  0.45607  0.60165  Biso   1.000  C
  C543     1.0000 0.26954  0.48484  0.60426  Biso   1.000  C
  C544     1.0000 0.26353  0.51853  0.57679  Biso   1.000  C
  C545     1.0000 0.25768  0.52150  0.54798  Biso   1.000  C
  C546     1.0000 0.26452  0.55020  0.57770  Biso   1.000  C
  C547     1.0000 0.47495  0.33661  0.45933  Biso   1.000  C
  C548     1.0000 0.29547  0.55527  0.44693  Biso   1.000  C
  C549     1.0000 0.20694  0.31530  0.53990  Biso   1.000  C
  C550     1.0000 0.20305  0.34169  0.55003  Biso   1.000  C
  C551     1.0000 0.23349  0.34475  0.54691  Biso   1.000  C
  C552     1.0000 0.26687  0.31947  0.53553  Biso   1.000  C
  C553     1.0000 0.26810  0.29276  0.52770  Biso   1.000  C
  C554     1.0000 0.45879  0.20751  0.51287  Biso   1.000  C
  C555     1.0000 0.42790  0.20240  0.51930  Biso   1.000  C
  C556     1.0000 0.39561  0.23055  0.52193  Biso   1.000  C
  C557     1.0000 0.39496  0.26336  0.51872  Biso   1.000  C
  C558     1.0000 0.42707  0.26615  0.51211  Biso   1.000  C
  C559     1.0000 0.36132  0.29524  0.52032  Biso   1.000  C
  C560     1.0000 0.30137  0.32133  0.52913  Biso   1.000  C
  C561     1.0000 0.33392  0.35496  0.51356  Biso   1.000  C
  C562     1.0000 0.30481  0.42099  0.50197  Biso   1.000  C
  C563     1.0000 0.33583  0.39041  0.50357  Biso   1.000  C
  C564     1.0000 0.36777  0.39485  0.49523  Biso   1.000  C
  C565     1.0000 0.36698  0.42936  0.48612  Biso   1.000  C
  C566     1.0000 0.33461  0.45795  0.48619  Biso   1.000  C
  C567     1.0000 0.20409  0.57251  0.46145  Biso   1.000  C
  C568     1.0000 0.17363  0.60165  0.45607  Biso   1.000  C
  C569     1.0000 0.14136  0.60426  0.48484  Biso   1.000  C
  C570     1.0000 0.14115  0.57679  0.51853  Biso   1.000  C
  C571     1.0000 0.17284  0.54798  0.52150  Biso   1.000  C
  C572     1.0000 0.10758  0.57770  0.55020  Biso   1.000  C
  C573     1.0000 0.83661  0.97495  0.72911  Biso   1.000  C
  C574     1.0000 0.05527  0.79547  0.70233  Biso   1.000  C
  C575     1.0000 0.81530  0.70694  0.93786  Biso   1.000  C
  C576     1.0000 0.84169  0.70305  0.90523  Biso   1.000  C
  C577     1.0000 0.84475  0.73349  0.87485  Biso   1.000  C
  C578     1.0000 0.81947  0.76687  0.87813  Biso   1.000  C
  C579     1.0000 0.79276  0.76810  0.91144  Biso   1.000  C
  C580     1.0000 0.70751  0.95879  0.82083  Biso   1.000  C
  C581     1.0000 0.70240  0.92790  0.85040  Biso   1.000  C
  C582     1.0000 0.73055  0.89561  0.85191  Biso   1.000  C
  C583     1.0000 0.76336  0.89496  0.82296  Biso   1.000  C
  C584     1.0000 0.76615  0.92707  0.79467  Biso   1.000  C
  C585     1.0000 0.79524  0.86132  0.82312  Biso   1.000  C
  C586     1.0000 0.82133  0.80137  0.84817  Biso   1.000  C
  C587     1.0000 0.85496  0.83392  0.79756  Biso   1.000  C
  C588     1.0000 0.92099  0.80481  0.77223  Biso   1.000  C
  C589     1.0000 0.89041  0.83583  0.77019  Biso   1.000  C
  C590     1.0000 0.89485  0.86777  0.74215  Biso   1.000  C
  C591     1.0000 0.92936  0.86698  0.71754  Biso   1.000  C
  C592     1.0000 0.95795  0.83461  0.72125  Biso   1.000  C
  C593     1.0000 0.07251  0.70409  0.76195  Biso   1.000  C
  C594     1.0000 0.10165  0.67363  0.76865  Biso   1.000  C
  C595     1.0000 0.10426  0.64136  0.76954  Biso   1.000  C
  C596     1.0000 0.07679  0.64115  0.76353  Biso   1.000  C
  C597     1.0000 0.04798  0.67284  0.75768  Biso   1.000  C
  C598     1.0000 0.07770  0.60758  0.76452  Biso   1.000  C
  C599     1.0000 0.95933  0.72911  0.97495  Biso   1.000  C
  C600     1.0000 0.94693  0.70233  0.79547  Biso   1.000  C
  C601     1.0000 0.03990  0.93786  0.70694  Biso   1.000  C
  C602     1.0000 0.05003  0.90523  0.70305  Biso   1.000  C
  C603     1.0000 0.04691  0.87485  0.73349  Biso   1.000  C
  C604     1.0000 0.03553  0.87813  0.76687  Biso   1.000  C
  C605     1.0000 0.02770  0.91144  0.76810  Biso   1.000  C
  C606     1.0000 0.01287  0.82083  0.95879  Biso   1.000  C
  C607     1.0000 0.01930  0.85040  0.92790  Biso   1.000  C
  C608     1.0000 0.02193  0.85191  0.89561  Biso   1.000  C
  C609     1.0000 0.01872  0.82296  0.89496  Biso   1.000  C
  C610     1.0000 0.01211  0.79467  0.92707  Biso   1.000  C
  C611     1.0000 0.02032  0.82312  0.86132  Biso   1.000  C
  C612     1.0000 0.02913  0.84817  0.80137  Biso   1.000  C
  C613     1.0000 0.01356  0.79756  0.83392  Biso   1.000  C
  C614     1.0000 0.00197  0.77223  0.80481  Biso   1.000  C
  C615     1.0000 0.00357  0.77019  0.83583  Biso   1.000  C
  C616     1.0000 0.99523  0.74215  0.86777  Biso   1.000  C
  C617     1.0000 0.98612  0.71754  0.86698  Biso   1.000  C
  C618     1.0000 0.98619  0.72125  0.83461  Biso   1.000  C
  C619     1.0000 0.96145  0.76195  0.70409  Biso   1.000  C
  C620     1.0000 0.95607  0.76865  0.67363  Biso   1.000  C
  C621     1.0000 0.98484  0.76954  0.64136  Biso   1.000  C
  C622     1.0000 0.01853  0.76353  0.64115  Biso   1.000  C
  C623     1.0000 0.02150  0.75768  0.67284  Biso   1.000  C
  C624     1.0000 0.05020  0.76452  0.60758  Biso   1.000  C
  C625     1.0000 0.45933  0.83661  0.47495  Biso   1.000  C
  C626     1.0000 0.44693  0.05527  0.29547  Biso   1.000  C
  C627     1.0000 0.53990  0.81530  0.20694  Biso   1.000  C
  C628     1.0000 0.55003  0.84169  0.20305  Biso   1.000  C
  C629     1.0000 0.54691  0.84475  0.23349  Biso   1.000  C
  C630     1.0000 0.53553  0.81947  0.26687  Biso   1.000  C
  C631     1.0000 0.52770  0.79276  0.26810  Biso   1.000  C
  C632     1.0000 0.51287  0.70751  0.45879  Biso   1.000  C
  C633     1.0000 0.51930  0.70240  0.42790  Biso   1.000  C
  C634     1.0000 0.52193  0.73055  0.39561  Biso   1.000  C
  C635     1.0000 0.51872  0.76336  0.39496  Biso   1.000  C
  C636     1.0000 0.51211  0.76615  0.42707  Biso   1.000  C
  C637     1.0000 0.52032  0.79524  0.36132  Biso   1.000  C
  C638     1.0000 0.52913  0.82133  0.30137  Biso   1.000  C
  C639     1.0000 0.51356  0.85496  0.33392  Biso   1.000  C
  C640     1.0000 0.50197  0.92099  0.30481  Biso   1.000  C
  C641     1.0000 0.50357  0.89041  0.33583  Biso   1.000  C
  C642     1.0000 0.49523  0.89485  0.36777  Biso   1.000  C
  C643     1.0000 0.48612  0.92936  0.36698  Biso   1.000  C
  C644     1.0000 0.48619  0.95795  0.33461  Biso   1.000  C
  C645     1.0000 0.46145  0.07251  0.20409  Biso   1.000  C
  C646     1.0000 0.45607  0.10165  0.17363  Biso   1.000  C
  C647     1.0000 0.48484  0.10426  0.14136  Biso   1.000  C
  C648     1.0000 0.51853  0.07679  0.14115  Biso   1.000  C
  C649     1.0000 0.52150  0.04798  0.17284  Biso   1.000  C
  C650     1.0000 0.55020  0.07770  0.10758  Biso   1.000  C
  C651     1.0000 0.33661  0.95933  0.22911  Biso   1.000  C
  C652     1.0000 0.55527  0.94693  0.20233  Biso   1.000  C
  C653     1.0000 0.31530  0.03990  0.43786  Biso   1.000  C
  C654     1.0000 0.34169  0.05003  0.40523  Biso   1.000  C
  C655     1.0000 0.34475  0.04691  0.37485  Biso   1.000  C
  C656     1.0000 0.31947  0.03553  0.37813  Biso   1.000  C
  C657     1.0000 0.29276  0.02770  0.41144  Biso   1.000  C
  C658     1.0000 0.20751  0.01287  0.32083  Biso   1.000  C
  C659     1.0000 0.20240  0.01930  0.35040  Biso   1.000  C
  C660     1.0000 0.23055  0.02193  0.35191  Biso   1.000  C
  C661     1.0000 0.26336  0.01872  0.32296  Biso   1.000  C
  C662     1.0000 0.26615  0.01211  0.29467  Biso   1.000  C
  C663     1.0000 0.29524  0.02032  0.32312  Biso   1.000  C
  C664     1.0000 0.32133  0.02913  0.34817  Biso   1.000  C
  C665     1.0000 0.35496  0.01356  0.29756  Biso   1.000  C
  C666     1.0000 0.42099  0.00197  0.27223  Biso   1.000  C
  C667     1.0000 0.39041  0.00357  0.27019  Biso   1.000  C
  C668     1.0000 0.39485  0.99523  0.24215  Biso   1.000  C
  C669     1.0000 0.42936  0.98612  0.21754  Biso   1.000  C
  C670     1.0000 0.45795  0.98619  0.22125  Biso   1.000  C
  C671     1.0000 0.57251  0.96145  0.26195  Biso   1.000  C
  C672     1.0000 0.60165  0.95607  0.26865  Biso   1.000  C
  C673     1.0000 0.60426  0.98484  0.26954  Biso   1.000  C
  C674     1.0000 0.57679  0.01853  0.26353  Biso   1.000  C
  C675     1.0000 0.54798  0.02150  0.25768  Biso   1.000  C
  C676     1.0000 0.57770  0.05020  0.26452  Biso   1.000  C
  C677     1.0000 0.97495  0.22911  0.95933  Biso   1.000  C
  C678     1.0000 0.79547  0.20233  0.94693  Biso   1.000  C
  C679     1.0000 0.70694  0.43786  0.03990  Biso   1.000  C
  C680     1.0000 0.70305  0.40523  0.05003  Biso   1.000  C
  C681     1.0000 0.73349  0.37485  0.04691  Biso   1.000  C
  C682     1.0000 0.76687  0.37813  0.03553  Biso   1.000  C
  C683     1.0000 0.76810  0.41144  0.02770  Biso   1.000  C
  C684     1.0000 0.95879  0.32083  0.01287  Biso   1.000  C
  C685     1.0000 0.92790  0.35040  0.01930  Biso   1.000  C
  C686     1.0000 0.89561  0.35191  0.02193  Biso   1.000  C
  C687     1.0000 0.89496  0.32296  0.01872  Biso   1.000  C
  C688     1.0000 0.92707  0.29467  0.01211  Biso   1.000  C
  C689     1.0000 0.86132  0.32312  0.02032  Biso   1.000  C
  C690     1.0000 0.80137  0.34817  0.02913  Biso   1.000  C
  C691     1.0000 0.83392  0.29756  0.01356  Biso   1.000  C
  C692     1.0000 0.80481  0.27223  0.00197  Biso   1.000  C
  C693     1.0000 0.83583  0.27019  0.00357  Biso   1.000  C
  C694     1.0000 0.86777  0.24215  0.99523  Biso   1.000  C
  C695     1.0000 0.86698  0.21754  0.98612  Biso   1.000  C
  C696     1.0000 0.83461  0.22125  0.98619  Biso   1.000  C
  C697     1.0000 0.70409  0.26195  0.96145  Biso   1.000  C
  C698     1.0000 0.67363  0.26865  0.95607  Biso   1.000  C
  C699     1.0000 0.64136  0.26954  0.98484  Biso   1.000  C
  C700     1.0000 0.64115  0.26353  0.01853  Biso   1.000  C
  C701     1.0000 0.67284  0.25768  0.02150  Biso   1.000  C
  C702     1.0000 0.60758  0.26452  0.05020  Biso   1.000  C
  C703     1.0000 0.72911  0.47495  0.83661  Biso   1.000  C
  C704     1.0000 0.70233  0.29547  0.05527  Biso   1.000  C
  C705     1.0000 0.93786  0.20694  0.81530  Biso   1.000  C
  C706     1.0000 0.90523  0.20305  0.84169  Biso   1.000  C
  C707     1.0000 0.87485  0.23349  0.84475  Biso   1.000  C
  C708     1.0000 0.87813  0.26687  0.81947  Biso   1.000  C
  C709     1.0000 0.91144  0.26810  0.79276  Biso   1.000  C
  C710     1.0000 0.82083  0.45879  0.70751  Biso   1.000  C
  C711     1.0000 0.85040  0.42790  0.70240  Biso   1.000  C
  C712     1.0000 0.85191  0.39561  0.73055  Biso   1.000  C
  C713     1.0000 0.82296  0.39496  0.76336  Biso   1.000  C
  C714     1.0000 0.79467  0.42707  0.76615  Biso   1.000  C
  C715     1.0000 0.82312  0.36132  0.79524  Biso   1.000  C
  C716     1.0000 0.84817  0.30137  0.82133  Biso   1.000  C
  C717     1.0000 0.79756  0.33392  0.85496  Biso   1.000  C
  C718     1.0000 0.77223  0.30481  0.92099  Biso   1.000  C
  C719     1.0000 0.77019  0.33583  0.89041  Biso   1.000  C
  C720     1.0000 0.74215  0.36777  0.89485  Biso   1.000  C
  C721     1.0000 0.71754  0.36698  0.92936  Biso   1.000  C
  C722     1.0000 0.72125  0.33461  0.95795  Biso   1.000  C
  C723     1.0000 0.76195  0.20409  0.07251  Biso   1.000  C
  C724     1.0000 0.76865  0.17363  0.10165  Biso   1.000  C
  C725     1.0000 0.76954  0.14136  0.10426  Biso   1.000  C
  C726     1.0000 0.76353  0.14115  0.07679  Biso   1.000  C
  C727     1.0000 0.75768  0.17284  0.04798  Biso   1.000  C
  C728     1.0000 0.76452  0.10758  0.07770  Biso   1.000  C
  C729     1.0000 0.45933  0.47495  0.22911  Biso   1.000  C
  C730     1.0000 0.44693  0.29547  0.20233  Biso   1.000  C
  C731     1.0000 0.53990  0.20694  0.43786  Biso   1.000  C
  C732     1.0000 0.55003  0.20305  0.40523  Biso   1.000  C
  C733     1.0000 0.54691  0.23349  0.37485  Biso   1.000  C
  C734     1.0000 0.53553  0.26687  0.37813  Biso   1.000  C
  C735     1.0000 0.52770  0.26810  0.41144  Biso   1.000  C
  C736     1.0000 0.51287  0.45879  0.32083  Biso   1.000  C
  C737     1.0000 0.51930  0.42790  0.35040  Biso   1.000  C
  C738     1.0000 0.52193  0.39561  0.35191  Biso   1.000  C
  C739     1.0000 0.51872  0.39496  0.32296  Biso   1.000  C
  C740     1.0000 0.51211  0.42707  0.29467  Biso   1.000  C
  C741     1.0000 0.52032  0.36132  0.32312  Biso   1.000  C
  C742     1.0000 0.52913  0.30137  0.34817  Biso   1.000  C
  C743     1.0000 0.51356  0.33392  0.29756  Biso   1.000  C
  C744     1.0000 0.50197  0.30481  0.27223  Biso   1.000  C
  C745     1.0000 0.50357  0.33583  0.27019  Biso   1.000  C
  C746     1.0000 0.49523  0.36777  0.24215  Biso   1.000  C
  C747     1.0000 0.48612  0.36698  0.21754  Biso   1.000  C
  C748     1.0000 0.48619  0.33461  0.22125  Biso   1.000  C
  C749     1.0000 0.46145  0.20409  0.26195  Biso   1.000  C
  C750     1.0000 0.45607  0.17363  0.26865  Biso   1.000  C
  C751     1.0000 0.48484  0.14136  0.26954  Biso   1.000  C
  C752     1.0000 0.51853  0.14115  0.26353  Biso   1.000  C
  C753     1.0000 0.52150  0.17284  0.25768  Biso   1.000  C
  C754     1.0000 0.55020  0.10758  0.26452  Biso   1.000  C
  C755     1.0000 0.33661  0.22911  0.47495  Biso   1.000  C
  C756     1.0000 0.55527  0.20233  0.29547  Biso   1.000  C
  C757     1.0000 0.31530  0.43786  0.20694  Biso   1.000  C
  C758     1.0000 0.34169  0.40523  0.20305  Biso   1.000  C
  C759     1.0000 0.34475  0.37485  0.23349  Biso   1.000  C
  C760     1.0000 0.31947  0.37813  0.26687  Biso   1.000  C
  C761     1.0000 0.29276  0.41144  0.26810  Biso   1.000  C
  C762     1.0000 0.20751  0.32083  0.45879  Biso   1.000  C
  C763     1.0000 0.20240  0.35040  0.42790  Biso   1.000  C
  C764     1.0000 0.23055  0.35191  0.39561  Biso   1.000  C
  C765     1.0000 0.26336  0.32296  0.39496  Biso   1.000  C
  C766     1.0000 0.26615  0.29467  0.42707  Biso   1.000  C
  C767     1.0000 0.29524  0.32312  0.36132  Biso   1.000  C
  C768     1.0000 0.32133  0.34817  0.30137  Biso   1.000  C
  C769     1.0000 0.35496  0.29756  0.33392  Biso   1.000  C
  C770     1.0000 0.42099  0.27223  0.30481  Biso   1.000  C
  C771     1.0000 0.39041  0.27019  0.33583  Biso   1.000  C
  C772     1.0000 0.39485  0.24215  0.36777  Biso   1.000  C
  C773     1.0000 0.42936  0.21754  0.36698  Biso   1.000  C
  C774     1.0000 0.45795  0.22125  0.33461  Biso   1.000  C
  C775     1.0000 0.57251  0.26195  0.20409  Biso   1.000  C
  C776     1.0000 0.60165  0.26865  0.17363  Biso   1.000  C
  C777     1.0000 0.60426  0.26954  0.14136  Biso   1.000  C
  C778     1.0000 0.57679  0.26353  0.14115  Biso   1.000  C
  C779     1.0000 0.54798  0.25768  0.17284  Biso   1.000  C
  C780     1.0000 0.57770  0.26452  0.10758  Biso   1.000  C
  C781     1.0000 0.97495  0.95933  0.83661  Biso   1.000  C
  C782     1.0000 0.79547  0.94693  0.05527  Biso   1.000  C
  C783     1.0000 0.70694  0.03990  0.81530  Biso   1.000  C
  C784     1.0000 0.70305  0.05003  0.84169  Biso   1.000  C
  C785     1.0000 0.73349  0.04691  0.84475  Biso   1.000  C
  C786     1.0000 0.76687  0.03553  0.81947  Biso   1.000  C
  C787     1.0000 0.76810  0.02770  0.79276  Biso   1.000  C
  C788     1.0000 0.95879  0.01287  0.70751  Biso   1.000  C
  C789     1.0000 0.92790  0.01930  0.70240  Biso   1.000  C
  C790     1.0000 0.89561  0.02193  0.73055  Biso   1.000  C
  C791     1.0000 0.89496  0.01872  0.76336  Biso   1.000  C
  C792     1.0000 0.92707  0.01211  0.76615  Biso   1.000  C
  C793     1.0000 0.86132  0.02032  0.79524  Biso   1.000  C
  C794     1.0000 0.80137  0.02913  0.82133  Biso   1.000  C
  C795     1.0000 0.83392  0.01356  0.85496  Biso   1.000  C
  C796     1.0000 0.80481  0.00197  0.92099  Biso   1.000  C
  C797     1.0000 0.83583  0.00357  0.89041  Biso   1.000  C
  C798     1.0000 0.86777  0.99523  0.89485  Biso   1.000  C
  C799     1.0000 0.86698  0.98612  0.92936  Biso   1.000  C
  C800     1.0000 0.83461  0.98619  0.95795  Biso   1.000  C
  C801     1.0000 0.70409  0.96145  0.07251  Biso   1.000  C
  C802     1.0000 0.67363  0.95607  0.10165  Biso   1.000  C
  C803     1.0000 0.64136  0.98484  0.10426  Biso   1.000  C
  C804     1.0000 0.64115  0.01853  0.07679  Biso   1.000  C
  C805     1.0000 0.67284  0.02150  0.04798  Biso   1.000  C
  C806     1.0000 0.60758  0.05020  0.07770  Biso   1.000  C
  C807     1.0000 0.72911  0.83661  0.95933  Biso   1.000  C
  C808     1.0000 0.70233  0.05527  0.94693  Biso   1.000  C
  C809     1.0000 0.93786  0.81530  0.03990  Biso   1.000  C
  C810     1.0000 0.90523  0.84169  0.05003  Biso   1.000  C
  C811     1.0000 0.87485  0.84475  0.04691  Biso   1.000  C
  C812     1.0000 0.87813  0.81947  0.03553  Biso   1.000  C
  C813     1.0000 0.91144  0.79276  0.02770  Biso   1.000  C
  C814     1.0000 0.82083  0.70751  0.01287  Biso   1.000  C
  C815     1.0000 0.85040  0.70240  0.01930  Biso   1.000  C
  C816     1.0000 0.85191  0.73055  0.02193  Biso   1.000  C
  C817     1.0000 0.82296  0.76336  0.01872  Biso   1.000  C
  C818     1.0000 0.79467  0.76615  0.01211  Biso   1.000  C
  C819     1.0000 0.82312  0.79524  0.02032  Biso   1.000  C
  C820     1.0000 0.84817  0.82133  0.02913  Biso   1.000  C
  C821     1.0000 0.79756  0.85496  0.01356  Biso   1.000  C
  C822     1.0000 0.77223  0.92099  0.00197  Biso   1.000  C
  C823     1.0000 0.77019  0.89041  0.00357  Biso   1.000  C
  C824     1.0000 0.74215  0.89485  0.99523  Biso   1.000  C
  C825     1.0000 0.71754  0.92936  0.98612  Biso   1.000  C
  C826     1.0000 0.72125  0.95795  0.98619  Biso   1.000  C
  C827     1.0000 0.76195  0.07251  0.96145  Biso   1.000  C
  C828     1.0000 0.76865  0.10165  0.95607  Biso   1.000  C
  C829     1.0000 0.76954  0.10426  0.98484  Biso   1.000  C
  C830     1.0000 0.76353  0.07679  0.01853  Biso   1.000  C
  C831     1.0000 0.75768  0.04798  0.02150  Biso   1.000  C
  C832     1.0000 0.76452  0.07770  0.05020  Biso   1.000  C
  C833     1.0000 0.45933  0.22911  0.83661  Biso   1.000  C
  C834     1.0000 0.44693  0.20233  0.05527  Biso   1.000  C
  C835     1.0000 0.53990  0.43786  0.81530  Biso   1.000  C
  C836     1.0000 0.55003  0.40523  0.84169  Biso   1.000  C
  C837     1.0000 0.54691  0.37485  0.84475  Biso   1.000  C
  C838     1.0000 0.53553  0.37813  0.81947  Biso   1.000  C
  C839     1.0000 0.52770  0.41144  0.79276  Biso   1.000  C
  C840     1.0000 0.51287  0.32083  0.70751  Biso   1.000  C
  C841     1.0000 0.51930  0.35040  0.70240  Biso   1.000  C
  C842     1.0000 0.52193  0.35191  0.73055  Biso   1.000  C
  C843     1.0000 0.51872  0.32296  0.76336  Biso   1.000  C
  C844     1.0000 0.51211  0.29467  0.76615  Biso   1.000  C
  C845     1.0000 0.52032  0.32312  0.79524  Biso   1.000  C
  C846     1.0000 0.52913  0.34817  0.82133  Biso   1.000  C
  C847     1.0000 0.51356  0.29756  0.85496  Biso   1.000  C
  C848     1.0000 0.50197  0.27223  0.92099  Biso   1.000  C
  C849     1.0000 0.50357  0.27019  0.89041  Biso   1.000  C
  C850     1.0000 0.49523  0.24215  0.89485  Biso   1.000  C
  C851     1.0000 0.48612  0.21754  0.92936  Biso   1.000  C
  C852     1.0000 0.48619  0.22125  0.95795  Biso   1.000  C
  C853     1.0000 0.46145  0.26195  0.07251  Biso   1.000  C
  C854     1.0000 0.45607  0.26865  0.10165  Biso   1.000  C
  C855     1.0000 0.48484  0.26954  0.10426  Biso   1.000  C
  C856     1.0000 0.51853  0.26353  0.07679  Biso   1.000  C
  C857     1.0000 0.52150  0.25768  0.04798  Biso   1.000  C
  C858     1.0000 0.55020  0.26452  0.07770  Biso   1.000  C
  C859     1.0000 0.33661  0.47495  0.95933  Biso   1.000  C
  C860     1.0000 0.55527  0.29547  0.94693  Biso   1.000  C
  C861     1.0000 0.31530  0.20694  0.03990  Biso   1.000  C
  C862     1.0000 0.34169  0.20305  0.05003  Biso   1.000  C
  C863     1.0000 0.34475  0.23349  0.04691  Biso   1.000  C
  C864     1.0000 0.31947  0.26687  0.03553  Biso   1.000  C
  C865     1.0000 0.29276  0.26810  0.02770  Biso   1.000  C
  C866     1.0000 0.20751  0.45879  0.01287  Biso   1.000  C
  C867     1.0000 0.20240  0.42790  0.01930  Biso   1.000  C
  C868     1.0000 0.23055  0.39561  0.02193  Biso   1.000  C
  C869     1.0000 0.26336  0.39496  0.01872  Biso   1.000  C
  C870     1.0000 0.26615  0.42707  0.01211  Biso   1.000  C
  C871     1.0000 0.29524  0.36132  0.02032  Biso   1.000  C
  C872     1.0000 0.32133  0.30137  0.02913  Biso   1.000  C
  C873     1.0000 0.35496  0.33392  0.01356  Biso   1.000  C
  C874     1.0000 0.42099  0.30481  0.00197  Biso   1.000  C
  C875     1.0000 0.39041  0.33583  0.00357  Biso   1.000  C
  C876     1.0000 0.39485  0.36777  0.99523  Biso   1.000  C
  C877     1.0000 0.42936  0.36698  0.98612  Biso   1.000  C
  C878     1.0000 0.45795  0.33461  0.98619  Biso   1.000  C
  C879     1.0000 0.57251  0.20409  0.96145  Biso   1.000  C
  C880     1.0000 0.60165  0.17363  0.95607  Biso   1.000  C
  C881     1.0000 0.60426  0.14136  0.98484  Biso   1.000  C
  C882     1.0000 0.57679  0.14115  0.01853  Biso   1.000  C
  C883     1.0000 0.54798  0.17284  0.02150  Biso   1.000  C
  C884     1.0000 0.57770  0.10758  0.05020  Biso   1.000  C
  C885     1.0000 0.97495  0.83661  0.22911  Biso   1.000  C
  C886     1.0000 0.79547  0.05527  0.20233  Biso   1.000  C
  C887     1.0000 0.70694  0.81530  0.43786  Biso   1.000  C
  C888     1.0000 0.70305  0.84169  0.40523  Biso   1.000  C
  C889     1.0000 0.73349  0.84475  0.37485  Biso   1.000  C
  C890     1.0000 0.76687  0.81947  0.37813  Biso   1.000  C
  C891     1.0000 0.76810  0.79276  0.41144  Biso   1.000  C
  C892     1.0000 0.95879  0.70751  0.32083  Biso   1.000  C
  C893     1.0000 0.92790  0.70240  0.35040  Biso   1.000  C
  C894     1.0000 0.89561  0.73055  0.35191  Biso   1.000  C
  C895     1.0000 0.89496  0.76336  0.32296  Biso   1.000  C
  C896     1.0000 0.92707  0.76615  0.29467  Biso   1.000  C
  C897     1.0000 0.86132  0.79524  0.32312  Biso   1.000  C
  C898     1.0000 0.80137  0.82133  0.34817  Biso   1.000  C
  C899     1.0000 0.83392  0.85496  0.29756  Biso   1.000  C
  C900     1.0000 0.80481  0.92099  0.27223  Biso   1.000  C
  C901     1.0000 0.83583  0.89041  0.27019  Biso   1.000  C
  C902     1.0000 0.86777  0.89485  0.24215  Biso   1.000  C
  C903     1.0000 0.86698  0.92936  0.21754  Biso   1.000  C
  C904     1.0000 0.83461  0.95795  0.22125  Biso   1.000  C
  C905     1.0000 0.70409  0.07251  0.26195  Biso   1.000  C
  C906     1.0000 0.67363  0.10165  0.26865  Biso   1.000  C
  C907     1.0000 0.64136  0.10426  0.26954  Biso   1.000  C
  C908     1.0000 0.64115  0.07679  0.26353  Biso   1.000  C
  C909     1.0000 0.67284  0.04798  0.25768  Biso   1.000  C
  C910     1.0000 0.60758  0.07770  0.26452  Biso   1.000  C
  C911     1.0000 0.72911  0.95933  0.47495  Biso   1.000  C
  C912     1.0000 0.70233  0.94693  0.29547  Biso   1.000  C
  C913     1.0000 0.93786  0.03990  0.20694  Biso   1.000  C
  C914     1.0000 0.90523  0.05003  0.20305  Biso   1.000  C
  C915     1.0000 0.87485  0.04691  0.23349  Biso   1.000  C
  C916     1.0000 0.87813  0.03553  0.26687  Biso   1.000  C
  C917     1.0000 0.91144  0.02770  0.26810  Biso   1.000  C
  C918     1.0000 0.82083  0.01287  0.45879  Biso   1.000  C
  C919     1.0000 0.85040  0.01930  0.42790  Biso   1.000  C
  C920     1.0000 0.85191  0.02193  0.39561  Biso   1.000  C
  C921     1.0000 0.82296  0.01872  0.39496  Biso   1.000  C
  C922     1.0000 0.79467  0.01211  0.42707  Biso   1.000  C
  C923     1.0000 0.82312  0.02032  0.36132  Biso   1.000  C
  C924     1.0000 0.84817  0.02913  0.30137  Biso   1.000  C
  C925     1.0000 0.79756  0.01356  0.33392  Biso   1.000  C
  C926     1.0000 0.77223  0.00197  0.30481  Biso   1.000  C
  C927     1.0000 0.77019  0.00357  0.33583  Biso   1.000  C
  C928     1.0000 0.74215  0.99523  0.36777  Biso   1.000  C
  C929     1.0000 0.71754  0.98612  0.36698  Biso   1.000  C
  C930     1.0000 0.72125  0.98619  0.33461  Biso   1.000  C
  C931     1.0000 0.76195  0.96145  0.20409  Biso   1.000  C
  C932     1.0000 0.76865  0.95607  0.17363  Biso   1.000  C
  C933     1.0000 0.76954  0.98484  0.14136  Biso   1.000  C
  C934     1.0000 0.76353  0.01853  0.14115  Biso   1.000  C
  C935     1.0000 0.75768  0.02150  0.17284  Biso   1.000  C
  C936     1.0000 0.76452  0.05020  0.10758  Biso   1.000  C
  C937     1.0000 0.16339  0.54067  0.02505  Biso   1.000  C
  C938     1.0000 0.94473  0.55307  0.20453  Biso   1.000  C
  C939     1.0000 0.18470  0.46010  0.29306  Biso   1.000  C
  C940     1.0000 0.15831  0.44997  0.29695  Biso   1.000  C
  C941     1.0000 0.15525  0.45309  0.26651  Biso   1.000  C
  C942     1.0000 0.18053  0.46447  0.23313  Biso   1.000  C
  C943     1.0000 0.20724  0.47230  0.23190  Biso   1.000  C
  C944     1.0000 0.29249  0.48713  0.04121  Biso   1.000  C
  C945     1.0000 0.29760  0.48070  0.07210  Biso   1.000  C
  C946     1.0000 0.26945  0.47807  0.10439  Biso   1.000  C
  C947     1.0000 0.23664  0.48128  0.10504  Biso   1.000  C
  C948     1.0000 0.23385  0.48789  0.07293  Biso   1.000  C
  C949     1.0000 0.20476  0.47968  0.13868  Biso   1.000  C
  C950     1.0000 0.17867  0.47087  0.19863  Biso   1.000  C
  C951     1.0000 0.14504  0.48644  0.16608  Biso   1.000  C
  C952     1.0000 0.07901  0.49803  0.19519  Biso   1.000  C
  C953     1.0000 0.10959  0.49643  0.16417  Biso   1.000  C
  C954     1.0000 0.10515  0.50477  0.13223  Biso   1.000  C
  C955     1.0000 0.07064  0.51388  0.13302  Biso   1.000  C
  C956     1.0000 0.04205  0.51381  0.16539  Biso   1.000  C
  C957     1.0000 0.92749  0.53855  0.29591  Biso   1.000  C
  C958     1.0000 0.89835  0.54393  0.32637  Biso   1.000  C
  C959     1.0000 0.89574  0.51516  0.35864  Biso   1.000  C
  C960     1.0000 0.92321  0.48147  0.35885  Biso   1.000  C
  C961     1.0000 0.95202  0.47850  0.32716  Biso   1.000  C
  C962     1.0000 0.92230  0.44980  0.39242  Biso   1.000  C
  C963     1.0000 0.04067  0.66339  0.27089  Biso   1.000  C
  C964     1.0000 0.05307  0.44473  0.29767  Biso   1.000  C
  C965     1.0000 0.96010  0.68470  0.06214  Biso   1.000  C
  C966     1.0000 0.94997  0.65831  0.09477  Biso   1.000  C
  C967     1.0000 0.95309  0.65525  0.12515  Biso   1.000  C
  C968     1.0000 0.96447  0.68053  0.12187  Biso   1.000  C
  C969     1.0000 0.97230  0.70724  0.08856  Biso   1.000  C
  C970     1.0000 0.98713  0.79249  0.17917  Biso   1.000  C
  C971     1.0000 0.98070  0.79760  0.14960  Biso   1.000  C
  C972     1.0000 0.97807  0.76945  0.14809  Biso   1.000  C
  C973     1.0000 0.98128  0.73664  0.17704  Biso   1.000  C
  C974     1.0000 0.98789  0.73385  0.20533  Biso   1.000  C
  C975     1.0000 0.97968  0.70476  0.17688  Biso   1.000  C
  C976     1.0000 0.97087  0.67867  0.15183  Biso   1.000  C
  C977     1.0000 0.98644  0.64504  0.20244  Biso   1.000  C
  C978     1.0000 0.99803  0.57901  0.22777  Biso   1.000  C
  C979     1.0000 0.99643  0.60959  0.22981  Biso   1.000  C
  C980     1.0000 0.00477  0.60515  0.25785  Biso   1.000  C
  C981     1.0000 0.01388  0.57064  0.28246  Biso   1.000  C
  C982     1.0000 0.01381  0.54205  0.27875  Biso   1.000  C
  C983     1.0000 0.03855  0.42749  0.23805  Biso   1.000  C
  C984     1.0000 0.04393  0.39835  0.23135  Biso   1.000  C
  C985     1.0000 0.01516  0.39574  0.23046  Biso   1.000  C
  C986     1.0000 0.98147  0.42321  0.23647  Biso   1.000  C
  C987     1.0000 0.97850  0.45202  0.24232  Biso   1.000  C
  C988     1.0000 0.94980  0.42230  0.23548  Biso   1.000  C
  C989     1.0000 0.77089  0.02505  0.54067  Biso   1.000  C
  C990     1.0000 0.79767  0.20453  0.55307  Biso   1.000  C
  C991     1.0000 0.56214  0.29306  0.46010  Biso   1.000  C
  C992     1.0000 0.59477  0.29695  0.44997  Biso   1.000  C
  C993     1.0000 0.62515  0.26651  0.45309  Biso   1.000  C
  C994     1.0000 0.62187  0.23313  0.46447  Biso   1.000  C
  C995     1.0000 0.58856  0.23190  0.47230  Biso   1.000  C
  C996     1.0000 0.67917  0.04121  0.48713  Biso   1.000  C
  C997     1.0000 0.64960  0.07210  0.48070  Biso   1.000  C
  C998     1.0000 0.64809  0.10439  0.47807  Biso   1.000  C
  C999     1.0000 0.67704  0.10504  0.48128  Biso   1.000  C
  C1000    1.0000 0.70533  0.07293  0.48789  Biso   1.000  C
  C1001    1.0000 0.67688  0.13868  0.47968  Biso   1.000  C
  C1002    1.0000 0.65183  0.19863  0.47087  Biso   1.000  C
  C1003    1.0000 0.70244  0.16608  0.48644  Biso   1.000  C
  C1004    1.0000 0.72777  0.19519  0.49803  Biso   1.000  C
  C1005    1.0000 0.72981  0.16417  0.49643  Biso   1.000  C
  C1006    1.0000 0.75785  0.13223  0.50477  Biso   1.000  C
  C1007    1.0000 0.78246  0.13302  0.51388  Biso   1.000  C
  C1008    1.0000 0.77875  0.16539  0.51381  Biso   1.000  C
  C1009    1.0000 0.73805  0.29591  0.53855  Biso   1.000  C
  C1010    1.0000 0.73135  0.32637  0.54393  Biso   1.000  C
  C1011    1.0000 0.73046  0.35864  0.51516  Biso   1.000  C
  C1012    1.0000 0.73647  0.35885  0.48147  Biso   1.000  C
  C1013    1.0000 0.74232  0.32716  0.47850  Biso   1.000  C
  C1014    1.0000 0.73548  0.39242  0.44980  Biso   1.000  C
  C1015    1.0000 0.52505  0.27089  0.66339  Biso   1.000  C
  C1016    1.0000 0.70453  0.29767  0.44473  Biso   1.000  C
  C1017    1.0000 0.79306  0.06214  0.68470  Biso   1.000  C
  C1018    1.0000 0.79695  0.09477  0.65831  Biso   1.000  C
  C1019    1.0000 0.76651  0.12515  0.65525  Biso   1.000  C
  C1020    1.0000 0.73313  0.12187  0.68053  Biso   1.000  C
  C1021    1.0000 0.73190  0.08856  0.70724  Biso   1.000  C
  C1022    1.0000 0.54121  0.17917  0.79249  Biso   1.000  C
  C1023    1.0000 0.57210  0.14960  0.79760  Biso   1.000  C
  C1024    1.0000 0.60439  0.14809  0.76945  Biso   1.000  C
  C1025    1.0000 0.60504  0.17704  0.73664  Biso   1.000  C
  C1026    1.0000 0.57293  0.20533  0.73385  Biso   1.000  C
  C1027    1.0000 0.63868  0.17688  0.70476  Biso   1.000  C
  C1028    1.0000 0.69863  0.15183  0.67867  Biso   1.000  C
  C1029    1.0000 0.66608  0.20244  0.64504  Biso   1.000  C
  C1030    1.0000 0.69519  0.22777  0.57901  Biso   1.000  C
  C1031    1.0000 0.66417  0.22981  0.60959  Biso   1.000  C
  C1032    1.0000 0.63223  0.25785  0.60515  Biso   1.000  C
  C1033    1.0000 0.63302  0.28246  0.57064  Biso   1.000  C
  C1034    1.0000 0.66539  0.27875  0.54205  Biso   1.000  C
  C1035    1.0000 0.79591  0.23805  0.42749  Biso   1.000  C
  C1036    1.0000 0.82637  0.23135  0.39835  Biso   1.000  C
  C1037    1.0000 0.85864  0.23046  0.39574  Biso   1.000  C
  C1038    1.0000 0.85885  0.23647  0.42321  Biso   1.000  C
  C1039    1.0000 0.82716  0.24232  0.45202  Biso   1.000  C
  C1040    1.0000 0.89242  0.23548  0.42230  Biso   1.000  C
  C1041    1.0000 0.52505  0.54067  0.27089  Biso   1.000  C
  C1042    1.0000 0.70453  0.55307  0.29767  Biso   1.000  C
  C1043    1.0000 0.79306  0.46010  0.06214  Biso   1.000  C
  C1044    1.0000 0.79695  0.44997  0.09477  Biso   1.000  C
  C1045    1.0000 0.76651  0.45309  0.12515  Biso   1.000  C
  C1046    1.0000 0.73313  0.46447  0.12187  Biso   1.000  C
  C1047    1.0000 0.73190  0.47230  0.08856  Biso   1.000  C
  C1048    1.0000 0.54121  0.48713  0.17917  Biso   1.000  C
  C1049    1.0000 0.57210  0.48070  0.14960  Biso   1.000  C
  C1050    1.0000 0.60439  0.47807  0.14809  Biso   1.000  C
  C1051    1.0000 0.60504  0.48128  0.17704  Biso   1.000  C
  C1052    1.0000 0.57293  0.48789  0.20533  Biso   1.000  C
  C1053    1.0000 0.63868  0.47968  0.17688  Biso   1.000  C
  C1054    1.0000 0.69863  0.47087  0.15183  Biso   1.000  C
  C1055    1.0000 0.66608  0.48644  0.20244  Biso   1.000  C
  C1056    1.0000 0.69519  0.49803  0.22777  Biso   1.000  C
  C1057    1.0000 0.66417  0.49643  0.22981  Biso   1.000  C
  C1058    1.0000 0.63223  0.50477  0.25785  Biso   1.000  C
  C1059    1.0000 0.63302  0.51388  0.28246  Biso   1.000  C
  C1060    1.0000 0.66539  0.51381  0.27875  Biso   1.000  C
  C1061    1.0000 0.79591  0.53855  0.23805  Biso   1.000  C
  C1062    1.0000 0.82637  0.54393  0.23135  Biso   1.000  C
  C1063    1.0000 0.85864  0.51516  0.23046  Biso   1.000  C
  C1064    1.0000 0.85885  0.48147  0.23647  Biso   1.000  C
  C1065    1.0000 0.82716  0.47850  0.24232  Biso   1.000  C
  C1066    1.0000 0.89242  0.44980  0.23548  Biso   1.000  C
  C1067    1.0000 0.77089  0.66339  0.02505  Biso   1.000  C
  C1068    1.0000 0.79767  0.44473  0.20453  Biso   1.000  C
  C1069    1.0000 0.56214  0.68470  0.29306  Biso   1.000  C
  C1070    1.0000 0.59477  0.65831  0.29695  Biso   1.000  C
  C1071    1.0000 0.62515  0.65525  0.26651  Biso   1.000  C
  C1072    1.0000 0.62187  0.68053  0.23313  Biso   1.000  C
  C1073    1.0000 0.58856  0.70724  0.23190  Biso   1.000  C
  C1074    1.0000 0.67917  0.79249  0.04121  Biso   1.000  C
  C1075    1.0000 0.64960  0.79760  0.07210  Biso   1.000  C
  C1076    1.0000 0.64809  0.76945  0.10439  Biso   1.000  C
  C1077    1.0000 0.67704  0.73664  0.10504  Biso   1.000  C
  C1078    1.0000 0.70533  0.73385  0.07293  Biso   1.000  C
  C1079    1.0000 0.67688  0.70476  0.13868  Biso   1.000  C
  C1080    1.0000 0.65183  0.67867  0.19863  Biso   1.000  C
  C1081    1.0000 0.70244  0.64504  0.16608  Biso   1.000  C
  C1082    1.0000 0.72777  0.57901  0.19519  Biso   1.000  C
  C1083    1.0000 0.72981  0.60959  0.16417  Biso   1.000  C
  C1084    1.0000 0.75785  0.60515  0.13223  Biso   1.000  C
  C1085    1.0000 0.78246  0.57064  0.13302  Biso   1.000  C
  C1086    1.0000 0.77875  0.54205  0.16539  Biso   1.000  C
  C1087    1.0000 0.73805  0.42749  0.29591  Biso   1.000  C
  C1088    1.0000 0.73135  0.39835  0.32637  Biso   1.000  C
  C1089    1.0000 0.73046  0.39574  0.35864  Biso   1.000  C
  C1090    1.0000 0.73647  0.42321  0.35885  Biso   1.000  C
  C1091    1.0000 0.74232  0.45202  0.32716  Biso   1.000  C
  C1092    1.0000 0.73548  0.42230  0.39242  Biso   1.000  C
  C1093    1.0000 0.04067  0.02505  0.66339  Biso   1.000  C
  C1094    1.0000 0.05307  0.20453  0.44473  Biso   1.000  C
  C1095    1.0000 0.96010  0.29306  0.68470  Biso   1.000  C
  C1096    1.0000 0.94997  0.29695  0.65831  Biso   1.000  C
  C1097    1.0000 0.95309  0.26651  0.65525  Biso   1.000  C
  C1098    1.0000 0.96447  0.23313  0.68053  Biso   1.000  C
  C1099    1.0000 0.97230  0.23190  0.70724  Biso   1.000  C
  C1100    1.0000 0.98713  0.04121  0.79249  Biso   1.000  C
  C1101    1.0000 0.98070  0.07210  0.79760  Biso   1.000  C
  C1102    1.0000 0.97807  0.10439  0.76945  Biso   1.000  C
  C1103    1.0000 0.98128  0.10504  0.73664  Biso   1.000  C
  C1104    1.0000 0.98789  0.07293  0.73385  Biso   1.000  C
  C1105    1.0000 0.97968  0.13868  0.70476  Biso   1.000  C
  C1106    1.0000 0.97087  0.19863  0.67867  Biso   1.000  C
  C1107    1.0000 0.98644  0.16608  0.64504  Biso   1.000  C
  C1108    1.0000 0.99803  0.19519  0.57901  Biso   1.000  C
  C1109    1.0000 0.99643  0.16417  0.60959  Biso   1.000  C
  C1110    1.0000 0.00477  0.13223  0.60515  Biso   1.000  C
  C1111    1.0000 0.01388  0.13302  0.57064  Biso   1.000  C
  C1112    1.0000 0.01381  0.16539  0.54205  Biso   1.000  C
  C1113    1.0000 0.03855  0.29591  0.42749  Biso   1.000  C
  C1114    1.0000 0.04393  0.32637  0.39835  Biso   1.000  C
  C1115    1.0000 0.01516  0.35864  0.39574  Biso   1.000  C
  C1116    1.0000 0.98147  0.35885  0.42321  Biso   1.000  C
  C1117    1.0000 0.97850  0.32716  0.45202  Biso   1.000  C
  C1118    1.0000 0.94980  0.39242  0.42230  Biso   1.000  C
  C1119    1.0000 0.16339  0.27089  0.54067  Biso   1.000  C
  C1120    1.0000 0.94473  0.29767  0.55307  Biso   1.000  C
  C1121    1.0000 0.18470  0.06214  0.46010  Biso   1.000  C
  C1122    1.0000 0.15831  0.09477  0.44997  Biso   1.000  C
  C1123    1.0000 0.15525  0.12515  0.45309  Biso   1.000  C
  C1124    1.0000 0.18053  0.12187  0.46447  Biso   1.000  C
  C1125    1.0000 0.20724  0.08856  0.47230  Biso   1.000  C
  C1126    1.0000 0.29249  0.17917  0.48713  Biso   1.000  C
  C1127    1.0000 0.29760  0.14960  0.48070  Biso   1.000  C
  C1128    1.0000 0.26945  0.14809  0.47807  Biso   1.000  C
  C1129    1.0000 0.23664  0.17704  0.48128  Biso   1.000  C
  C1130    1.0000 0.23385  0.20533  0.48789  Biso   1.000  C
  C1131    1.0000 0.20476  0.17688  0.47968  Biso   1.000  C
  C1132    1.0000 0.17867  0.15183  0.47087  Biso   1.000  C
  C1133    1.0000 0.14504  0.20244  0.48644  Biso   1.000  C
  C1134    1.0000 0.07901  0.22777  0.49803  Biso   1.000  C
  C1135    1.0000 0.10959  0.22981  0.49643  Biso   1.000  C
  C1136    1.0000 0.10515  0.25785  0.50477  Biso   1.000  C
  C1137    1.0000 0.07064  0.28246  0.51388  Biso   1.000  C
  C1138    1.0000 0.04205  0.27875  0.51381  Biso   1.000  C
  C1139    1.0000 0.92749  0.23805  0.53855  Biso   1.000  C
  C1140    1.0000 0.89835  0.23135  0.54393  Biso   1.000  C
  C1141    1.0000 0.89574  0.23046  0.51516  Biso   1.000  C
  C1142    1.0000 0.92321  0.23647  0.48147  Biso   1.000  C
  C1143    1.0000 0.95202  0.24232  0.47850  Biso   1.000  C
  C1144    1.0000 0.92230  0.23548  0.44980  Biso   1.000  C
  C1145    1.0000 0.77089  0.54067  0.66339  Biso   1.000  C
  C1146    1.0000 0.79767  0.55307  0.44473  Biso   1.000  C
  C1147    1.0000 0.56214  0.46010  0.68470  Biso   1.000  C
  C1148    1.0000 0.59477  0.44997  0.65831  Biso   1.000  C
  C1149    1.0000 0.62515  0.45309  0.65525  Biso   1.000  C
  C1150    1.0000 0.62187  0.46447  0.68053  Biso   1.000  C
  C1151    1.0000 0.58856  0.47230  0.70724  Biso   1.000  C
  C1152    1.0000 0.67917  0.48713  0.79249  Biso   1.000  C
  C1153    1.0000 0.64960  0.48070  0.79760  Biso   1.000  C
  C1154    1.0000 0.64809  0.47807  0.76945  Biso   1.000  C
  C1155    1.0000 0.67704  0.48128  0.73664  Biso   1.000  C
  C1156    1.0000 0.70533  0.48789  0.73385  Biso   1.000  C
  C1157    1.0000 0.67688  0.47968  0.70476  Biso   1.000  C
  C1158    1.0000 0.65183  0.47087  0.67867  Biso   1.000  C
  C1159    1.0000 0.70244  0.48644  0.64504  Biso   1.000  C
  C1160    1.0000 0.72777  0.49803  0.57901  Biso   1.000  C
  C1161    1.0000 0.72981  0.49643  0.60959  Biso   1.000  C
  C1162    1.0000 0.75785  0.50477  0.60515  Biso   1.000  C
  C1163    1.0000 0.78246  0.51388  0.57064  Biso   1.000  C
  C1164    1.0000 0.77875  0.51381  0.54205  Biso   1.000  C
  C1165    1.0000 0.73805  0.53855  0.42749  Biso   1.000  C
  C1166    1.0000 0.73135  0.54393  0.39835  Biso   1.000  C
  C1167    1.0000 0.73046  0.51516  0.39574  Biso   1.000  C
  C1168    1.0000 0.73647  0.48147  0.42321  Biso   1.000  C
  C1169    1.0000 0.74232  0.47850  0.45202  Biso   1.000  C
  C1170    1.0000 0.73548  0.44980  0.42230  Biso   1.000  C
  C1171    1.0000 0.52505  0.66339  0.54067  Biso   1.000  C
  C1172    1.0000 0.70453  0.44473  0.55307  Biso   1.000  C
  C1173    1.0000 0.79306  0.68470  0.46010  Biso   1.000  C
  C1174    1.0000 0.79695  0.65831  0.44997  Biso   1.000  C
  C1175    1.0000 0.76651  0.65525  0.45309  Biso   1.000  C
  C1176    1.0000 0.73313  0.68053  0.46447  Biso   1.000  C
  C1177    1.0000 0.73190  0.70724  0.47230  Biso   1.000  C
  C1178    1.0000 0.54121  0.79249  0.48713  Biso   1.000  C
  C1179    1.0000 0.57210  0.79760  0.48070  Biso   1.000  C
  C1180    1.0000 0.60439  0.76945  0.47807  Biso   1.000  C
  C1181    1.0000 0.60504  0.73664  0.48128  Biso   1.000  C
  C1182    1.0000 0.57293  0.73385  0.48789  Biso   1.000  C
  C1183    1.0000 0.63868  0.70476  0.47968  Biso   1.000  C
  C1184    1.0000 0.69863  0.67867  0.47087  Biso   1.000  C
  C1185    1.0000 0.66608  0.64504  0.48644  Biso   1.000  C
  C1186    1.0000 0.69519  0.57901  0.49803  Biso   1.000  C
  C1187    1.0000 0.66417  0.60959  0.49643  Biso   1.000  C
  C1188    1.0000 0.63223  0.60515  0.50477  Biso   1.000  C
  C1189    1.0000 0.63302  0.57064  0.51388  Biso   1.000  C
  C1190    1.0000 0.66539  0.54205  0.51381  Biso   1.000  C
  C1191    1.0000 0.79591  0.42749  0.53855  Biso   1.000  C
  C1192    1.0000 0.82637  0.39835  0.54393  Biso   1.000  C
  C1193    1.0000 0.85864  0.39574  0.51516  Biso   1.000  C
  C1194    1.0000 0.85885  0.42321  0.48147  Biso   1.000  C
  C1195    1.0000 0.82716  0.45202  0.47850  Biso   1.000  C
  C1196    1.0000 0.89242  0.42230  0.44980  Biso   1.000  C
  C1197    1.0000 0.16339  0.02505  0.27089  Biso   1.000  C
  C1198    1.0000 0.94473  0.20453  0.29767  Biso   1.000  C
  C1199    1.0000 0.18470  0.29306  0.06214  Biso   1.000  C
  C1200    1.0000 0.15831  0.29695  0.09477  Biso   1.000  C
  C1201    1.0000 0.15525  0.26651  0.12515  Biso   1.000  C
  C1202    1.0000 0.18053  0.23313  0.12187  Biso   1.000  C
  C1203    1.0000 0.20724  0.23190  0.08856  Biso   1.000  C
  C1204    1.0000 0.29249  0.04121  0.17917  Biso   1.000  C
  C1205    1.0000 0.29760  0.07210  0.14960  Biso   1.000  C
  C1206    1.0000 0.26945  0.10439  0.14809  Biso   1.000  C
  C1207    1.0000 0.23664  0.10504  0.17704  Biso   1.000  C
  C1208    1.0000 0.23385  0.07293  0.20533  Biso   1.000  C
  C1209    1.0000 0.20476  0.13868  0.17688  Biso   1.000  C
  C1210    1.0000 0.17867  0.19863  0.15183  Biso   1.000  C
  C1211    1.0000 0.14504  0.16608  0.20244  Biso   1.000  C
  C1212    1.0000 0.07901  0.19519  0.22777  Biso   1.000  C
  C1213    1.0000 0.10959  0.16417  0.22981  Biso   1.000  C
  C1214    1.0000 0.10515  0.13223  0.25785  Biso   1.000  C
  C1215    1.0000 0.07064  0.13302  0.28246  Biso   1.000  C
  C1216    1.0000 0.04205  0.16539  0.27875  Biso   1.000  C
  C1217    1.0000 0.92749  0.29591  0.23805  Biso   1.000  C
  C1218    1.0000 0.89835  0.32637  0.23135  Biso   1.000  C
  C1219    1.0000 0.89574  0.35864  0.23046  Biso   1.000  C
  C1220    1.0000 0.92321  0.35885  0.23647  Biso   1.000  C
  C1221    1.0000 0.95202  0.32716  0.24232  Biso   1.000  C
  C1222    1.0000 0.92230  0.39242  0.23548  Biso   1.000  C
  C1223    1.0000 0.04067  0.27089  0.02505  Biso   1.000  C
  C1224    1.0000 0.05307  0.29767  0.20453  Biso   1.000  C
  C1225    1.0000 0.96010  0.06214  0.29306  Biso   1.000  C
  C1226    1.0000 0.94997  0.09477  0.29695  Biso   1.000  C
  C1227    1.0000 0.95309  0.12515  0.26651  Biso   1.000  C
  C1228    1.0000 0.96447  0.12187  0.23313  Biso   1.000  C
  C1229    1.0000 0.97230  0.08856  0.23190  Biso   1.000  C
  C1230    1.0000 0.98713  0.17917  0.04121  Biso   1.000  C
  C1231    1.0000 0.98070  0.14960  0.07210  Biso   1.000  C
  C1232    1.0000 0.97807  0.14809  0.10439  Biso   1.000  C
  C1233    1.0000 0.98128  0.17704  0.10504  Biso   1.000  C
  C1234    1.0000 0.98789  0.20533  0.07293  Biso   1.000  C
  C1235    1.0000 0.97968  0.17688  0.13868  Biso   1.000  C
  C1236    1.0000 0.97087  0.15183  0.19863  Biso   1.000  C
  C1237    1.0000 0.98644  0.20244  0.16608  Biso   1.000  C
  C1238    1.0000 0.99803  0.22777  0.19519  Biso   1.000  C
  C1239    1.0000 0.99643  0.22981  0.16417  Biso   1.000  C
  C1240    1.0000 0.00477  0.25785  0.13223  Biso   1.000  C
  C1241    1.0000 0.01388  0.28246  0.13302  Biso   1.000  C
  C1242    1.0000 0.01381  0.27875  0.16539  Biso   1.000  C
  C1243    1.0000 0.03855  0.23805  0.29591  Biso   1.000  C
  C1244    1.0000 0.04393  0.23135  0.32637  Biso   1.000  C
  C1245    1.0000 0.01516  0.23046  0.35864  Biso   1.000  C
  C1246    1.0000 0.98147  0.23647  0.35885  Biso   1.000  C
  C1247    1.0000 0.97850  0.24232  0.32716  Biso   1.000  C
  C1248    1.0000 0.94980  0.23548  0.39242  Biso   1.000  C
  S1       1.0000 0.55275  0.11995  0.53493  Biso   1.000  S
  S2       1.0000 0.57743  0.91427  0.68445  Biso   1.000  S
  S3       1.0000 0.61995  0.05275  0.79237  Biso   1.000  S
  S4       1.0000 0.41427  0.07743  0.82385  Biso   1.000  S
  S5       1.0000 0.03493  0.79237  0.05275  Biso   1.000  S
  S6       1.0000 0.18445  0.82385  0.07743  Biso   1.000  S
  S7       1.0000 0.29237  0.53493  0.11995  Biso   1.000  S
  S8       1.0000 0.32385  0.68445  0.91427  Biso   1.000  S
  S9       1.0000 0.55275  0.53493  0.79237  Biso   1.000  S
  S10      1.0000 0.57743  0.68445  0.82385  Biso   1.000  S
  S11      1.0000 0.61995  0.79237  0.53493  Biso   1.000  S
  S12      1.0000 0.41427  0.82385  0.68445  Biso   1.000  S
  S13      1.0000 0.03493  0.05275  0.11995  Biso   1.000  S
  S14      1.0000 0.18445  0.07743  0.91427  Biso   1.000  S
  S15      1.0000 0.29237  0.11995  0.05275  Biso   1.000  S
  S16      1.0000 0.32385  0.91427  0.07743  Biso   1.000  S
  S17      1.0000 0.55275  0.79237  0.11995  Biso   1.000  S
  S18      1.0000 0.57743  0.82385  0.91427  Biso   1.000  S
  S19      1.0000 0.61995  0.53493  0.05275  Biso   1.000  S
  S20      1.0000 0.41427  0.68445  0.07743  Biso   1.000  S
  S21      1.0000 0.03493  0.11995  0.79237  Biso   1.000  S
  S22      1.0000 0.18445  0.91427  0.82385  Biso   1.000  S
  S23      1.0000 0.29237  0.05275  0.53493  Biso   1.000  S
  S24      1.0000 0.32385  0.07743  0.68445  Biso   1.000  S
  S25      1.0000 0.88005  0.44725  0.96507  Biso   1.000  S
  S26      1.0000 0.08573  0.42257  0.81555  Biso   1.000  S
  S27      1.0000 0.94725  0.38005  0.70763  Biso   1.000  S
  S28      1.0000 0.92257  0.58573  0.67615  Biso   1.000  S
  S29      1.0000 0.20763  0.96507  0.44725  Biso   1.000  S
  S30      1.0000 0.17615  0.81555  0.42257  Biso   1.000  S
  S31      1.0000 0.46507  0.70763  0.38005  Biso   1.000  S
  S32      1.0000 0.31555  0.67615  0.58573  Biso   1.000  S
  S33      1.0000 0.46507  0.44725  0.70763  Biso   1.000  S
  S34      1.0000 0.31555  0.42257  0.67615  Biso   1.000  S
  S35      1.0000 0.20763  0.38005  0.96507  Biso   1.000  S
  S36      1.0000 0.17615  0.58573  0.81555  Biso   1.000  S
  S37      1.0000 0.94725  0.96507  0.38005  Biso   1.000  S
  S38      1.0000 0.92257  0.81555  0.58573  Biso   1.000  S
  S39      1.0000 0.88005  0.70763  0.44725  Biso   1.000  S
  S40      1.0000 0.08573  0.67615  0.42257  Biso   1.000  S
  S41      1.0000 0.20763  0.44725  0.38005  Biso   1.000  S
  S42      1.0000 0.17615  0.42257  0.58573  Biso   1.000  S
  S43      1.0000 0.46507  0.38005  0.44725  Biso   1.000  S
  S44      1.0000 0.31555  0.58573  0.42257  Biso   1.000  S
  S45      1.0000 0.88005  0.96507  0.70763  Biso   1.000  S
  S46      1.0000 0.08573  0.81555  0.67615  Biso   1.000  S
  S47      1.0000 0.94725  0.70763  0.96507  Biso   1.000  S
  S48      1.0000 0.92257  0.67615  0.81555  Biso   1.000  S
  S49      1.0000 0.44725  0.88005  0.46507  Biso   1.000  S
  S50      1.0000 0.42257  0.08573  0.31555  Biso   1.000  S
  S51      1.0000 0.38005  0.94725  0.20763  Biso   1.000  S
  S52      1.0000 0.58573  0.92257  0.17615  Biso   1.000  S
  S53      1.0000 0.96507  0.20763  0.94725  Biso   1.000  S
  S54      1.0000 0.81555  0.17615  0.92257  Biso   1.000  S
  S55      1.0000 0.70763  0.46507  0.88005  Biso   1.000  S
  S56      1.0000 0.67615  0.31555  0.08573  Biso   1.000  S
  S57      1.0000 0.44725  0.46507  0.20763  Biso   1.000  S
  S58      1.0000 0.42257  0.31555  0.17615  Biso   1.000  S
  S59      1.0000 0.38005  0.20763  0.46507  Biso   1.000  S
  S60      1.0000 0.58573  0.17615  0.31555  Biso   1.000  S
  S61      1.0000 0.96507  0.94725  0.88005  Biso   1.000  S
  S62      1.0000 0.81555  0.92257  0.08573  Biso   1.000  S
  S63      1.0000 0.70763  0.88005  0.94725  Biso   1.000  S
  S64      1.0000 0.67615  0.08573  0.92257  Biso   1.000  S
  S65      1.0000 0.44725  0.20763  0.88005  Biso   1.000  S
  S66      1.0000 0.42257  0.17615  0.08573  Biso   1.000  S
  S67      1.0000 0.38005  0.46507  0.94725  Biso   1.000  S
  S68      1.0000 0.58573  0.31555  0.92257  Biso   1.000  S
  S69      1.0000 0.96507  0.88005  0.20763  Biso   1.000  S
  S70      1.0000 0.81555  0.08573  0.17615  Biso   1.000  S
  S71      1.0000 0.70763  0.94725  0.46507  Biso   1.000  S
  S72      1.0000 0.67615  0.92257  0.31555  Biso   1.000  S
  S73      1.0000 0.11995  0.55275  0.03493  Biso   1.000  S
  S74      1.0000 0.91427  0.57743  0.18445  Biso   1.000  S
  S75      1.0000 0.05275  0.61995  0.29237  Biso   1.000  S
  S76      1.0000 0.07743  0.41427  0.32385  Biso   1.000  S
  S77      1.0000 0.79237  0.03493  0.55275  Biso   1.000  S
  S78      1.0000 0.82385  0.18445  0.57743  Biso   1.000  S
  S79      1.0000 0.53493  0.29237  0.61995  Biso   1.000  S
  S80      1.0000 0.68445  0.32385  0.41427  Biso   1.000  S
  S81      1.0000 0.53493  0.55275  0.29237  Biso   1.000  S
  S82      1.0000 0.68445  0.57743  0.32385  Biso   1.000  S
  S83      1.0000 0.79237  0.61995  0.03493  Biso   1.000  S
  S84      1.0000 0.82385  0.41427  0.18445  Biso   1.000  S
  S85      1.0000 0.05275  0.03493  0.61995  Biso   1.000  S
  S86      1.0000 0.07743  0.18445  0.41427  Biso   1.000  S
  S87      1.0000 0.11995  0.29237  0.55275  Biso   1.000  S
  S88      1.0000 0.91427  0.32385  0.57743  Biso   1.000  S
  S89      1.0000 0.79237  0.55275  0.61995  Biso   1.000  S
  S90      1.0000 0.82385  0.57743  0.41427  Biso   1.000  S
  S91      1.0000 0.53493  0.61995  0.55275  Biso   1.000  S
  S92      1.0000 0.68445  0.41427  0.57743  Biso   1.000  S
  S93      1.0000 0.11995  0.03493  0.29237  Biso   1.000  S
  S94      1.0000 0.91427  0.18445  0.32385  Biso   1.000  S
  S95      1.0000 0.05275  0.29237  0.03493  Biso   1.000  S
  S96      1.0000 0.07743  0.32385  0.18445  Biso   1.000  S
  N1       1.0000 0.53144  0.19470  0.51692  Biso   1.000  N
  N2       1.0000 0.53596  0.96614  0.71882  Biso   1.000  N
  N3       1.0000 0.47115  0.20937  0.76095  Biso   1.000  N
  N4       1.0000 0.49103  0.26115  0.54099  Biso   1.000  N
  N5       1.0000 0.47133  0.20889  0.66949  Biso   1.000  N
  N6       1.0000 0.48818  0.17330  0.63510  Biso   1.000  N
  N7       1.0000 0.47742  0.14644  0.69870  Biso   1.000  N
  N8       1.0000 0.50651  0.04587  0.69611  Biso   1.000  N
  N9       1.0000 0.50635  0.95443  0.79577  Biso   1.000  N
  N10      1.0000 0.42049  0.95209  0.89165  Biso   1.000  N
  N11      1.0000 0.69470  0.03144  0.75694  Biso   1.000  N
  N12      1.0000 0.46614  0.03596  0.77908  Biso   1.000  N
  N13      1.0000 0.70937  0.97115  0.55853  Biso   1.000  N
  N14      1.0000 0.76115  0.99103  0.70683  Biso   1.000  N
  N15      1.0000 0.70889  0.97133  0.65029  Biso   1.000  N
  N16      1.0000 0.67330  0.98818  0.70342  Biso   1.000  N
  N17      1.0000 0.64644  0.97742  0.67744  Biso   1.000  N
  N18      1.0000 0.54587  0.00651  0.75151  Biso   1.000  N
  N19      1.0000 0.45443  0.00635  0.74345  Biso   1.000  N
  N20      1.0000 0.45209  0.92049  0.73577  Biso   1.000  N
  N21      1.0000 0.01692  0.75694  0.03144  Biso   1.000  N
  N22      1.0000 0.21882  0.77908  0.03596  Biso   1.000  N
  N23      1.0000 0.26095  0.55853  0.97115  Biso   1.000  N
  N24      1.0000 0.04099  0.70683  0.99103  Biso   1.000  N
  N25      1.0000 0.16949  0.65029  0.97133  Biso   1.000  N
  N26      1.0000 0.13510  0.70342  0.98818  Biso   1.000  N
  N27      1.0000 0.19870  0.67744  0.97742  Biso   1.000  N
  N28      1.0000 0.19611  0.75151  0.00651  Biso   1.000  N
  N29      1.0000 0.29577  0.74345  0.00635  Biso   1.000  N
  N30      1.0000 0.39165  0.73577  0.92049  Biso   1.000  N
  N31      1.0000 0.25694  0.51692  0.19470  Biso   1.000  N
  N32      1.0000 0.27908  0.71882  0.96614  Biso   1.000  N
  N33      1.0000 0.05853  0.76095  0.20937  Biso   1.000  N
  N34      1.0000 0.20683  0.54099  0.26115  Biso   1.000  N
  N35      1.0000 0.15029  0.66949  0.20889  Biso   1.000  N
  N36      1.0000 0.20342  0.63510  0.17330  Biso   1.000  N
  N37      1.0000 0.17744  0.69870  0.14644  Biso   1.000  N
  N38      1.0000 0.25151  0.69611  0.04587  Biso   1.000  N
  N39      1.0000 0.24345  0.79577  0.95443  Biso   1.000  N
  N40      1.0000 0.23577  0.89165  0.95209  Biso   1.000  N
  N41      1.0000 0.53144  0.51692  0.75694  Biso   1.000  N
  N42      1.0000 0.53596  0.71882  0.77908  Biso   1.000  N
  N43      1.0000 0.47115  0.76095  0.55853  Biso   1.000  N
  N44      1.0000 0.49103  0.54099  0.70683  Biso   1.000  N
  N45      1.0000 0.47133  0.66949  0.65029  Biso   1.000  N
  N46      1.0000 0.48818  0.63510  0.70342  Biso   1.000  N
  N47      1.0000 0.47742  0.69870  0.67744  Biso   1.000  N
  N48      1.0000 0.50651  0.69611  0.75151  Biso   1.000  N
  N49      1.0000 0.50635  0.79577  0.74345  Biso   1.000  N
  N50      1.0000 0.42049  0.89165  0.73577  Biso   1.000  N
  N51      1.0000 0.69470  0.75694  0.51692  Biso   1.000  N
  N52      1.0000 0.46614  0.77908  0.71882  Biso   1.000  N
  N53      1.0000 0.70937  0.55853  0.76095  Biso   1.000  N
  N54      1.0000 0.76115  0.70683  0.54099  Biso   1.000  N
  N55      1.0000 0.70889  0.65029  0.66949  Biso   1.000  N
  N56      1.0000 0.67330  0.70342  0.63510  Biso   1.000  N
  N57      1.0000 0.64644  0.67744  0.69870  Biso   1.000  N
  N58      1.0000 0.54587  0.75151  0.69611  Biso   1.000  N
  N59      1.0000 0.45443  0.74345  0.79577  Biso   1.000  N
  N60      1.0000 0.45209  0.73577  0.89165  Biso   1.000  N
  N61      1.0000 0.01692  0.03144  0.19470  Biso   1.000  N
  N62      1.0000 0.21882  0.03596  0.96614  Biso   1.000  N
  N63      1.0000 0.26095  0.97115  0.20937  Biso   1.000  N
  N64      1.0000 0.04099  0.99103  0.26115  Biso   1.000  N
  N65      1.0000 0.16949  0.97133  0.20889  Biso   1.000  N
  N66      1.0000 0.13510  0.98818  0.17330  Biso   1.000  N
  N67      1.0000 0.19870  0.97742  0.14644  Biso   1.000  N
  N68      1.0000 0.19611  0.00651  0.04587  Biso   1.000  N
  N69      1.0000 0.29577  0.00635  0.95443  Biso   1.000  N
  N70      1.0000 0.39165  0.92049  0.95209  Biso   1.000  N
  N71      1.0000 0.25694  0.19470  0.03144  Biso   1.000  N
  N72      1.0000 0.27908  0.96614  0.03596  Biso   1.000  N
  N73      1.0000 0.05853  0.20937  0.97115  Biso   1.000  N
  N74      1.0000 0.20683  0.26115  0.99103  Biso   1.000  N
  N75      1.0000 0.15029  0.20889  0.97133  Biso   1.000  N
  N76      1.0000 0.20342  0.17330  0.98818  Biso   1.000  N
  N77      1.0000 0.17744  0.14644  0.97742  Biso   1.000  N
  N78      1.0000 0.25151  0.04587  0.00651  Biso   1.000  N
  N79      1.0000 0.24345  0.95443  0.00635  Biso   1.000  N
  N80      1.0000 0.23577  0.95209  0.92049  Biso   1.000  N
  N81      1.0000 0.53144  0.75694  0.19470  Biso   1.000  N
  N82      1.0000 0.53596  0.77908  0.96614  Biso   1.000  N
  N83      1.0000 0.47115  0.55853  0.20937  Biso   1.000  N
  N84      1.0000 0.49103  0.70683  0.26115  Biso   1.000  N
  N85      1.0000 0.47133  0.65029  0.20889  Biso   1.000  N
  N86      1.0000 0.48818  0.70342  0.17330  Biso   1.000  N
  N87      1.0000 0.47742  0.67744  0.14644  Biso   1.000  N
  N88      1.0000 0.50651  0.75151  0.04587  Biso   1.000  N
  N89      1.0000 0.50635  0.74345  0.95443  Biso   1.000  N
  N90      1.0000 0.42049  0.73577  0.95209  Biso   1.000  N
  N91      1.0000 0.69470  0.51692  0.03144  Biso   1.000  N
  N92      1.0000 0.46614  0.71882  0.03596  Biso   1.000  N
  N93      1.0000 0.70937  0.76095  0.97115  Biso   1.000  N
  N94      1.0000 0.76115  0.54099  0.99103  Biso   1.000  N
  N95      1.0000 0.70889  0.66949  0.97133  Biso   1.000  N
  N96      1.0000 0.67330  0.63510  0.98818  Biso   1.000  N
  N97      1.0000 0.64644  0.69870  0.97742  Biso   1.000  N
  N98      1.0000 0.54587  0.69611  0.00651  Biso   1.000  N
  N99      1.0000 0.45443  0.79577  0.00635  Biso   1.000  N
  N100     1.0000 0.45209  0.89165  0.92049  Biso   1.000  N
  N101     1.0000 0.01692  0.19470  0.75694  Biso   1.000  N
  N102     1.0000 0.21882  0.96614  0.77908  Biso   1.000  N
  N103     1.0000 0.26095  0.20937  0.55853  Biso   1.000  N
  N104     1.0000 0.04099  0.26115  0.70683  Biso   1.000  N
  N105     1.0000 0.16949  0.20889  0.65029  Biso   1.000  N
  N106     1.0000 0.13510  0.17330  0.70342  Biso   1.000  N
  N107     1.0000 0.19870  0.14644  0.67744  Biso   1.000  N
  N108     1.0000 0.19611  0.04587  0.75151  Biso   1.000  N
  N109     1.0000 0.29577  0.95443  0.74345  Biso   1.000  N
  N110     1.0000 0.39165  0.95209  0.73577  Biso   1.000  N
  N111     1.0000 0.25694  0.03144  0.51692  Biso   1.000  N
  N112     1.0000 0.27908  0.03596  0.71882  Biso   1.000  N
  N113     1.0000 0.05853  0.97115  0.76095  Biso   1.000  N
  N114     1.0000 0.20683  0.99103  0.54099  Biso   1.000  N
  N115     1.0000 0.15029  0.97133  0.66949  Biso   1.000  N
  N116     1.0000 0.20342  0.98818  0.63510  Biso   1.000  N
  N117     1.0000 0.17744  0.97742  0.69870  Biso   1.000  N
  N118     1.0000 0.25151  0.00651  0.69611  Biso   1.000  N
  N119     1.0000 0.24345  0.00635  0.79577  Biso   1.000  N
  N120     1.0000 0.23577  0.92049  0.89165  Biso   1.000  N
  N121     1.0000 0.80530  0.46856  0.98308  Biso   1.000  N
  N122     1.0000 0.03386  0.46404  0.78118  Biso   1.000  N
  N123     1.0000 0.79063  0.52885  0.73905  Biso   1.000  N
  N124     1.0000 0.73885  0.50897  0.95901  Biso   1.000  N
  N125     1.0000 0.79111  0.52867  0.83051  Biso   1.000  N
  N126     1.0000 0.82670  0.51182  0.86490  Biso   1.000  N
  N127     1.0000 0.85356  0.52258  0.80130  Biso   1.000  N
  N128     1.0000 0.95413  0.49349  0.80389  Biso   1.000  N
  N129     1.0000 0.04557  0.49365  0.70423  Biso   1.000  N
  N130     1.0000 0.04791  0.57951  0.60835  Biso   1.000  N
  N131     1.0000 0.96856  0.30530  0.74306  Biso   1.000  N
  N132     1.0000 0.96404  0.53386  0.72092  Biso   1.000  N
  N133     1.0000 0.02885  0.29063  0.94147  Biso   1.000  N
  N134     1.0000 0.00897  0.23885  0.79317  Biso   1.000  N
  N135     1.0000 0.02867  0.29111  0.84971  Biso   1.000  N
  N136     1.0000 0.01182  0.32670  0.79658  Biso   1.000  N
  N137     1.0000 0.02258  0.35356  0.82256  Biso   1.000  N
  N138     1.0000 0.99349  0.45413  0.74849  Biso   1.000  N
  N139     1.0000 0.99365  0.54557  0.75655  Biso   1.000  N
  N140     1.0000 0.07951  0.54791  0.76423  Biso   1.000  N
  N141     1.0000 0.24306  0.98308  0.46856  Biso   1.000  N
  N142     1.0000 0.22092  0.78118  0.46404  Biso   1.000  N
  N143     1.0000 0.44147  0.73905  0.52885  Biso   1.000  N
  N144     1.0000 0.29317  0.95901  0.50897  Biso   1.000  N
  N145     1.0000 0.34971  0.83051  0.52867  Biso   1.000  N
  N146     1.0000 0.29658  0.86490  0.51182  Biso   1.000  N
  N147     1.0000 0.32256  0.80130  0.52258  Biso   1.000  N
  N148     1.0000 0.24849  0.80389  0.49349  Biso   1.000  N
  N149     1.0000 0.25655  0.70423  0.49365  Biso   1.000  N
  N150     1.0000 0.26423  0.60835  0.57951  Biso   1.000  N
  N151     1.0000 0.48308  0.74306  0.30530  Biso   1.000  N
  N152     1.0000 0.28118  0.72092  0.53386  Biso   1.000  N
  N153     1.0000 0.23905  0.94147  0.29063  Biso   1.000  N
  N154     1.0000 0.45901  0.79317  0.23885  Biso   1.000  N
  N155     1.0000 0.33051  0.84971  0.29111  Biso   1.000  N
  N156     1.0000 0.36490  0.79658  0.32670  Biso   1.000  N
  N157     1.0000 0.30130  0.82256  0.35356  Biso   1.000  N
  N158     1.0000 0.30389  0.74849  0.45413  Biso   1.000  N
  N159     1.0000 0.20423  0.75655  0.54557  Biso   1.000  N
  N160     1.0000 0.10835  0.76423  0.54791  Biso   1.000  N
  N161     1.0000 0.48308  0.46856  0.74306  Biso   1.000  N
  N162     1.0000 0.28118  0.46404  0.72092  Biso   1.000  N
  N163     1.0000 0.23905  0.52885  0.94147  Biso   1.000  N
  N164     1.0000 0.45901  0.50897  0.79317  Biso   1.000  N
  N165     1.0000 0.33051  0.52867  0.84971  Biso   1.000  N
  N166     1.0000 0.36490  0.51182  0.79658  Biso   1.000  N
  N167     1.0000 0.30130  0.52258  0.82256  Biso   1.000  N
  N168     1.0000 0.30389  0.49349  0.74849  Biso   1.000  N
  N169     1.0000 0.20423  0.49365  0.75655  Biso   1.000  N
  N170     1.0000 0.10835  0.57951  0.76423  Biso   1.000  N
  N171     1.0000 0.24306  0.30530  0.98308  Biso   1.000  N
  N172     1.0000 0.22092  0.53386  0.78118  Biso   1.000  N
  N173     1.0000 0.44147  0.29063  0.73905  Biso   1.000  N
  N174     1.0000 0.29317  0.23885  0.95901  Biso   1.000  N
  N175     1.0000 0.34971  0.29111  0.83051  Biso   1.000  N
  N176     1.0000 0.29658  0.32670  0.86490  Biso   1.000  N
  N177     1.0000 0.32256  0.35356  0.80130  Biso   1.000  N
  N178     1.0000 0.24849  0.45413  0.80389  Biso   1.000  N
  N179     1.0000 0.25655  0.54557  0.70423  Biso   1.000  N
  N180     1.0000 0.26423  0.54791  0.60835  Biso   1.000  N
  N181     1.0000 0.96856  0.98308  0.30530  Biso   1.000  N
  N182     1.0000 0.96404  0.78118  0.53386  Biso   1.000  N
  N183     1.0000 0.02885  0.73905  0.29063  Biso   1.000  N
  N184     1.0000 0.00897  0.95901  0.23885  Biso   1.000  N
  N185     1.0000 0.02867  0.83051  0.29111  Biso   1.000  N
  N186     1.0000 0.01182  0.86490  0.32670  Biso   1.000  N
  N187     1.0000 0.02258  0.80130  0.35356  Biso   1.000  N
  N188     1.0000 0.99349  0.80389  0.45413  Biso   1.000  N
  N189     1.0000 0.99365  0.70423  0.54557  Biso   1.000  N
  N190     1.0000 0.07951  0.60835  0.54791  Biso   1.000  N
  N191     1.0000 0.80530  0.74306  0.46856  Biso   1.000  N
  N192     1.0000 0.03386  0.72092  0.46404  Biso   1.000  N
  N193     1.0000 0.79063  0.94147  0.52885  Biso   1.000  N
  N194     1.0000 0.73885  0.79317  0.50897  Biso   1.000  N
  N195     1.0000 0.79111  0.84971  0.52867  Biso   1.000  N
  N196     1.0000 0.82670  0.79658  0.51182  Biso   1.000  N
  N197     1.0000 0.85356  0.82256  0.52258  Biso   1.000  N
  N198     1.0000 0.95413  0.74849  0.49349  Biso   1.000  N
  N199     1.0000 0.04557  0.75655  0.49365  Biso   1.000  N
  N200     1.0000 0.04791  0.76423  0.57951  Biso   1.000  N
  N201     1.0000 0.24306  0.46856  0.30530  Biso   1.000  N
  N202     1.0000 0.22092  0.46404  0.53386  Biso   1.000  N
  N203     1.0000 0.44147  0.52885  0.29063  Biso   1.000  N
  N204     1.0000 0.29317  0.50897  0.23885  Biso   1.000  N
  N205     1.0000 0.34971  0.52867  0.29111  Biso   1.000  N
  N206     1.0000 0.29658  0.51182  0.32670  Biso   1.000  N
  N207     1.0000 0.32256  0.52258  0.35356  Biso   1.000  N
  N208     1.0000 0.24849  0.49349  0.45413  Biso   1.000  N
  N209     1.0000 0.25655  0.49365  0.54557  Biso   1.000  N
  N210     1.0000 0.26423  0.57951  0.54791  Biso   1.000  N
  N211     1.0000 0.48308  0.30530  0.46856  Biso   1.000  N
  N212     1.0000 0.28118  0.53386  0.46404  Biso   1.000  N
  N213     1.0000 0.23905  0.29063  0.52885  Biso   1.000  N
  N214     1.0000 0.45901  0.23885  0.50897  Biso   1.000  N
  N215     1.0000 0.33051  0.29111  0.52867  Biso   1.000  N
  N216     1.0000 0.36490  0.32670  0.51182  Biso   1.000  N
  N217     1.0000 0.30130  0.35356  0.52258  Biso   1.000  N
  N218     1.0000 0.30389  0.45413  0.49349  Biso   1.000  N
  N219     1.0000 0.20423  0.54557  0.49365  Biso   1.000  N
  N220     1.0000 0.10835  0.54791  0.57951  Biso   1.000  N
  N221     1.0000 0.80530  0.98308  0.74306  Biso   1.000  N
  N222     1.0000 0.03386  0.78118  0.72092  Biso   1.000  N
  N223     1.0000 0.79063  0.73905  0.94147  Biso   1.000  N
  N224     1.0000 0.73885  0.95901  0.79317  Biso   1.000  N
  N225     1.0000 0.79111  0.83051  0.84971  Biso   1.000  N
  N226     1.0000 0.82670  0.86490  0.79658  Biso   1.000  N
  N227     1.0000 0.85356  0.80130  0.82256  Biso   1.000  N
  N228     1.0000 0.95413  0.80389  0.74849  Biso   1.000  N
  N229     1.0000 0.04557  0.70423  0.75655  Biso   1.000  N
  N230     1.0000 0.04791  0.60835  0.76423  Biso   1.000  N
  N231     1.0000 0.96856  0.74306  0.98308  Biso   1.000  N
  N232     1.0000 0.96404  0.72092  0.78118  Biso   1.000  N
  N233     1.0000 0.02885  0.94147  0.73905  Biso   1.000  N
  N234     1.0000 0.00897  0.79317  0.95901  Biso   1.000  N
  N235     1.0000 0.02867  0.84971  0.83051  Biso   1.000  N
  N236     1.0000 0.01182  0.79658  0.86490  Biso   1.000  N
  N237     1.0000 0.02258  0.82256  0.80130  Biso   1.000  N
  N238     1.0000 0.99349  0.74849  0.80389  Biso   1.000  N
  N239     1.0000 0.99365  0.75655  0.70423  Biso   1.000  N
  N240     1.0000 0.07951  0.76423  0.60835  Biso   1.000  N
  N241     1.0000 0.46856  0.80530  0.48308  Biso   1.000  N
  N242     1.0000 0.46404  0.03386  0.28118  Biso   1.000  N
  N243     1.0000 0.52885  0.79063  0.23905  Biso   1.000  N
  N244     1.0000 0.50897  0.73885  0.45901  Biso   1.000  N
  N245     1.0000 0.52867  0.79111  0.33051  Biso   1.000  N
  N246     1.0000 0.51182  0.82670  0.36490  Biso   1.000  N
  N247     1.0000 0.52258  0.85356  0.30130  Biso   1.000  N
  N248     1.0000 0.49349  0.95413  0.30389  Biso   1.000  N
  N249     1.0000 0.49365  0.04557  0.20423  Biso   1.000  N
  N250     1.0000 0.57951  0.04791  0.10835  Biso   1.000  N
  N251     1.0000 0.30530  0.96856  0.24306  Biso   1.000  N
  N252     1.0000 0.53386  0.96404  0.22092  Biso   1.000  N
  N253     1.0000 0.29063  0.02885  0.44147  Biso   1.000  N
  N254     1.0000 0.23885  0.00897  0.29317  Biso   1.000  N
  N255     1.0000 0.29111  0.02867  0.34971  Biso   1.000  N
  N256     1.0000 0.32670  0.01182  0.29658  Biso   1.000  N
  N257     1.0000 0.35356  0.02258  0.32256  Biso   1.000  N
  N258     1.0000 0.45413  0.99349  0.24849  Biso   1.000  N
  N259     1.0000 0.54557  0.99365  0.25655  Biso   1.000  N
  N260     1.0000 0.54791  0.07951  0.26423  Biso   1.000  N
  N261     1.0000 0.98308  0.24306  0.96856  Biso   1.000  N
  N262     1.0000 0.78118  0.22092  0.96404  Biso   1.000  N
  N263     1.0000 0.73905  0.44147  0.02885  Biso   1.000  N
  N264     1.0000 0.95901  0.29317  0.00897  Biso   1.000  N
  N265     1.0000 0.83051  0.34971  0.02867  Biso   1.000  N
  N266     1.0000 0.86490  0.29658  0.01182  Biso   1.000  N
  N267     1.0000 0.80130  0.32256  0.02258  Biso   1.000  N
  N268     1.0000 0.80389  0.24849  0.99349  Biso   1.000  N
  N269     1.0000 0.70423  0.25655  0.99365  Biso   1.000  N
  N270     1.0000 0.60835  0.26423  0.07951  Biso   1.000  N
  N271     1.0000 0.74306  0.48308  0.80530  Biso   1.000  N
  N272     1.0000 0.72092  0.28118  0.03386  Biso   1.000  N
  N273     1.0000 0.94147  0.23905  0.79063  Biso   1.000  N
  N274     1.0000 0.79317  0.45901  0.73885  Biso   1.000  N
  N275     1.0000 0.84971  0.33051  0.79111  Biso   1.000  N
  N276     1.0000 0.79658  0.36490  0.82670  Biso   1.000  N
  N277     1.0000 0.82256  0.30130  0.85356  Biso   1.000  N
  N278     1.0000 0.74849  0.30389  0.95413  Biso   1.000  N
  N279     1.0000 0.75655  0.20423  0.04557  Biso   1.000  N
  N280     1.0000 0.76423  0.10835  0.04791  Biso   1.000  N
  N281     1.0000 0.46856  0.48308  0.24306  Biso   1.000  N
  N282     1.0000 0.46404  0.28118  0.22092  Biso   1.000  N
  N283     1.0000 0.52885  0.23905  0.44147  Biso   1.000  N
  N284     1.0000 0.50897  0.45901  0.29317  Biso   1.000  N
  N285     1.0000 0.52867  0.33051  0.34971  Biso   1.000  N
  N286     1.0000 0.51182  0.36490  0.29658  Biso   1.000  N
  N287     1.0000 0.52258  0.30130  0.32256  Biso   1.000  N
  N288     1.0000 0.49349  0.30389  0.24849  Biso   1.000  N
  N289     1.0000 0.49365  0.20423  0.25655  Biso   1.000  N
  N290     1.0000 0.57951  0.10835  0.26423  Biso   1.000  N
  N291     1.0000 0.30530  0.24306  0.48308  Biso   1.000  N
  N292     1.0000 0.53386  0.22092  0.28118  Biso   1.000  N
  N293     1.0000 0.29063  0.44147  0.23905  Biso   1.000  N
  N294     1.0000 0.23885  0.29317  0.45901  Biso   1.000  N
  N295     1.0000 0.29111  0.34971  0.33051  Biso   1.000  N
  N296     1.0000 0.32670  0.29658  0.36490  Biso   1.000  N
  N297     1.0000 0.35356  0.32256  0.30130  Biso   1.000  N
  N298     1.0000 0.45413  0.24849  0.30389  Biso   1.000  N
  N299     1.0000 0.54557  0.25655  0.20423  Biso   1.000  N
  N300     1.0000 0.54791  0.26423  0.10835  Biso   1.000  N
  N301     1.0000 0.98308  0.96856  0.80530  Biso   1.000  N
  N302     1.0000 0.78118  0.96404  0.03386  Biso   1.000  N
  N303     1.0000 0.73905  0.02885  0.79063  Biso   1.000  N
  N304     1.0000 0.95901  0.00897  0.73885  Biso   1.000  N
  N305     1.0000 0.83051  0.02867  0.79111  Biso   1.000  N
  N306     1.0000 0.86490  0.01182  0.82670  Biso   1.000  N
  N307     1.0000 0.80130  0.02258  0.85356  Biso   1.000  N
  N308     1.0000 0.80389  0.99349  0.95413  Biso   1.000  N
  N309     1.0000 0.70423  0.99365  0.04557  Biso   1.000  N
  N310     1.0000 0.60835  0.07951  0.04791  Biso   1.000  N
  N311     1.0000 0.74306  0.80530  0.96856  Biso   1.000  N
  N312     1.0000 0.72092  0.03386  0.96404  Biso   1.000  N
  N313     1.0000 0.94147  0.79063  0.02885  Biso   1.000  N
  N314     1.0000 0.79317  0.73885  0.00897  Biso   1.000  N
  N315     1.0000 0.84971  0.79111  0.02867  Biso   1.000  N
  N316     1.0000 0.79658  0.82670  0.01182  Biso   1.000  N
  N317     1.0000 0.82256  0.85356  0.02258  Biso   1.000  N
  N318     1.0000 0.74849  0.95413  0.99349  Biso   1.000  N
  N319     1.0000 0.75655  0.04557  0.99365  Biso   1.000  N
  N320     1.0000 0.76423  0.04791  0.07951  Biso   1.000  N
  N321     1.0000 0.46856  0.24306  0.80530  Biso   1.000  N
  N322     1.0000 0.46404  0.22092  0.03386  Biso   1.000  N
  N323     1.0000 0.52885  0.44147  0.79063  Biso   1.000  N
  N324     1.0000 0.50897  0.29317  0.73885  Biso   1.000  N
  N325     1.0000 0.52867  0.34971  0.79111  Biso   1.000  N
  N326     1.0000 0.51182  0.29658  0.82670  Biso   1.000  N
  N327     1.0000 0.52258  0.32256  0.85356  Biso   1.000  N
  N328     1.0000 0.49349  0.24849  0.95413  Biso   1.000  N
  N329     1.0000 0.49365  0.25655  0.04557  Biso   1.000  N
  N330     1.0000 0.57951  0.26423  0.04791  Biso   1.000  N
  N331     1.0000 0.30530  0.48308  0.96856  Biso   1.000  N
  N332     1.0000 0.53386  0.28118  0.96404  Biso   1.000  N
  N333     1.0000 0.29063  0.23905  0.02885  Biso   1.000  N
  N334     1.0000 0.23885  0.45901  0.00897  Biso   1.000  N
  N335     1.0000 0.29111  0.33051  0.02867  Biso   1.000  N
  N336     1.0000 0.32670  0.36490  0.01182  Biso   1.000  N
  N337     1.0000 0.35356  0.30130  0.02258  Biso   1.000  N
  N338     1.0000 0.45413  0.30389  0.99349  Biso   1.000  N
  N339     1.0000 0.54557  0.20423  0.99365  Biso   1.000  N
  N340     1.0000 0.54791  0.10835  0.07951  Biso   1.000  N
  N341     1.0000 0.98308  0.80530  0.24306  Biso   1.000  N
  N342     1.0000 0.78118  0.03386  0.22092  Biso   1.000  N
  N343     1.0000 0.73905  0.79063  0.44147  Biso   1.000  N
  N344     1.0000 0.95901  0.73885  0.29317  Biso   1.000  N
  N345     1.0000 0.83051  0.79111  0.34971  Biso   1.000  N
  N346     1.0000 0.86490  0.82670  0.29658  Biso   1.000  N
  N347     1.0000 0.80130  0.85356  0.32256  Biso   1.000  N
  N348     1.0000 0.80389  0.95413  0.24849  Biso   1.000  N
  N349     1.0000 0.70423  0.04557  0.25655  Biso   1.000  N
  N350     1.0000 0.60835  0.04791  0.26423  Biso   1.000  N
  N351     1.0000 0.74306  0.96856  0.48308  Biso   1.000  N
  N352     1.0000 0.72092  0.96404  0.28118  Biso   1.000  N
  N353     1.0000 0.94147  0.02885  0.23905  Biso   1.000  N
  N354     1.0000 0.79317  0.00897  0.45901  Biso   1.000  N
  N355     1.0000 0.84971  0.02867  0.33051  Biso   1.000  N
  N356     1.0000 0.79658  0.01182  0.36490  Biso   1.000  N
  N357     1.0000 0.82256  0.02258  0.30130  Biso   1.000  N
  N358     1.0000 0.74849  0.99349  0.30389  Biso   1.000  N
  N359     1.0000 0.75655  0.99365  0.20423  Biso   1.000  N
  N360     1.0000 0.76423  0.07951  0.10835  Biso   1.000  N
  N361     1.0000 0.19470  0.53144  0.01692  Biso   1.000  N
  N362     1.0000 0.96614  0.53596  0.21882  Biso   1.000  N
  N363     1.0000 0.20937  0.47115  0.26095  Biso   1.000  N
  N364     1.0000 0.26115  0.49103  0.04099  Biso   1.000  N
  N365     1.0000 0.20889  0.47133  0.16949  Biso   1.000  N
  N366     1.0000 0.17330  0.48818  0.13510  Biso   1.000  N
  N367     1.0000 0.14644  0.47742  0.19870  Biso   1.000  N
  N368     1.0000 0.04587  0.50651  0.19611  Biso   1.000  N
  N369     1.0000 0.95443  0.50635  0.29577  Biso   1.000  N
  N370     1.0000 0.95209  0.42049  0.39165  Biso   1.000  N
  N371     1.0000 0.03144  0.69470  0.25694  Biso   1.000  N
  N372     1.0000 0.03596  0.46614  0.27908  Biso   1.000  N
  N373     1.0000 0.97115  0.70937  0.05853  Biso   1.000  N
  N374     1.0000 0.99103  0.76115  0.20683  Biso   1.000  N
  N375     1.0000 0.97133  0.70889  0.15029  Biso   1.000  N
  N376     1.0000 0.98818  0.67330  0.20342  Biso   1.000  N
  N377     1.0000 0.97742  0.64644  0.17744  Biso   1.000  N
  N378     1.0000 0.00651  0.54587  0.25151  Biso   1.000  N
  N379     1.0000 0.00635  0.45443  0.24345  Biso   1.000  N
  N380     1.0000 0.92049  0.45209  0.23577  Biso   1.000  N
  N381     1.0000 0.75694  0.01692  0.53144  Biso   1.000  N
  N382     1.0000 0.77908  0.21882  0.53596  Biso   1.000  N
  N383     1.0000 0.55853  0.26095  0.47115  Biso   1.000  N
  N384     1.0000 0.70683  0.04099  0.49103  Biso   1.000  N
  N385     1.0000 0.65029  0.16949  0.47133  Biso   1.000  N
  N386     1.0000 0.70342  0.13510  0.48818  Biso   1.000  N
  N387     1.0000 0.67744  0.19870  0.47742  Biso   1.000  N
  N388     1.0000 0.75151  0.19611  0.50651  Biso   1.000  N
  N389     1.0000 0.74345  0.29577  0.50635  Biso   1.000  N
  N390     1.0000 0.73577  0.39165  0.42049  Biso   1.000  N
  N391     1.0000 0.51692  0.25694  0.69470  Biso   1.000  N
  N392     1.0000 0.71882  0.27908  0.46614  Biso   1.000  N
  N393     1.0000 0.76095  0.05853  0.70937  Biso   1.000  N
  N394     1.0000 0.54099  0.20683  0.76115  Biso   1.000  N
  N395     1.0000 0.66949  0.15029  0.70889  Biso   1.000  N
  N396     1.0000 0.63510  0.20342  0.67330  Biso   1.000  N
  N397     1.0000 0.69870  0.17744  0.64644  Biso   1.000  N
  N398     1.0000 0.69611  0.25151  0.54587  Biso   1.000  N
  N399     1.0000 0.79577  0.24345  0.45443  Biso   1.000  N
  N400     1.0000 0.89165  0.23577  0.45209  Biso   1.000  N
  N401     1.0000 0.51692  0.53144  0.25694  Biso   1.000  N
  N402     1.0000 0.71882  0.53596  0.27908  Biso   1.000  N
  N403     1.0000 0.76095  0.47115  0.05853  Biso   1.000  N
  N404     1.0000 0.54099  0.49103  0.20683  Biso   1.000  N
  N405     1.0000 0.66949  0.47133  0.15029  Biso   1.000  N
  N406     1.0000 0.63510  0.48818  0.20342  Biso   1.000  N
  N407     1.0000 0.69870  0.47742  0.17744  Biso   1.000  N
  N408     1.0000 0.69611  0.50651  0.25151  Biso   1.000  N
  N409     1.0000 0.79577  0.50635  0.24345  Biso   1.000  N
  N410     1.0000 0.89165  0.42049  0.23577  Biso   1.000  N
  N411     1.0000 0.75694  0.69470  0.01692  Biso   1.000  N
  N412     1.0000 0.77908  0.46614  0.21882  Biso   1.000  N
  N413     1.0000 0.55853  0.70937  0.26095  Biso   1.000  N
  N414     1.0000 0.70683  0.76115  0.04099  Biso   1.000  N
  N415     1.0000 0.65029  0.70889  0.16949  Biso   1.000  N
  N416     1.0000 0.70342  0.67330  0.13510  Biso   1.000  N
  N417     1.0000 0.67744  0.64644  0.19870  Biso   1.000  N
  N418     1.0000 0.75151  0.54587  0.19611  Biso   1.000  N
  N419     1.0000 0.74345  0.45443  0.29577  Biso   1.000  N
  N420     1.0000 0.73577  0.45209  0.39165  Biso   1.000  N
  N421     1.0000 0.03144  0.01692  0.69470  Biso   1.000  N
  N422     1.0000 0.03596  0.21882  0.46614  Biso   1.000  N
  N423     1.0000 0.97115  0.26095  0.70937  Biso   1.000  N
  N424     1.0000 0.99103  0.04099  0.76115  Biso   1.000  N
  N425     1.0000 0.97133  0.16949  0.70889  Biso   1.000  N
  N426     1.0000 0.98818  0.13510  0.67330  Biso   1.000  N
  N427     1.0000 0.97742  0.19870  0.64644  Biso   1.000  N
  N428     1.0000 0.00651  0.19611  0.54587  Biso   1.000  N
  N429     1.0000 0.00635  0.29577  0.45443  Biso   1.000  N
  N430     1.0000 0.92049  0.39165  0.45209  Biso   1.000  N
  N431     1.0000 0.19470  0.25694  0.53144  Biso   1.000  N
  N432     1.0000 0.96614  0.27908  0.53596  Biso   1.000  N
  N433     1.0000 0.20937  0.05853  0.47115  Biso   1.000  N
  N434     1.0000 0.26115  0.20683  0.49103  Biso   1.000  N
  N435     1.0000 0.20889  0.15029  0.47133  Biso   1.000  N
  N436     1.0000 0.17330  0.20342  0.48818  Biso   1.000  N
  N437     1.0000 0.14644  0.17744  0.47742  Biso   1.000  N
  N438     1.0000 0.04587  0.25151  0.50651  Biso   1.000  N
  N439     1.0000 0.95443  0.24345  0.50635  Biso   1.000  N
  N440     1.0000 0.95209  0.23577  0.42049  Biso   1.000  N
  N441     1.0000 0.75694  0.53144  0.69470  Biso   1.000  N
  N442     1.0000 0.77908  0.53596  0.46614  Biso   1.000  N
  N443     1.0000 0.55853  0.47115  0.70937  Biso   1.000  N
  N444     1.0000 0.70683  0.49103  0.76115  Biso   1.000  N
  N445     1.0000 0.65029  0.47133  0.70889  Biso   1.000  N
  N446     1.0000 0.70342  0.48818  0.67330  Biso   1.000  N
  N447     1.0000 0.67744  0.47742  0.64644  Biso   1.000  N
  N448     1.0000 0.75151  0.50651  0.54587  Biso   1.000  N
  N449     1.0000 0.74345  0.50635  0.45443  Biso   1.000  N
  N450     1.0000 0.73577  0.42049  0.45209  Biso   1.000  N
  N451     1.0000 0.51692  0.69470  0.53144  Biso   1.000  N
  N452     1.0000 0.71882  0.46614  0.53596  Biso   1.000  N
  N453     1.0000 0.76095  0.70937  0.47115  Biso   1.000  N
  N454     1.0000 0.54099  0.76115  0.49103  Biso   1.000  N
  N455     1.0000 0.66949  0.70889  0.47133  Biso   1.000  N
  N456     1.0000 0.63510  0.67330  0.48818  Biso   1.000  N
  N457     1.0000 0.69870  0.64644  0.47742  Biso   1.000  N
  N458     1.0000 0.69611  0.54587  0.50651  Biso   1.000  N
  N459     1.0000 0.79577  0.45443  0.50635  Biso   1.000  N
  N460     1.0000 0.89165  0.45209  0.42049  Biso   1.000  N
  N461     1.0000 0.19470  0.01692  0.25694  Biso   1.000  N
  N462     1.0000 0.96614  0.21882  0.27908  Biso   1.000  N
  N463     1.0000 0.20937  0.26095  0.05853  Biso   1.000  N
  N464     1.0000 0.26115  0.04099  0.20683  Biso   1.000  N
  N465     1.0000 0.20889  0.16949  0.15029  Biso   1.000  N
  N466     1.0000 0.17330  0.13510  0.20342  Biso   1.000  N
  N467     1.0000 0.14644  0.19870  0.17744  Biso   1.000  N
  N468     1.0000 0.04587  0.19611  0.25151  Biso   1.000  N
  N469     1.0000 0.95443  0.29577  0.24345  Biso   1.000  N
  N470     1.0000 0.95209  0.39165  0.23577  Biso   1.000  N
  N471     1.0000 0.03144  0.25694  0.01692  Biso   1.000  N
  N472     1.0000 0.03596  0.27908  0.21882  Biso   1.000  N
  N473     1.0000 0.97115  0.05853  0.26095  Biso   1.000  N
  N474     1.0000 0.99103  0.20683  0.04099  Biso   1.000  N
  N475     1.0000 0.97133  0.15029  0.16949  Biso   1.000  N
  N476     1.0000 0.98818  0.20342  0.13510  Biso   1.000  N
  N477     1.0000 0.97742  0.17744  0.19870  Biso   1.000  N
  N478     1.0000 0.00651  0.25151  0.19611  Biso   1.000  N
  N479     1.0000 0.00635  0.24345  0.29577  Biso   1.000  N
  N480     1.0000 0.92049  0.23577  0.39165  Biso   1.000  N
