data_image0
_cell_length_a       63.8953
_cell_length_b       63.8953
_cell_length_c       63.8953
_cell_angle_alpha    90
_cell_angle_beta     90
_cell_angle_gamma    90

_symmetry_space_group_name_H-M    "P 1"
_symmetry_int_tables_number       1

loop_
  _symmetry_equiv_pos_as_xyz
  'x, y, z'

loop_
  _atom_site_label
  _atom_site_occupancy
  _atom_site_fract_x
  _atom_site_fract_y
  _atom_site_fract_z
  _atom_site_thermal_displace_type
  _atom_site_B_iso_or_equiv
  _atom_site_type_symbol
  C1       1.0000 0.40972  0.60258  0.21989  Biso   1.000  C
  H1       1.0000 0.39760  0.59440  0.21730  Biso   1.000  H
  C2       1.0000 0.42742  0.59914  0.20750  Biso   1.000  C
  C3       1.0000 0.44523  0.61072  0.21138  Biso   1.000  C
  H2       1.0000 0.45740  0.60920  0.20300  Biso   1.000  H
  C4       1.0000 0.44486  0.62482  0.22810  Biso   1.000  C
  H3       1.0000 0.45710  0.63240  0.23180  Biso   1.000  H
  C5       1.0000 0.42686  0.62758  0.23907  Biso   1.000  C
  H4       1.0000 0.42680  0.63760  0.25010  Biso   1.000  H
  C6       1.0000 0.39774  0.53338  0.09533  Biso   1.000  C
  C7       1.0000 0.36148  0.51321  0.16843  Biso   1.000  C
  H5       1.0000 0.35060  0.50320  0.16710  Biso   1.000  H
  C8       1.0000 0.36260  0.52462  0.18666  Biso   1.000  C
  H6       1.0000 0.35310  0.52200  0.19780  Biso   1.000  H
  C9       1.0000 0.37779  0.54007  0.18858  Biso   1.000  C
  H7       1.0000 0.37840  0.54870  0.20070  Biso   1.000  H
  C10      1.0000 0.39210  0.54249  0.17226  Biso   1.000  C
  C11      1.0000 0.39026  0.53001  0.15472  Biso   1.000  C
  H8       1.0000 0.40020  0.53170  0.14380  Biso   1.000  H
  C12      1.0000 0.40868  0.55877  0.17282  Biso   1.000  C
  C13      1.0000 0.42567  0.58461  0.18970  Biso   1.000  C
  C14      1.0000 0.43511  0.57589  0.15684  Biso   1.000  C
  C15      1.0000 0.46232  0.59601  0.13822  Biso   1.000  C
  H9       1.0000 0.46370  0.60420  0.15060  Biso   1.000  H
  C16      1.0000 0.44779  0.57952  0.13815  Biso   1.000  C
  C17      1.0000 0.44589  0.56735  0.12040  Biso   1.000  C
  H10      1.0000 0.43600  0.55620  0.11970  Biso   1.000  H
  C18      1.0000 0.45891  0.57192  0.10358  Biso   1.000  C
  H11      1.0000 0.45840  0.56360  0.09130  Biso   1.000  H
  C19      1.0000 0.47254  0.58860  0.10489  Biso   1.000  C
  H12      1.0000 0.48110  0.59160  0.09310  Biso   1.000  H
  C20      1.0000 0.51763  0.58301  0.13862  Biso   1.000  C
  H13      1.0000 0.50700  0.58410  0.14890  Biso   1.000  H
  C21      1.0000 0.52940  0.56540  0.13834  Biso   1.000  C
  H14      1.0000 0.52690  0.55450  0.14810  Biso   1.000  H
  C22      1.0000 0.54530  0.56360  0.12333  Biso   1.000  C
  H15      1.0000 0.55410  0.55160  0.12290  Biso   1.000  H
  C23      1.0000 0.54783  0.57984  0.10924  Biso   1.000  C
  C24      1.0000 0.53502  0.59731  0.11085  Biso   1.000  C
  H16      1.0000 0.53700  0.60850  0.10130  Biso   1.000  H
  C25      1.0000 0.56441  0.57908  0.09302  Biso   1.000  C
  C26      1.0000 0.50059  0.62611  0.07478  Biso   1.000  C
  N1       1.0000 0.40904  0.61692  0.23525  Biso   1.000  N
  N2       1.0000 0.38715  0.52446  0.10699  Biso   1.000  N
  N3       1.0000 0.37497  0.51551  0.15242  Biso   1.000  N
  N4       1.0000 0.42040  0.56091  0.15582  Biso   1.000  N
  N5       1.0000 0.41034  0.57025  0.19029  Biso   1.000  N
  N6       1.0000 0.43887  0.58763  0.17387  Biso   1.000  N
  N7       1.0000 0.47432  0.60075  0.12185  Biso   1.000  N
  N8       1.0000 0.49881  0.62676  0.09238  Biso   1.000  N
  N9       1.0000 0.52009  0.59897  0.12524  Biso   1.000  N
  N10      1.0000 0.57831  0.56397  0.09428  Biso   1.000  N
  S1       1.0000 0.41304  0.54463  0.07812  Biso   1.000  S
  S2       1.0000 0.50216  0.62346  0.04928  Biso   1.000  S
  C27      1.0000 0.40972  0.10258  0.71989  Biso   1.000  C
  H17      1.0000 0.39760  0.09440  0.71730  Biso   1.000  H
  C28      1.0000 0.42742  0.09914  0.70750  Biso   1.000  C
  C29      1.0000 0.44523  0.11072  0.71138  Biso   1.000  C
  H18      1.0000 0.45740  0.10920  0.70300  Biso   1.000  H
  C30      1.0000 0.44486  0.12482  0.72810  Biso   1.000  C
  H19      1.0000 0.45710  0.13240  0.73180  Biso   1.000  H
  C31      1.0000 0.42686  0.12758  0.73907  Biso   1.000  C
  H20      1.0000 0.42680  0.13760  0.75010  Biso   1.000  H
  C32      1.0000 0.39774  0.03338  0.59533  Biso   1.000  C
  C33      1.0000 0.36148  0.01321  0.66843  Biso   1.000  C
  H21      1.0000 0.35060  0.00320  0.66710  Biso   1.000  H
  C34      1.0000 0.36260  0.02462  0.68666  Biso   1.000  C
  H22      1.0000 0.35310  0.02200  0.69780  Biso   1.000  H
  C35      1.0000 0.37779  0.04007  0.68858  Biso   1.000  C
  H23      1.0000 0.37840  0.04870  0.70070  Biso   1.000  H
  C36      1.0000 0.39210  0.04249  0.67226  Biso   1.000  C
  C37      1.0000 0.39026  0.03001  0.65472  Biso   1.000  C
  H24      1.0000 0.40020  0.03170  0.64380  Biso   1.000  H
  C38      1.0000 0.40868  0.05877  0.67282  Biso   1.000  C
  C39      1.0000 0.42567  0.08461  0.68970  Biso   1.000  C
  C40      1.0000 0.43511  0.07589  0.65684  Biso   1.000  C
  C41      1.0000 0.46232  0.09601  0.63822  Biso   1.000  C
  H25      1.0000 0.46370  0.10420  0.65060  Biso   1.000  H
  C42      1.0000 0.44779  0.07952  0.63815  Biso   1.000  C
  C43      1.0000 0.44589  0.06735  0.62040  Biso   1.000  C
  H26      1.0000 0.43600  0.05620  0.61970  Biso   1.000  H
  C44      1.0000 0.45891  0.07192  0.60358  Biso   1.000  C
  H27      1.0000 0.45840  0.06360  0.59130  Biso   1.000  H
  C45      1.0000 0.47254  0.08860  0.60489  Biso   1.000  C
  H28      1.0000 0.48110  0.09160  0.59310  Biso   1.000  H
  C46      1.0000 0.51763  0.08301  0.63862  Biso   1.000  C
  H29      1.0000 0.50700  0.08410  0.64890  Biso   1.000  H
  C47      1.0000 0.52940  0.06540  0.63834  Biso   1.000  C
  H30      1.0000 0.52690  0.05450  0.64810  Biso   1.000  H
  C48      1.0000 0.54530  0.06360  0.62333  Biso   1.000  C
  H31      1.0000 0.55410  0.05160  0.62290  Biso   1.000  H
  C49      1.0000 0.54783  0.07984  0.60924  Biso   1.000  C
  C50      1.0000 0.53502  0.09731  0.61085  Biso   1.000  C
  H32      1.0000 0.53700  0.10850  0.60130  Biso   1.000  H
  C51      1.0000 0.56441  0.07908  0.59302  Biso   1.000  C
  C52      1.0000 0.50059  0.12611  0.57478  Biso   1.000  C
  N11      1.0000 0.40904  0.11692  0.73525  Biso   1.000  N
  N12      1.0000 0.38715  0.02446  0.60699  Biso   1.000  N
  N13      1.0000 0.37497  0.01551  0.65242  Biso   1.000  N
  N14      1.0000 0.42040  0.06091  0.65582  Biso   1.000  N
  N15      1.0000 0.41034  0.07025  0.69029  Biso   1.000  N
  N16      1.0000 0.43887  0.08763  0.67387  Biso   1.000  N
  N17      1.0000 0.47432  0.10075  0.62185  Biso   1.000  N
  N18      1.0000 0.49881  0.12676  0.59238  Biso   1.000  N
  N19      1.0000 0.52009  0.09897  0.62524  Biso   1.000  N
  N20      1.0000 0.57831  0.06397  0.59428  Biso   1.000  N
  S3       1.0000 0.41304  0.04463  0.57812  Biso   1.000  S
  S4       1.0000 0.50216  0.12346  0.54928  Biso   1.000  S
  C53      1.0000 0.90972  0.60258  0.71989  Biso   1.000  C
  H33      1.0000 0.89760  0.59440  0.71730  Biso   1.000  H
  C54      1.0000 0.92742  0.59914  0.70750  Biso   1.000  C
  C55      1.0000 0.94523  0.61072  0.71138  Biso   1.000  C
  H34      1.0000 0.95740  0.60920  0.70300  Biso   1.000  H
  C56      1.0000 0.94486  0.62482  0.72810  Biso   1.000  C
  H35      1.0000 0.95710  0.63240  0.73180  Biso   1.000  H
  C57      1.0000 0.92686  0.62758  0.73907  Biso   1.000  C
  H36      1.0000 0.92680  0.63760  0.75010  Biso   1.000  H
  C58      1.0000 0.89774  0.53338  0.59533  Biso   1.000  C
  C59      1.0000 0.86148  0.51321  0.66843  Biso   1.000  C
  H37      1.0000 0.85060  0.50320  0.66710  Biso   1.000  H
  C60      1.0000 0.86260  0.52462  0.68666  Biso   1.000  C
  H38      1.0000 0.85310  0.52200  0.69780  Biso   1.000  H
  C61      1.0000 0.87779  0.54007  0.68858  Biso   1.000  C
  H39      1.0000 0.87840  0.54870  0.70070  Biso   1.000  H
  C62      1.0000 0.89210  0.54249  0.67226  Biso   1.000  C
  C63      1.0000 0.89026  0.53001  0.65472  Biso   1.000  C
  H40      1.0000 0.90020  0.53170  0.64380  Biso   1.000  H
  C64      1.0000 0.90868  0.55877  0.67282  Biso   1.000  C
  C65      1.0000 0.92567  0.58461  0.68970  Biso   1.000  C
  C66      1.0000 0.93511  0.57589  0.65684  Biso   1.000  C
  C67      1.0000 0.96232  0.59601  0.63822  Biso   1.000  C
  H41      1.0000 0.96370  0.60420  0.65060  Biso   1.000  H
  C68      1.0000 0.94779  0.57952  0.63815  Biso   1.000  C
  C69      1.0000 0.94589  0.56735  0.62040  Biso   1.000  C
  H42      1.0000 0.93600  0.55620  0.61970  Biso   1.000  H
  C70      1.0000 0.95891  0.57192  0.60358  Biso   1.000  C
  H43      1.0000 0.95840  0.56360  0.59130  Biso   1.000  H
  C71      1.0000 0.97254  0.58860  0.60489  Biso   1.000  C
  H44      1.0000 0.98110  0.59160  0.59310  Biso   1.000  H
  C72      1.0000 0.01763  0.58301  0.63862  Biso   1.000  C
  H45      1.0000 0.00700  0.58410  0.64890  Biso   1.000  H
  C73      1.0000 0.02940  0.56540  0.63834  Biso   1.000  C
  H46      1.0000 0.02690  0.55450  0.64810  Biso   1.000  H
  C74      1.0000 0.04530  0.56360  0.62333  Biso   1.000  C
  H47      1.0000 0.05410  0.55160  0.62290  Biso   1.000  H
  C75      1.0000 0.04783  0.57984  0.60924  Biso   1.000  C
  C76      1.0000 0.03502  0.59731  0.61085  Biso   1.000  C
  H48      1.0000 0.03700  0.60850  0.60130  Biso   1.000  H
  C77      1.0000 0.06441  0.57908  0.59302  Biso   1.000  C
  C78      1.0000 0.00059  0.62611  0.57478  Biso   1.000  C
  N21      1.0000 0.90904  0.61692  0.73525  Biso   1.000  N
  N22      1.0000 0.88715  0.52446  0.60699  Biso   1.000  N
  N23      1.0000 0.87497  0.51551  0.65242  Biso   1.000  N
  N24      1.0000 0.92040  0.56091  0.65582  Biso   1.000  N
  N25      1.0000 0.91034  0.57025  0.69029  Biso   1.000  N
  N26      1.0000 0.93887  0.58763  0.67387  Biso   1.000  N
  N27      1.0000 0.97432  0.60075  0.62185  Biso   1.000  N
  N28      1.0000 0.99881  0.62676  0.59238  Biso   1.000  N
  N29      1.0000 0.02009  0.59897  0.62524  Biso   1.000  N
  N30      1.0000 0.07831  0.56397  0.59428  Biso   1.000  N
  S5       1.0000 0.91304  0.54463  0.57812  Biso   1.000  S
  S6       1.0000 0.00216  0.62346  0.54928  Biso   1.000  S
  C79      1.0000 0.90972  0.10258  0.21989  Biso   1.000  C
  H49      1.0000 0.89760  0.09440  0.21730  Biso   1.000  H
  C80      1.0000 0.92742  0.09914  0.20750  Biso   1.000  C
  C81      1.0000 0.94523  0.11072  0.21138  Biso   1.000  C
  H50      1.0000 0.95740  0.10920  0.20300  Biso   1.000  H
  C82      1.0000 0.94486  0.12482  0.22810  Biso   1.000  C
  H51      1.0000 0.95710  0.13240  0.23180  Biso   1.000  H
  C83      1.0000 0.92686  0.12758  0.23907  Biso   1.000  C
  H52      1.0000 0.92680  0.13760  0.25010  Biso   1.000  H
  C84      1.0000 0.89774  0.03338  0.09533  Biso   1.000  C
  C85      1.0000 0.86148  0.01321  0.16843  Biso   1.000  C
  H53      1.0000 0.85060  0.00320  0.16710  Biso   1.000  H
  C86      1.0000 0.86260  0.02462  0.18666  Biso   1.000  C
  H54      1.0000 0.85310  0.02200  0.19780  Biso   1.000  H
  C87      1.0000 0.87779  0.04007  0.18858  Biso   1.000  C
  H55      1.0000 0.87840  0.04870  0.20070  Biso   1.000  H
  C88      1.0000 0.89210  0.04249  0.17226  Biso   1.000  C
  C89      1.0000 0.89026  0.03001  0.15472  Biso   1.000  C
  H56      1.0000 0.90020  0.03170  0.14380  Biso   1.000  H
  C90      1.0000 0.90868  0.05877  0.17282  Biso   1.000  C
  C91      1.0000 0.92567  0.08461  0.18970  Biso   1.000  C
  C92      1.0000 0.93511  0.07589  0.15684  Biso   1.000  C
  C93      1.0000 0.96232  0.09601  0.13822  Biso   1.000  C
  H57      1.0000 0.96370  0.10420  0.15060  Biso   1.000  H
  C94      1.0000 0.94779  0.07952  0.13815  Biso   1.000  C
  C95      1.0000 0.94589  0.06735  0.12040  Biso   1.000  C
  H58      1.0000 0.93600  0.05620  0.11970  Biso   1.000  H
  C96      1.0000 0.95891  0.07192  0.10358  Biso   1.000  C
  H59      1.0000 0.95840  0.06360  0.09130  Biso   1.000  H
  C97      1.0000 0.97254  0.08860  0.10489  Biso   1.000  C
  H60      1.0000 0.98110  0.09160  0.09310  Biso   1.000  H
  C98      1.0000 0.01763  0.08301  0.13862  Biso   1.000  C
  H61      1.0000 0.00700  0.08410  0.14890  Biso   1.000  H
  C99      1.0000 0.02940  0.06540  0.13834  Biso   1.000  C
  H62      1.0000 0.02690  0.05450  0.14810  Biso   1.000  H
  C100     1.0000 0.04530  0.06360  0.12333  Biso   1.000  C
  H63      1.0000 0.05410  0.05160  0.12290  Biso   1.000  H
  C101     1.0000 0.04783  0.07984  0.10924  Biso   1.000  C
  C102     1.0000 0.03502  0.09731  0.11085  Biso   1.000  C
  H64      1.0000 0.03700  0.10850  0.10130  Biso   1.000  H
  C103     1.0000 0.06441  0.07908  0.09302  Biso   1.000  C
  C104     1.0000 0.00059  0.12611  0.07478  Biso   1.000  C
  N31      1.0000 0.90904  0.11692  0.23525  Biso   1.000  N
  N32      1.0000 0.88715  0.02446  0.10699  Biso   1.000  N
  N33      1.0000 0.87497  0.01551  0.15242  Biso   1.000  N
  N34      1.0000 0.92040  0.06091  0.15582  Biso   1.000  N
  N35      1.0000 0.91034  0.07025  0.19029  Biso   1.000  N
  N36      1.0000 0.93887  0.08763  0.17387  Biso   1.000  N
  N37      1.0000 0.97432  0.10075  0.12185  Biso   1.000  N
  N38      1.0000 0.99881  0.12676  0.09238  Biso   1.000  N
  N39      1.0000 0.02009  0.09897  0.12524  Biso   1.000  N
  N40      1.0000 0.07831  0.06397  0.09428  Biso   1.000  N
  S7       1.0000 0.91304  0.04463  0.07812  Biso   1.000  S
  S8       1.0000 0.00216  0.12346  0.04928  Biso   1.000  S
  C105     1.0000 0.84028  0.14742  0.71989  Biso   1.000  C
  H65      1.0000 0.85240  0.15560  0.71730  Biso   1.000  H
  C106     1.0000 0.82258  0.15086  0.70750  Biso   1.000  C
  C107     1.0000 0.80477  0.13928  0.71138  Biso   1.000  C
  H66      1.0000 0.79260  0.14080  0.70300  Biso   1.000  H
  C108     1.0000 0.80514  0.12518  0.72810  Biso   1.000  C
  H67      1.0000 0.79290  0.11760  0.73180  Biso   1.000  H
  C109     1.0000 0.82314  0.12242  0.73907  Biso   1.000  C
  H68      1.0000 0.82320  0.11240  0.75010  Biso   1.000  H
  C110     1.0000 0.85226  0.21662  0.59533  Biso   1.000  C
  C111     1.0000 0.88852  0.23679  0.66843  Biso   1.000  C
  H69      1.0000 0.89940  0.24680  0.66710  Biso   1.000  H
  C112     1.0000 0.88740  0.22538  0.68666  Biso   1.000  C
  H70      1.0000 0.89690  0.22800  0.69780  Biso   1.000  H
  C113     1.0000 0.87221  0.20993  0.68858  Biso   1.000  C
  H71      1.0000 0.87160  0.20130  0.70070  Biso   1.000  H
  C114     1.0000 0.85790  0.20751  0.67226  Biso   1.000  C
  C115     1.0000 0.85974  0.21999  0.65472  Biso   1.000  C
  H72      1.0000 0.84980  0.21830  0.64380  Biso   1.000  H
  C116     1.0000 0.84132  0.19123  0.67282  Biso   1.000  C
  C117     1.0000 0.82433  0.16539  0.68970  Biso   1.000  C
  C118     1.0000 0.81489  0.17411  0.65684  Biso   1.000  C
  C119     1.0000 0.78768  0.15399  0.63822  Biso   1.000  C
  H73      1.0000 0.78630  0.14580  0.65060  Biso   1.000  H
  C120     1.0000 0.80221  0.17048  0.63815  Biso   1.000  C
  C121     1.0000 0.80411  0.18265  0.62040  Biso   1.000  C
  H74      1.0000 0.81400  0.19380  0.61970  Biso   1.000  H
  C122     1.0000 0.79109  0.17808  0.60358  Biso   1.000  C
  H75      1.0000 0.79160  0.18640  0.59130  Biso   1.000  H
  C123     1.0000 0.77746  0.16140  0.60489  Biso   1.000  C
  H76      1.0000 0.76890  0.15840  0.59310  Biso   1.000  H
  C124     1.0000 0.73237  0.16699  0.63862  Biso   1.000  C
  H77      1.0000 0.74300  0.16590  0.64890  Biso   1.000  H
  C125     1.0000 0.72060  0.18460  0.63834  Biso   1.000  C
  H78      1.0000 0.72310  0.19550  0.64810  Biso   1.000  H
  C126     1.0000 0.70470  0.18640  0.62333  Biso   1.000  C
  H79      1.0000 0.69590  0.19840  0.62290  Biso   1.000  H
  C127     1.0000 0.70217  0.17016  0.60924  Biso   1.000  C
  C128     1.0000 0.71498  0.15269  0.61085  Biso   1.000  C
  H80      1.0000 0.71300  0.14150  0.60130  Biso   1.000  H
  C129     1.0000 0.68559  0.17092  0.59302  Biso   1.000  C
  C130     1.0000 0.74941  0.12389  0.57478  Biso   1.000  C
  N41      1.0000 0.84096  0.13308  0.73525  Biso   1.000  N
  N42      1.0000 0.86285  0.22554  0.60699  Biso   1.000  N
  N43      1.0000 0.87503  0.23449  0.65242  Biso   1.000  N
  N44      1.0000 0.82960  0.18909  0.65582  Biso   1.000  N
  N45      1.0000 0.83966  0.17975  0.69029  Biso   1.000  N
  N46      1.0000 0.81113  0.16237  0.67387  Biso   1.000  N
  N47      1.0000 0.77568  0.14925  0.62185  Biso   1.000  N
  N48      1.0000 0.75119  0.12324  0.59238  Biso   1.000  N
  N49      1.0000 0.72991  0.15103  0.62524  Biso   1.000  N
  N50      1.0000 0.67169  0.18603  0.59428  Biso   1.000  N
  S9       1.0000 0.83696  0.20537  0.57812  Biso   1.000  S
  S10      1.0000 0.74784  0.12654  0.54928  Biso   1.000  S
  C131     1.0000 0.84028  0.64742  0.21989  Biso   1.000  C
  H81      1.0000 0.85240  0.65560  0.21730  Biso   1.000  H
  C132     1.0000 0.82258  0.65086  0.20750  Biso   1.000  C
  C133     1.0000 0.80477  0.63928  0.21138  Biso   1.000  C
  H82      1.0000 0.79260  0.64080  0.20300  Biso   1.000  H
  C134     1.0000 0.80514  0.62518  0.22810  Biso   1.000  C
  H83      1.0000 0.79290  0.61760  0.23180  Biso   1.000  H
  C135     1.0000 0.82314  0.62242  0.23907  Biso   1.000  C
  H84      1.0000 0.82320  0.61240  0.25010  Biso   1.000  H
  C136     1.0000 0.85226  0.71662  0.09533  Biso   1.000  C
  C137     1.0000 0.88852  0.73679  0.16843  Biso   1.000  C
  H85      1.0000 0.89940  0.74680  0.16710  Biso   1.000  H
  C138     1.0000 0.88740  0.72538  0.18666  Biso   1.000  C
  H86      1.0000 0.89690  0.72800  0.19780  Biso   1.000  H
  C139     1.0000 0.87221  0.70993  0.18858  Biso   1.000  C
  H87      1.0000 0.87160  0.70130  0.20070  Biso   1.000  H
  C140     1.0000 0.85790  0.70751  0.17226  Biso   1.000  C
  C141     1.0000 0.85974  0.71999  0.15472  Biso   1.000  C
  H88      1.0000 0.84980  0.71830  0.14380  Biso   1.000  H
  C142     1.0000 0.84132  0.69123  0.17282  Biso   1.000  C
  C143     1.0000 0.82433  0.66539  0.18970  Biso   1.000  C
  C144     1.0000 0.81489  0.67411  0.15684  Biso   1.000  C
  C145     1.0000 0.78768  0.65399  0.13822  Biso   1.000  C
  H89      1.0000 0.78630  0.64580  0.15060  Biso   1.000  H
  C146     1.0000 0.80221  0.67048  0.13815  Biso   1.000  C
  C147     1.0000 0.80411  0.68265  0.12040  Biso   1.000  C
  H90      1.0000 0.81400  0.69380  0.11970  Biso   1.000  H
  C148     1.0000 0.79109  0.67808  0.10358  Biso   1.000  C
  H91      1.0000 0.79160  0.68640  0.09130  Biso   1.000  H
  C149     1.0000 0.77746  0.66140  0.10489  Biso   1.000  C
  H92      1.0000 0.76890  0.65840  0.09310  Biso   1.000  H
  C150     1.0000 0.73237  0.66699  0.13862  Biso   1.000  C
  H93      1.0000 0.74300  0.66590  0.14890  Biso   1.000  H
  C151     1.0000 0.72060  0.68460  0.13834  Biso   1.000  C
  H94      1.0000 0.72310  0.69550  0.14810  Biso   1.000  H
  C152     1.0000 0.70470  0.68640  0.12333  Biso   1.000  C
  H95      1.0000 0.69590  0.69840  0.12290  Biso   1.000  H
  C153     1.0000 0.70217  0.67016  0.10924  Biso   1.000  C
  C154     1.0000 0.71498  0.65269  0.11085  Biso   1.000  C
  H96      1.0000 0.71300  0.64150  0.10130  Biso   1.000  H
  C155     1.0000 0.68559  0.67092  0.09302  Biso   1.000  C
  C156     1.0000 0.74941  0.62389  0.07478  Biso   1.000  C
  N51      1.0000 0.84096  0.63308  0.23525  Biso   1.000  N
  N52      1.0000 0.86285  0.72554  0.10699  Biso   1.000  N
  N53      1.0000 0.87503  0.73449  0.15242  Biso   1.000  N
  N54      1.0000 0.82960  0.68909  0.15582  Biso   1.000  N
  N55      1.0000 0.83966  0.67975  0.19029  Biso   1.000  N
  N56      1.0000 0.81113  0.66237  0.17387  Biso   1.000  N
  N57      1.0000 0.77568  0.64925  0.12185  Biso   1.000  N
  N58      1.0000 0.75119  0.62324  0.09238  Biso   1.000  N
  N59      1.0000 0.72991  0.65103  0.12524  Biso   1.000  N
  N60      1.0000 0.67169  0.68603  0.09428  Biso   1.000  N
  S11      1.0000 0.83696  0.70537  0.07812  Biso   1.000  S
  S12      1.0000 0.74784  0.62654  0.04928  Biso   1.000  S
  C157     1.0000 0.34028  0.14742  0.21989  Biso   1.000  C
  H97      1.0000 0.35240  0.15560  0.21730  Biso   1.000  H
  C158     1.0000 0.32258  0.15086  0.20750  Biso   1.000  C
  C159     1.0000 0.30477  0.13928  0.21138  Biso   1.000  C
  H98      1.0000 0.29260  0.14080  0.20300  Biso   1.000  H
  C160     1.0000 0.30514  0.12518  0.22810  Biso   1.000  C
  H99      1.0000 0.29290  0.11760  0.23180  Biso   1.000  H
  C161     1.0000 0.32314  0.12242  0.23907  Biso   1.000  C
  H100     1.0000 0.32320  0.11240  0.25010  Biso   1.000  H
  C162     1.0000 0.35226  0.21662  0.09533  Biso   1.000  C
  C163     1.0000 0.38852  0.23679  0.16843  Biso   1.000  C
  H101     1.0000 0.39940  0.24680  0.16710  Biso   1.000  H
  C164     1.0000 0.38740  0.22538  0.18666  Biso   1.000  C
  H102     1.0000 0.39690  0.22800  0.19780  Biso   1.000  H
  C165     1.0000 0.37221  0.20993  0.18858  Biso   1.000  C
  H103     1.0000 0.37160  0.20130  0.20070  Biso   1.000  H
  C166     1.0000 0.35790  0.20751  0.17226  Biso   1.000  C
  C167     1.0000 0.35974  0.21999  0.15472  Biso   1.000  C
  H104     1.0000 0.34980  0.21830  0.14380  Biso   1.000  H
  C168     1.0000 0.34132  0.19123  0.17282  Biso   1.000  C
  C169     1.0000 0.32433  0.16539  0.18970  Biso   1.000  C
  C170     1.0000 0.31489  0.17411  0.15684  Biso   1.000  C
  C171     1.0000 0.28768  0.15399  0.13822  Biso   1.000  C
  H105     1.0000 0.28630  0.14580  0.15060  Biso   1.000  H
  C172     1.0000 0.30221  0.17048  0.13815  Biso   1.000  C
  C173     1.0000 0.30411  0.18265  0.12040  Biso   1.000  C
  H106     1.0000 0.31400  0.19380  0.11970  Biso   1.000  H
  C174     1.0000 0.29109  0.17808  0.10358  Biso   1.000  C
  H107     1.0000 0.29160  0.18640  0.09130  Biso   1.000  H
  C175     1.0000 0.27746  0.16140  0.10489  Biso   1.000  C
  H108     1.0000 0.26890  0.15840  0.09310  Biso   1.000  H
  C176     1.0000 0.23237  0.16699  0.13862  Biso   1.000  C
  H109     1.0000 0.24300  0.16590  0.14890  Biso   1.000  H
  C177     1.0000 0.22060  0.18460  0.13834  Biso   1.000  C
  H110     1.0000 0.22310  0.19550  0.14810  Biso   1.000  H
  C178     1.0000 0.20470  0.18640  0.12333  Biso   1.000  C
  H111     1.0000 0.19590  0.19840  0.12290  Biso   1.000  H
  C179     1.0000 0.20217  0.17016  0.10924  Biso   1.000  C
  C180     1.0000 0.21498  0.15269  0.11085  Biso   1.000  C
  H112     1.0000 0.21300  0.14150  0.10130  Biso   1.000  H
  C181     1.0000 0.18559  0.17092  0.09302  Biso   1.000  C
  C182     1.0000 0.24941  0.12389  0.07478  Biso   1.000  C
  N61      1.0000 0.34096  0.13308  0.23525  Biso   1.000  N
  N62      1.0000 0.36285  0.22554  0.10699  Biso   1.000  N
  N63      1.0000 0.37503  0.23449  0.15242  Biso   1.000  N
  N64      1.0000 0.32960  0.18909  0.15582  Biso   1.000  N
  N65      1.0000 0.33966  0.17975  0.19029  Biso   1.000  N
  N66      1.0000 0.31113  0.16237  0.17387  Biso   1.000  N
  N67      1.0000 0.27568  0.14925  0.12185  Biso   1.000  N
  N68      1.0000 0.25119  0.12324  0.09238  Biso   1.000  N
  N69      1.0000 0.22991  0.15103  0.12524  Biso   1.000  N
  N70      1.0000 0.17169  0.18603  0.09428  Biso   1.000  N
  S13      1.0000 0.33696  0.20537  0.07812  Biso   1.000  S
  S14      1.0000 0.24784  0.12654  0.04928  Biso   1.000  S
  C183     1.0000 0.34028  0.64742  0.71989  Biso   1.000  C
  H113     1.0000 0.35240  0.65560  0.71730  Biso   1.000  H
  C184     1.0000 0.32258  0.65086  0.70750  Biso   1.000  C
  C185     1.0000 0.30477  0.63928  0.71138  Biso   1.000  C
  H114     1.0000 0.29260  0.64080  0.70300  Biso   1.000  H
  C186     1.0000 0.30514  0.62518  0.72810  Biso   1.000  C
  H115     1.0000 0.29290  0.61760  0.73180  Biso   1.000  H
  C187     1.0000 0.32314  0.62242  0.73907  Biso   1.000  C
  H116     1.0000 0.32320  0.61240  0.75010  Biso   1.000  H
  C188     1.0000 0.35226  0.71662  0.59533  Biso   1.000  C
  C189     1.0000 0.38852  0.73679  0.66843  Biso   1.000  C
  H117     1.0000 0.39940  0.74680  0.66710  Biso   1.000  H
  C190     1.0000 0.38740  0.72538  0.68666  Biso   1.000  C
  H118     1.0000 0.39690  0.72800  0.69780  Biso   1.000  H
  C191     1.0000 0.37221  0.70993  0.68858  Biso   1.000  C
  H119     1.0000 0.37160  0.70130  0.70070  Biso   1.000  H
  C192     1.0000 0.35790  0.70751  0.67226  Biso   1.000  C
  C193     1.0000 0.35974  0.71999  0.65472  Biso   1.000  C
  H120     1.0000 0.34980  0.71830  0.64380  Biso   1.000  H
  C194     1.0000 0.34132  0.69123  0.67282  Biso   1.000  C
  C195     1.0000 0.32433  0.66539  0.68970  Biso   1.000  C
  C196     1.0000 0.31489  0.67411  0.65684  Biso   1.000  C
  C197     1.0000 0.28768  0.65399  0.63822  Biso   1.000  C
  H121     1.0000 0.28630  0.64580  0.65060  Biso   1.000  H
  C198     1.0000 0.30221  0.67048  0.63815  Biso   1.000  C
  C199     1.0000 0.30411  0.68265  0.62040  Biso   1.000  C
  H122     1.0000 0.31400  0.69380  0.61970  Biso   1.000  H
  C200     1.0000 0.29109  0.67808  0.60358  Biso   1.000  C
  H123     1.0000 0.29160  0.68640  0.59130  Biso   1.000  H
  C201     1.0000 0.27746  0.66140  0.60489  Biso   1.000  C
  H124     1.0000 0.26890  0.65840  0.59310  Biso   1.000  H
  C202     1.0000 0.23237  0.66699  0.63862  Biso   1.000  C
  H125     1.0000 0.24300  0.66590  0.64890  Biso   1.000  H
  C203     1.0000 0.22060  0.68460  0.63834  Biso   1.000  C
  H126     1.0000 0.22310  0.69550  0.64810  Biso   1.000  H
  C204     1.0000 0.20470  0.68640  0.62333  Biso   1.000  C
  H127     1.0000 0.19590  0.69840  0.62290  Biso   1.000  H
  C205     1.0000 0.20217  0.67016  0.60924  Biso   1.000  C
  C206     1.0000 0.21498  0.65269  0.61085  Biso   1.000  C
  H128     1.0000 0.21300  0.64150  0.60130  Biso   1.000  H
  C207     1.0000 0.18559  0.67092  0.59302  Biso   1.000  C
  C208     1.0000 0.24941  0.62389  0.57478  Biso   1.000  C
  N71      1.0000 0.34096  0.63308  0.73525  Biso   1.000  N
  N72      1.0000 0.36285  0.72554  0.60699  Biso   1.000  N
  N73      1.0000 0.37503  0.73449  0.65242  Biso   1.000  N
  N74      1.0000 0.32960  0.68909  0.65582  Biso   1.000  N
  N75      1.0000 0.33966  0.67975  0.69029  Biso   1.000  N
  N76      1.0000 0.31113  0.66237  0.67387  Biso   1.000  N
  N77      1.0000 0.27568  0.64925  0.62185  Biso   1.000  N
  N78      1.0000 0.25119  0.62324  0.59238  Biso   1.000  N
  N79      1.0000 0.22991  0.65103  0.62524  Biso   1.000  N
  N80      1.0000 0.17169  0.68603  0.59428  Biso   1.000  N
  S15      1.0000 0.33696  0.70537  0.57812  Biso   1.000  S
  S16      1.0000 0.24784  0.62654  0.54928  Biso   1.000  S
  C209     1.0000 0.34028  0.10258  0.03011  Biso   1.000  C
  H129     1.0000 0.35240  0.09440  0.03270  Biso   1.000  H
  C210     1.0000 0.32258  0.09914  0.04250  Biso   1.000  C
  C211     1.0000 0.30477  0.11072  0.03862  Biso   1.000  C
  H130     1.0000 0.29260  0.10920  0.04700  Biso   1.000  H
  C212     1.0000 0.30514  0.12482  0.02190  Biso   1.000  C
  H131     1.0000 0.29290  0.13240  0.01820  Biso   1.000  H
  C213     1.0000 0.32314  0.12758  0.01093  Biso   1.000  C
  H132     1.0000 0.32320  0.13760  0.99990  Biso   1.000  H
  C214     1.0000 0.35226  0.03338  0.15467  Biso   1.000  C
  C215     1.0000 0.38852  0.01321  0.08157  Biso   1.000  C
  H133     1.0000 0.39940  0.00320  0.08290  Biso   1.000  H
  C216     1.0000 0.38740  0.02462  0.06334  Biso   1.000  C
  H134     1.0000 0.39690  0.02200  0.05220  Biso   1.000  H
  C217     1.0000 0.37221  0.04007  0.06142  Biso   1.000  C
  H135     1.0000 0.37160  0.04870  0.04930  Biso   1.000  H
  C218     1.0000 0.35790  0.04249  0.07774  Biso   1.000  C
  C219     1.0000 0.35974  0.03001  0.09528  Biso   1.000  C
  H136     1.0000 0.34980  0.03170  0.10620  Biso   1.000  H
  C220     1.0000 0.34132  0.05877  0.07718  Biso   1.000  C
  C221     1.0000 0.32433  0.08461  0.06030  Biso   1.000  C
  C222     1.0000 0.31489  0.07589  0.09316  Biso   1.000  C
  C223     1.0000 0.28768  0.09601  0.11178  Biso   1.000  C
  H137     1.0000 0.28630  0.10420  0.09940  Biso   1.000  H
  C224     1.0000 0.30221  0.07952  0.11185  Biso   1.000  C
  C225     1.0000 0.30411  0.06735  0.12960  Biso   1.000  C
  H138     1.0000 0.31400  0.05620  0.13030  Biso   1.000  H
  C226     1.0000 0.29109  0.07192  0.14642  Biso   1.000  C
  H139     1.0000 0.29160  0.06360  0.15870  Biso   1.000  H
  C227     1.0000 0.27746  0.08860  0.14511  Biso   1.000  C
  H140     1.0000 0.26890  0.09160  0.15690  Biso   1.000  H
  C228     1.0000 0.23237  0.08301  0.11138  Biso   1.000  C
  H141     1.0000 0.24300  0.08410  0.10110  Biso   1.000  H
  C229     1.0000 0.22060  0.06540  0.11166  Biso   1.000  C
  H142     1.0000 0.22310  0.05450  0.10190  Biso   1.000  H
  C230     1.0000 0.20470  0.06360  0.12667  Biso   1.000  C
  H143     1.0000 0.19590  0.05160  0.12710  Biso   1.000  H
  C231     1.0000 0.20217  0.07984  0.14076  Biso   1.000  C
  C232     1.0000 0.21498  0.09731  0.13915  Biso   1.000  C
  H144     1.0000 0.21300  0.10850  0.14870  Biso   1.000  H
  C233     1.0000 0.18559  0.07908  0.15698  Biso   1.000  C
  C234     1.0000 0.24941  0.12611  0.17522  Biso   1.000  C
  N81      1.0000 0.34096  0.11692  0.01475  Biso   1.000  N
  N82      1.0000 0.36285  0.02446  0.14301  Biso   1.000  N
  N83      1.0000 0.37503  0.01551  0.09758  Biso   1.000  N
  N84      1.0000 0.32960  0.06091  0.09418  Biso   1.000  N
  N85      1.0000 0.33966  0.07025  0.05971  Biso   1.000  N
  N86      1.0000 0.31113  0.08763  0.07613  Biso   1.000  N
  N87      1.0000 0.27568  0.10075  0.12815  Biso   1.000  N
  N88      1.0000 0.25119  0.12676  0.15762  Biso   1.000  N
  N89      1.0000 0.22991  0.09897  0.12476  Biso   1.000  N
  N90      1.0000 0.17169  0.06397  0.15572  Biso   1.000  N
  S17      1.0000 0.33696  0.04463  0.17188  Biso   1.000  S
  S18      1.0000 0.24784  0.12346  0.20072  Biso   1.000  S
  C235     1.0000 0.34028  0.60258  0.53011  Biso   1.000  C
  H145     1.0000 0.35240  0.59440  0.53270  Biso   1.000  H
  C236     1.0000 0.32258  0.59914  0.54250  Biso   1.000  C
  C237     1.0000 0.30477  0.61072  0.53862  Biso   1.000  C
  H146     1.0000 0.29260  0.60920  0.54700  Biso   1.000  H
  C238     1.0000 0.30514  0.62482  0.52190  Biso   1.000  C
  H147     1.0000 0.29290  0.63240  0.51820  Biso   1.000  H
  C239     1.0000 0.32314  0.62758  0.51093  Biso   1.000  C
  H148     1.0000 0.32320  0.63760  0.49990  Biso   1.000  H
  C240     1.0000 0.35226  0.53338  0.65467  Biso   1.000  C
  C241     1.0000 0.38852  0.51321  0.58157  Biso   1.000  C
  H149     1.0000 0.39940  0.50320  0.58290  Biso   1.000  H
  C242     1.0000 0.38740  0.52462  0.56334  Biso   1.000  C
  H150     1.0000 0.39690  0.52200  0.55220  Biso   1.000  H
  C243     1.0000 0.37221  0.54007  0.56142  Biso   1.000  C
  H151     1.0000 0.37160  0.54870  0.54930  Biso   1.000  H
  C244     1.0000 0.35790  0.54249  0.57774  Biso   1.000  C
  C245     1.0000 0.35974  0.53001  0.59528  Biso   1.000  C
  H152     1.0000 0.34980  0.53170  0.60620  Biso   1.000  H
  C246     1.0000 0.34132  0.55877  0.57718  Biso   1.000  C
  C247     1.0000 0.32433  0.58461  0.56030  Biso   1.000  C
  C248     1.0000 0.31489  0.57589  0.59316  Biso   1.000  C
  C249     1.0000 0.28768  0.59601  0.61178  Biso   1.000  C
  H153     1.0000 0.28630  0.60420  0.59940  Biso   1.000  H
  C250     1.0000 0.30221  0.57952  0.61185  Biso   1.000  C
  C251     1.0000 0.30411  0.56735  0.62960  Biso   1.000  C
  H154     1.0000 0.31400  0.55620  0.63030  Biso   1.000  H
  C252     1.0000 0.29109  0.57192  0.64642  Biso   1.000  C
  H155     1.0000 0.29160  0.56360  0.65870  Biso   1.000  H
  C253     1.0000 0.27746  0.58860  0.64511  Biso   1.000  C
  H156     1.0000 0.26890  0.59160  0.65690  Biso   1.000  H
  C254     1.0000 0.23237  0.58301  0.61138  Biso   1.000  C
  H157     1.0000 0.24300  0.58410  0.60110  Biso   1.000  H
  C255     1.0000 0.22060  0.56540  0.61166  Biso   1.000  C
  H158     1.0000 0.22310  0.55450  0.60190  Biso   1.000  H
  C256     1.0000 0.20470  0.56360  0.62667  Biso   1.000  C
  H159     1.0000 0.19590  0.55160  0.62710  Biso   1.000  H
  C257     1.0000 0.20217  0.57984  0.64076  Biso   1.000  C
  C258     1.0000 0.21498  0.59731  0.63915  Biso   1.000  C
  H160     1.0000 0.21300  0.60850  0.64870  Biso   1.000  H
  C259     1.0000 0.18559  0.57908  0.65698  Biso   1.000  C
  C260     1.0000 0.24941  0.62611  0.67522  Biso   1.000  C
  N91      1.0000 0.34096  0.61692  0.51475  Biso   1.000  N
  N92      1.0000 0.36285  0.52446  0.64301  Biso   1.000  N
  N93      1.0000 0.37503  0.51551  0.59758  Biso   1.000  N
  N94      1.0000 0.32960  0.56091  0.59418  Biso   1.000  N
  N95      1.0000 0.33966  0.57025  0.55971  Biso   1.000  N
  N96      1.0000 0.31113  0.58763  0.57613  Biso   1.000  N
  N97      1.0000 0.27568  0.60075  0.62815  Biso   1.000  N
  N98      1.0000 0.25119  0.62676  0.65762  Biso   1.000  N
  N99      1.0000 0.22991  0.59897  0.62476  Biso   1.000  N
  N100     1.0000 0.17169  0.56397  0.65572  Biso   1.000  N
  S19      1.0000 0.33696  0.54463  0.67188  Biso   1.000  S
  S20      1.0000 0.24784  0.62346  0.70072  Biso   1.000  S
  C261     1.0000 0.84028  0.10258  0.53011  Biso   1.000  C
  H161     1.0000 0.85240  0.09440  0.53270  Biso   1.000  H
  C262     1.0000 0.82258  0.09914  0.54250  Biso   1.000  C
  C263     1.0000 0.80477  0.11072  0.53862  Biso   1.000  C
  H162     1.0000 0.79260  0.10920  0.54700  Biso   1.000  H
  C264     1.0000 0.80514  0.12482  0.52190  Biso   1.000  C
  H163     1.0000 0.79290  0.13240  0.51820  Biso   1.000  H
  C265     1.0000 0.82314  0.12758  0.51093  Biso   1.000  C
  H164     1.0000 0.82320  0.13760  0.49990  Biso   1.000  H
  C266     1.0000 0.85226  0.03338  0.65467  Biso   1.000  C
  C267     1.0000 0.88852  0.01321  0.58157  Biso   1.000  C
  H165     1.0000 0.89940  0.00320  0.58290  Biso   1.000  H
  C268     1.0000 0.88740  0.02462  0.56334  Biso   1.000  C
  H166     1.0000 0.89690  0.02200  0.55220  Biso   1.000  H
  C269     1.0000 0.87221  0.04007  0.56142  Biso   1.000  C
  H167     1.0000 0.87160  0.04870  0.54930  Biso   1.000  H
  C270     1.0000 0.85790  0.04249  0.57774  Biso   1.000  C
  C271     1.0000 0.85974  0.03001  0.59528  Biso   1.000  C
  H168     1.0000 0.84980  0.03170  0.60620  Biso   1.000  H
  C272     1.0000 0.84132  0.05877  0.57718  Biso   1.000  C
  C273     1.0000 0.82433  0.08461  0.56030  Biso   1.000  C
  C274     1.0000 0.81489  0.07589  0.59316  Biso   1.000  C
  C275     1.0000 0.78768  0.09601  0.61178  Biso   1.000  C
  H169     1.0000 0.78630  0.10420  0.59940  Biso   1.000  H
  C276     1.0000 0.80221  0.07952  0.61185  Biso   1.000  C
  C277     1.0000 0.80411  0.06735  0.62960  Biso   1.000  C
  H170     1.0000 0.81400  0.05620  0.63030  Biso   1.000  H
  C278     1.0000 0.79109  0.07192  0.64642  Biso   1.000  C
  H171     1.0000 0.79160  0.06360  0.65870  Biso   1.000  H
  C279     1.0000 0.77746  0.08860  0.64511  Biso   1.000  C
  H172     1.0000 0.76890  0.09160  0.65690  Biso   1.000  H
  C280     1.0000 0.73237  0.08301  0.61138  Biso   1.000  C
  H173     1.0000 0.74300  0.08410  0.60110  Biso   1.000  H
  C281     1.0000 0.72060  0.06540  0.61166  Biso   1.000  C
  H174     1.0000 0.72310  0.05450  0.60190  Biso   1.000  H
  C282     1.0000 0.70470  0.06360  0.62667  Biso   1.000  C
  H175     1.0000 0.69590  0.05160  0.62710  Biso   1.000  H
  C283     1.0000 0.70217  0.07984  0.64076  Biso   1.000  C
  C284     1.0000 0.71498  0.09731  0.63915  Biso   1.000  C
  H176     1.0000 0.71300  0.10850  0.64870  Biso   1.000  H
  C285     1.0000 0.68559  0.07908  0.65698  Biso   1.000  C
  C286     1.0000 0.74941  0.12611  0.67522  Biso   1.000  C
  N101     1.0000 0.84096  0.11692  0.51475  Biso   1.000  N
  N102     1.0000 0.86285  0.02446  0.64301  Biso   1.000  N
  N103     1.0000 0.87503  0.01551  0.59758  Biso   1.000  N
  N104     1.0000 0.82960  0.06091  0.59418  Biso   1.000  N
  N105     1.0000 0.83966  0.07025  0.55971  Biso   1.000  N
  N106     1.0000 0.81113  0.08763  0.57613  Biso   1.000  N
  N107     1.0000 0.77568  0.10075  0.62815  Biso   1.000  N
  N108     1.0000 0.75119  0.12676  0.65762  Biso   1.000  N
  N109     1.0000 0.72991  0.09897  0.62476  Biso   1.000  N
  N110     1.0000 0.67169  0.06397  0.65572  Biso   1.000  N
  S21      1.0000 0.83696  0.04463  0.67188  Biso   1.000  S
  S22      1.0000 0.74784  0.12346  0.70072  Biso   1.000  S
  C287     1.0000 0.84028  0.60258  0.03011  Biso   1.000  C
  H177     1.0000 0.85240  0.59440  0.03270  Biso   1.000  H
  C288     1.0000 0.82258  0.59914  0.04250  Biso   1.000  C
  C289     1.0000 0.80477  0.61072  0.03862  Biso   1.000  C
  H178     1.0000 0.79260  0.60920  0.04700  Biso   1.000  H
  C290     1.0000 0.80514  0.62482  0.02190  Biso   1.000  C
  H179     1.0000 0.79290  0.63240  0.01820  Biso   1.000  H
  C291     1.0000 0.82314  0.62758  0.01093  Biso   1.000  C
  H180     1.0000 0.82320  0.63760  0.99990  Biso   1.000  H
  C292     1.0000 0.85226  0.53338  0.15467  Biso   1.000  C
  C293     1.0000 0.88852  0.51321  0.08157  Biso   1.000  C
  H181     1.0000 0.89940  0.50320  0.08290  Biso   1.000  H
  C294     1.0000 0.88740  0.52462  0.06334  Biso   1.000  C
  H182     1.0000 0.89690  0.52200  0.05220  Biso   1.000  H
  C295     1.0000 0.87221  0.54007  0.06142  Biso   1.000  C
  H183     1.0000 0.87160  0.54870  0.04930  Biso   1.000  H
  C296     1.0000 0.85790  0.54249  0.07774  Biso   1.000  C
  C297     1.0000 0.85974  0.53001  0.09528  Biso   1.000  C
  H184     1.0000 0.84980  0.53170  0.10620  Biso   1.000  H
  C298     1.0000 0.84132  0.55877  0.07718  Biso   1.000  C
  C299     1.0000 0.82433  0.58461  0.06030  Biso   1.000  C
  C300     1.0000 0.81489  0.57589  0.09316  Biso   1.000  C
  C301     1.0000 0.78768  0.59601  0.11178  Biso   1.000  C
  H185     1.0000 0.78630  0.60420  0.09940  Biso   1.000  H
  C302     1.0000 0.80221  0.57952  0.11185  Biso   1.000  C
  C303     1.0000 0.80411  0.56735  0.12960  Biso   1.000  C
  H186     1.0000 0.81400  0.55620  0.13030  Biso   1.000  H
  C304     1.0000 0.79109  0.57192  0.14642  Biso   1.000  C
  H187     1.0000 0.79160  0.56360  0.15870  Biso   1.000  H
  C305     1.0000 0.77746  0.58860  0.14511  Biso   1.000  C
  H188     1.0000 0.76890  0.59160  0.15690  Biso   1.000  H
  C306     1.0000 0.73237  0.58301  0.11138  Biso   1.000  C
  H189     1.0000 0.74300  0.58410  0.10110  Biso   1.000  H
  C307     1.0000 0.72060  0.56540  0.11166  Biso   1.000  C
  H190     1.0000 0.72310  0.55450  0.10190  Biso   1.000  H
  C308     1.0000 0.70470  0.56360  0.12667  Biso   1.000  C
  H191     1.0000 0.69590  0.55160  0.12710  Biso   1.000  H
  C309     1.0000 0.70217  0.57984  0.14076  Biso   1.000  C
  C310     1.0000 0.71498  0.59731  0.13915  Biso   1.000  C
  H192     1.0000 0.71300  0.60850  0.14870  Biso   1.000  H
  C311     1.0000 0.68559  0.57908  0.15698  Biso   1.000  C
  C312     1.0000 0.74941  0.62611  0.17522  Biso   1.000  C
  N111     1.0000 0.84096  0.61692  0.01475  Biso   1.000  N
  N112     1.0000 0.86285  0.52446  0.14301  Biso   1.000  N
  N113     1.0000 0.87503  0.51551  0.09758  Biso   1.000  N
  N114     1.0000 0.82960  0.56091  0.09418  Biso   1.000  N
  N115     1.0000 0.83966  0.57025  0.05971  Biso   1.000  N
  N116     1.0000 0.81113  0.58763  0.07613  Biso   1.000  N
  N117     1.0000 0.77568  0.60075  0.12815  Biso   1.000  N
  N118     1.0000 0.75119  0.62676  0.15762  Biso   1.000  N
  N119     1.0000 0.72991  0.59897  0.12476  Biso   1.000  N
  N120     1.0000 0.67169  0.56397  0.15572  Biso   1.000  N
  S23      1.0000 0.83696  0.54463  0.17188  Biso   1.000  S
  S24      1.0000 0.74784  0.62346  0.20072  Biso   1.000  S
  C313     1.0000 0.90972  0.64742  0.53011  Biso   1.000  C
  H193     1.0000 0.89760  0.65560  0.53270  Biso   1.000  H
  C314     1.0000 0.92742  0.65086  0.54250  Biso   1.000  C
  C315     1.0000 0.94523  0.63928  0.53862  Biso   1.000  C
  H194     1.0000 0.95740  0.64080  0.54700  Biso   1.000  H
  C316     1.0000 0.94486  0.62518  0.52190  Biso   1.000  C
  H195     1.0000 0.95710  0.61760  0.51820  Biso   1.000  H
  C317     1.0000 0.92686  0.62242  0.51093  Biso   1.000  C
  H196     1.0000 0.92680  0.61240  0.49990  Biso   1.000  H
  C318     1.0000 0.89774  0.71662  0.65467  Biso   1.000  C
  C319     1.0000 0.86148  0.73679  0.58157  Biso   1.000  C
  H197     1.0000 0.85060  0.74680  0.58290  Biso   1.000  H
  C320     1.0000 0.86260  0.72538  0.56334  Biso   1.000  C
  H198     1.0000 0.85310  0.72800  0.55220  Biso   1.000  H
  C321     1.0000 0.87779  0.70993  0.56142  Biso   1.000  C
  H199     1.0000 0.87840  0.70130  0.54930  Biso   1.000  H
  C322     1.0000 0.89210  0.70751  0.57774  Biso   1.000  C
  C323     1.0000 0.89026  0.71999  0.59528  Biso   1.000  C
  H200     1.0000 0.90020  0.71830  0.60620  Biso   1.000  H
  C324     1.0000 0.90868  0.69123  0.57718  Biso   1.000  C
  C325     1.0000 0.92567  0.66539  0.56030  Biso   1.000  C
  C326     1.0000 0.93511  0.67411  0.59316  Biso   1.000  C
  C327     1.0000 0.96232  0.65399  0.61178  Biso   1.000  C
  H201     1.0000 0.96370  0.64580  0.59940  Biso   1.000  H
  C328     1.0000 0.94779  0.67048  0.61185  Biso   1.000  C
  C329     1.0000 0.94589  0.68265  0.62960  Biso   1.000  C
  H202     1.0000 0.93600  0.69380  0.63030  Biso   1.000  H
  C330     1.0000 0.95891  0.67808  0.64642  Biso   1.000  C
  H203     1.0000 0.95840  0.68640  0.65870  Biso   1.000  H
  C331     1.0000 0.97254  0.66140  0.64511  Biso   1.000  C
  H204     1.0000 0.98110  0.65840  0.65690  Biso   1.000  H
  C332     1.0000 0.01763  0.66699  0.61138  Biso   1.000  C
  H205     1.0000 0.00700  0.66590  0.60110  Biso   1.000  H
  C333     1.0000 0.02940  0.68460  0.61166  Biso   1.000  C
  H206     1.0000 0.02690  0.69550  0.60190  Biso   1.000  H
  C334     1.0000 0.04530  0.68640  0.62667  Biso   1.000  C
  H207     1.0000 0.05410  0.69840  0.62710  Biso   1.000  H
  C335     1.0000 0.04783  0.67016  0.64076  Biso   1.000  C
  C336     1.0000 0.03502  0.65269  0.63915  Biso   1.000  C
  H208     1.0000 0.03700  0.64150  0.64870  Biso   1.000  H
  C337     1.0000 0.06441  0.67092  0.65698  Biso   1.000  C
  C338     1.0000 0.00059  0.62389  0.67522  Biso   1.000  C
  N121     1.0000 0.90904  0.63308  0.51475  Biso   1.000  N
  N122     1.0000 0.88715  0.72554  0.64301  Biso   1.000  N
  N123     1.0000 0.87497  0.73449  0.59758  Biso   1.000  N
  N124     1.0000 0.92040  0.68909  0.59418  Biso   1.000  N
  N125     1.0000 0.91034  0.67975  0.55971  Biso   1.000  N
  N126     1.0000 0.93887  0.66237  0.57613  Biso   1.000  N
  N127     1.0000 0.97432  0.64925  0.62815  Biso   1.000  N
  N128     1.0000 0.99881  0.62324  0.65762  Biso   1.000  N
  N129     1.0000 0.02009  0.65103  0.62476  Biso   1.000  N
  N130     1.0000 0.07831  0.68603  0.65572  Biso   1.000  N
  S25      1.0000 0.91304  0.70537  0.67188  Biso   1.000  S
  S26      1.0000 0.00216  0.62654  0.70072  Biso   1.000  S
  C339     1.0000 0.90972  0.14742  0.03011  Biso   1.000  C
  H209     1.0000 0.89760  0.15560  0.03270  Biso   1.000  H
  C340     1.0000 0.92742  0.15086  0.04250  Biso   1.000  C
  C341     1.0000 0.94523  0.13928  0.03862  Biso   1.000  C
  H210     1.0000 0.95740  0.14080  0.04700  Biso   1.000  H
  C342     1.0000 0.94486  0.12518  0.02190  Biso   1.000  C
  H211     1.0000 0.95710  0.11760  0.01820  Biso   1.000  H
  C343     1.0000 0.92686  0.12242  0.01093  Biso   1.000  C
  H212     1.0000 0.92680  0.11240  0.99990  Biso   1.000  H
  C344     1.0000 0.89774  0.21662  0.15467  Biso   1.000  C
  C345     1.0000 0.86148  0.23679  0.08157  Biso   1.000  C
  H213     1.0000 0.85060  0.24680  0.08290  Biso   1.000  H
  C346     1.0000 0.86260  0.22538  0.06334  Biso   1.000  C
  H214     1.0000 0.85310  0.22800  0.05220  Biso   1.000  H
  C347     1.0000 0.87779  0.20993  0.06142  Biso   1.000  C
  H215     1.0000 0.87840  0.20130  0.04930  Biso   1.000  H
  C348     1.0000 0.89210  0.20751  0.07774  Biso   1.000  C
  C349     1.0000 0.89026  0.21999  0.09528  Biso   1.000  C
  H216     1.0000 0.90020  0.21830  0.10620  Biso   1.000  H
  C350     1.0000 0.90868  0.19123  0.07718  Biso   1.000  C
  C351     1.0000 0.92567  0.16539  0.06030  Biso   1.000  C
  C352     1.0000 0.93511  0.17411  0.09316  Biso   1.000  C
  C353     1.0000 0.96232  0.15399  0.11178  Biso   1.000  C
  H217     1.0000 0.96370  0.14580  0.09940  Biso   1.000  H
  C354     1.0000 0.94779  0.17048  0.11185  Biso   1.000  C
  C355     1.0000 0.94589  0.18265  0.12960  Biso   1.000  C
  H218     1.0000 0.93600  0.19380  0.13030  Biso   1.000  H
  C356     1.0000 0.95891  0.17808  0.14642  Biso   1.000  C
  H219     1.0000 0.95840  0.18640  0.15870  Biso   1.000  H
  C357     1.0000 0.97254  0.16140  0.14511  Biso   1.000  C
  H220     1.0000 0.98110  0.15840  0.15690  Biso   1.000  H
  C358     1.0000 0.01763  0.16699  0.11138  Biso   1.000  C
  H221     1.0000 0.00700  0.16590  0.10110  Biso   1.000  H
  C359     1.0000 0.02940  0.18460  0.11166  Biso   1.000  C
  H222     1.0000 0.02690  0.19550  0.10190  Biso   1.000  H
  C360     1.0000 0.04530  0.18640  0.12667  Biso   1.000  C
  H223     1.0000 0.05410  0.19840  0.12710  Biso   1.000  H
  C361     1.0000 0.04783  0.17016  0.14076  Biso   1.000  C
  C362     1.0000 0.03502  0.15269  0.13915  Biso   1.000  C
  H224     1.0000 0.03700  0.14150  0.14870  Biso   1.000  H
  C363     1.0000 0.06441  0.17092  0.15698  Biso   1.000  C
  C364     1.0000 0.00059  0.12389  0.17522  Biso   1.000  C
  N131     1.0000 0.90904  0.13308  0.01475  Biso   1.000  N
  N132     1.0000 0.88715  0.22554  0.14301  Biso   1.000  N
  N133     1.0000 0.87497  0.23449  0.09758  Biso   1.000  N
  N134     1.0000 0.92040  0.18909  0.09418  Biso   1.000  N
  N135     1.0000 0.91034  0.17975  0.05971  Biso   1.000  N
  N136     1.0000 0.93887  0.16237  0.07613  Biso   1.000  N
  N137     1.0000 0.97432  0.14925  0.12815  Biso   1.000  N
  N138     1.0000 0.99881  0.12324  0.15762  Biso   1.000  N
  N139     1.0000 0.02009  0.15103  0.12476  Biso   1.000  N
  N140     1.0000 0.07831  0.18603  0.15572  Biso   1.000  N
  S27      1.0000 0.91304  0.20537  0.17188  Biso   1.000  S
  S28      1.0000 0.00216  0.12654  0.20072  Biso   1.000  S
  C365     1.0000 0.40972  0.64742  0.03011  Biso   1.000  C
  H225     1.0000 0.39760  0.65560  0.03270  Biso   1.000  H
  C366     1.0000 0.42742  0.65086  0.04250  Biso   1.000  C
  C367     1.0000 0.44523  0.63928  0.03862  Biso   1.000  C
  H226     1.0000 0.45740  0.64080  0.04700  Biso   1.000  H
  C368     1.0000 0.44486  0.62518  0.02190  Biso   1.000  C
  H227     1.0000 0.45710  0.61760  0.01820  Biso   1.000  H
  C369     1.0000 0.42686  0.62242  0.01093  Biso   1.000  C
  H228     1.0000 0.42680  0.61240  0.99990  Biso   1.000  H
  C370     1.0000 0.39774  0.71662  0.15467  Biso   1.000  C
  C371     1.0000 0.36148  0.73679  0.08157  Biso   1.000  C
  H229     1.0000 0.35060  0.74680  0.08290  Biso   1.000  H
  C372     1.0000 0.36260  0.72538  0.06334  Biso   1.000  C
  H230     1.0000 0.35310  0.72800  0.05220  Biso   1.000  H
  C373     1.0000 0.37779  0.70993  0.06142  Biso   1.000  C
  H231     1.0000 0.37840  0.70130  0.04930  Biso   1.000  H
  C374     1.0000 0.39210  0.70751  0.07774  Biso   1.000  C
  C375     1.0000 0.39026  0.71999  0.09528  Biso   1.000  C
  H232     1.0000 0.40020  0.71830  0.10620  Biso   1.000  H
  C376     1.0000 0.40868  0.69123  0.07718  Biso   1.000  C
  C377     1.0000 0.42567  0.66539  0.06030  Biso   1.000  C
  C378     1.0000 0.43511  0.67411  0.09316  Biso   1.000  C
  C379     1.0000 0.46232  0.65399  0.11178  Biso   1.000  C
  H233     1.0000 0.46370  0.64580  0.09940  Biso   1.000  H
  C380     1.0000 0.44779  0.67048  0.11185  Biso   1.000  C
  C381     1.0000 0.44589  0.68265  0.12960  Biso   1.000  C
  H234     1.0000 0.43600  0.69380  0.13030  Biso   1.000  H
  C382     1.0000 0.45891  0.67808  0.14642  Biso   1.000  C
  H235     1.0000 0.45840  0.68640  0.15870  Biso   1.000  H
  C383     1.0000 0.47254  0.66140  0.14511  Biso   1.000  C
  H236     1.0000 0.48110  0.65840  0.15690  Biso   1.000  H
  C384     1.0000 0.51763  0.66699  0.11138  Biso   1.000  C
  H237     1.0000 0.50700  0.66590  0.10110  Biso   1.000  H
  C385     1.0000 0.52940  0.68460  0.11166  Biso   1.000  C
  H238     1.0000 0.52690  0.69550  0.10190  Biso   1.000  H
  C386     1.0000 0.54530  0.68640  0.12667  Biso   1.000  C
  H239     1.0000 0.55410  0.69840  0.12710  Biso   1.000  H
  C387     1.0000 0.54783  0.67016  0.14076  Biso   1.000  C
  C388     1.0000 0.53502  0.65269  0.13915  Biso   1.000  C
  H240     1.0000 0.53700  0.64150  0.14870  Biso   1.000  H
  C389     1.0000 0.56441  0.67092  0.15698  Biso   1.000  C
  C390     1.0000 0.50059  0.62389  0.17522  Biso   1.000  C
  N141     1.0000 0.40904  0.63308  0.01475  Biso   1.000  N
  N142     1.0000 0.38715  0.72554  0.14301  Biso   1.000  N
  N143     1.0000 0.37497  0.73449  0.09758  Biso   1.000  N
  N144     1.0000 0.42040  0.68909  0.09418  Biso   1.000  N
  N145     1.0000 0.41034  0.67975  0.05971  Biso   1.000  N
  N146     1.0000 0.43887  0.66237  0.07613  Biso   1.000  N
  N147     1.0000 0.47432  0.64925  0.12815  Biso   1.000  N
  N148     1.0000 0.49881  0.62324  0.15762  Biso   1.000  N
  N149     1.0000 0.52009  0.65103  0.12476  Biso   1.000  N
  N150     1.0000 0.57831  0.68603  0.15572  Biso   1.000  N
  S29      1.0000 0.41304  0.70537  0.17188  Biso   1.000  S
  S30      1.0000 0.50216  0.62654  0.20072  Biso   1.000  S
  C391     1.0000 0.40972  0.14742  0.53011  Biso   1.000  C
  H241     1.0000 0.39760  0.15560  0.53270  Biso   1.000  H
  C392     1.0000 0.42742  0.15086  0.54250  Biso   1.000  C
  C393     1.0000 0.44523  0.13928  0.53862  Biso   1.000  C
  H242     1.0000 0.45740  0.14080  0.54700  Biso   1.000  H
  C394     1.0000 0.44486  0.12518  0.52190  Biso   1.000  C
  H243     1.0000 0.45710  0.11760  0.51820  Biso   1.000  H
  C395     1.0000 0.42686  0.12242  0.51093  Biso   1.000  C
  H244     1.0000 0.42680  0.11240  0.49990  Biso   1.000  H
  C396     1.0000 0.39774  0.21662  0.65467  Biso   1.000  C
  C397     1.0000 0.36148  0.23679  0.58157  Biso   1.000  C
  H245     1.0000 0.35060  0.24680  0.58290  Biso   1.000  H
  C398     1.0000 0.36260  0.22538  0.56334  Biso   1.000  C
  H246     1.0000 0.35310  0.22800  0.55220  Biso   1.000  H
  C399     1.0000 0.37779  0.20993  0.56142  Biso   1.000  C
  H247     1.0000 0.37840  0.20130  0.54930  Biso   1.000  H
  C400     1.0000 0.39210  0.20751  0.57774  Biso   1.000  C
  C401     1.0000 0.39026  0.21999  0.59528  Biso   1.000  C
  H248     1.0000 0.40020  0.21830  0.60620  Biso   1.000  H
  C402     1.0000 0.40868  0.19123  0.57718  Biso   1.000  C
  C403     1.0000 0.42567  0.16539  0.56030  Biso   1.000  C
  C404     1.0000 0.43511  0.17411  0.59316  Biso   1.000  C
  C405     1.0000 0.46232  0.15399  0.61178  Biso   1.000  C
  H249     1.0000 0.46370  0.14580  0.59940  Biso   1.000  H
  C406     1.0000 0.44779  0.17048  0.61185  Biso   1.000  C
  C407     1.0000 0.44589  0.18265  0.62960  Biso   1.000  C
  H250     1.0000 0.43600  0.19380  0.63030  Biso   1.000  H
  C408     1.0000 0.45891  0.17808  0.64642  Biso   1.000  C
  H251     1.0000 0.45840  0.18640  0.65870  Biso   1.000  H
  C409     1.0000 0.47254  0.16140  0.64511  Biso   1.000  C
  H252     1.0000 0.48110  0.15840  0.65690  Biso   1.000  H
  C410     1.0000 0.51763  0.16699  0.61138  Biso   1.000  C
  H253     1.0000 0.50700  0.16590  0.60110  Biso   1.000  H
  C411     1.0000 0.52940  0.18460  0.61166  Biso   1.000  C
  H254     1.0000 0.52690  0.19550  0.60190  Biso   1.000  H
  C412     1.0000 0.54530  0.18640  0.62667  Biso   1.000  C
  H255     1.0000 0.55410  0.19840  0.62710  Biso   1.000  H
  C413     1.0000 0.54783  0.17016  0.64076  Biso   1.000  C
  C414     1.0000 0.53502  0.15269  0.63915  Biso   1.000  C
  H256     1.0000 0.53700  0.14150  0.64870  Biso   1.000  H
  C415     1.0000 0.56441  0.17092  0.65698  Biso   1.000  C
  C416     1.0000 0.50059  0.12389  0.67522  Biso   1.000  C
  N151     1.0000 0.40904  0.13308  0.51475  Biso   1.000  N
  N152     1.0000 0.38715  0.22554  0.64301  Biso   1.000  N
  N153     1.0000 0.37497  0.23449  0.59758  Biso   1.000  N
  N154     1.0000 0.42040  0.18909  0.59418  Biso   1.000  N
  N155     1.0000 0.41034  0.17975  0.55971  Biso   1.000  N
  N156     1.0000 0.43887  0.16237  0.57613  Biso   1.000  N
  N157     1.0000 0.47432  0.14925  0.62815  Biso   1.000  N
  N158     1.0000 0.49881  0.12324  0.65762  Biso   1.000  N
  N159     1.0000 0.52009  0.15103  0.62476  Biso   1.000  N
  N160     1.0000 0.57831  0.18603  0.65572  Biso   1.000  N
  S31      1.0000 0.41304  0.20537  0.67188  Biso   1.000  S
  S32      1.0000 0.50216  0.12654  0.70072  Biso   1.000  S
  C417     1.0000 0.21989  0.40972  0.60258  Biso   1.000  C
  H257     1.0000 0.21730  0.39760  0.59440  Biso   1.000  H
  C418     1.0000 0.20750  0.42742  0.59914  Biso   1.000  C
  C419     1.0000 0.21138  0.44523  0.61072  Biso   1.000  C
  H258     1.0000 0.20300  0.45740  0.60920  Biso   1.000  H
  C420     1.0000 0.22810  0.44486  0.62482  Biso   1.000  C
  H259     1.0000 0.23180  0.45710  0.63240  Biso   1.000  H
  C421     1.0000 0.23907  0.42686  0.62758  Biso   1.000  C
  H260     1.0000 0.25010  0.42680  0.63760  Biso   1.000  H
  C422     1.0000 0.09533  0.39774  0.53338  Biso   1.000  C
  C423     1.0000 0.16843  0.36148  0.51321  Biso   1.000  C
  H261     1.0000 0.16710  0.35060  0.50320  Biso   1.000  H
  C424     1.0000 0.18666  0.36260  0.52462  Biso   1.000  C
  H262     1.0000 0.19780  0.35310  0.52200  Biso   1.000  H
  C425     1.0000 0.18858  0.37779  0.54007  Biso   1.000  C
  H263     1.0000 0.20070  0.37840  0.54870  Biso   1.000  H
  C426     1.0000 0.17226  0.39210  0.54249  Biso   1.000  C
  C427     1.0000 0.15472  0.39026  0.53001  Biso   1.000  C
  H264     1.0000 0.14380  0.40020  0.53170  Biso   1.000  H
  C428     1.0000 0.17282  0.40868  0.55877  Biso   1.000  C
  C429     1.0000 0.18970  0.42567  0.58461  Biso   1.000  C
  C430     1.0000 0.15684  0.43511  0.57589  Biso   1.000  C
  C431     1.0000 0.13822  0.46232  0.59601  Biso   1.000  C
  H265     1.0000 0.15060  0.46370  0.60420  Biso   1.000  H
  C432     1.0000 0.13815  0.44779  0.57952  Biso   1.000  C
  C433     1.0000 0.12040  0.44589  0.56735  Biso   1.000  C
  H266     1.0000 0.11970  0.43600  0.55620  Biso   1.000  H
  C434     1.0000 0.10358  0.45891  0.57192  Biso   1.000  C
  H267     1.0000 0.09130  0.45840  0.56360  Biso   1.000  H
  C435     1.0000 0.10489  0.47254  0.58860  Biso   1.000  C
  H268     1.0000 0.09310  0.48110  0.59160  Biso   1.000  H
  C436     1.0000 0.13862  0.51763  0.58301  Biso   1.000  C
  H269     1.0000 0.14890  0.50700  0.58410  Biso   1.000  H
  C437     1.0000 0.13834  0.52940  0.56540  Biso   1.000  C
  H270     1.0000 0.14810  0.52690  0.55450  Biso   1.000  H
  C438     1.0000 0.12333  0.54530  0.56360  Biso   1.000  C
  H271     1.0000 0.12290  0.55410  0.55160  Biso   1.000  H
  C439     1.0000 0.10924  0.54783  0.57984  Biso   1.000  C
  C440     1.0000 0.11085  0.53502  0.59731  Biso   1.000  C
  H272     1.0000 0.10130  0.53700  0.60850  Biso   1.000  H
  C441     1.0000 0.09302  0.56441  0.57908  Biso   1.000  C
  C442     1.0000 0.07478  0.50059  0.62611  Biso   1.000  C
  N161     1.0000 0.23525  0.40904  0.61692  Biso   1.000  N
  N162     1.0000 0.10699  0.38715  0.52446  Biso   1.000  N
  N163     1.0000 0.15242  0.37497  0.51551  Biso   1.000  N
  N164     1.0000 0.15582  0.42040  0.56091  Biso   1.000  N
  N165     1.0000 0.19029  0.41034  0.57025  Biso   1.000  N
  N166     1.0000 0.17387  0.43887  0.58763  Biso   1.000  N
  N167     1.0000 0.12185  0.47432  0.60075  Biso   1.000  N
  N168     1.0000 0.09238  0.49881  0.62676  Biso   1.000  N
  N169     1.0000 0.12524  0.52009  0.59897  Biso   1.000  N
  N170     1.0000 0.09428  0.57831  0.56397  Biso   1.000  N
  S33      1.0000 0.07812  0.41304  0.54463  Biso   1.000  S
  S34      1.0000 0.04928  0.50216  0.62346  Biso   1.000  S
  C443     1.0000 0.21989  0.90972  0.10258  Biso   1.000  C
  H273     1.0000 0.21730  0.89760  0.09440  Biso   1.000  H
  C444     1.0000 0.20750  0.92742  0.09914  Biso   1.000  C
  C445     1.0000 0.21138  0.94523  0.11072  Biso   1.000  C
  H274     1.0000 0.20300  0.95740  0.10920  Biso   1.000  H
  C446     1.0000 0.22810  0.94486  0.12482  Biso   1.000  C
  H275     1.0000 0.23180  0.95710  0.13240  Biso   1.000  H
  C447     1.0000 0.23907  0.92686  0.12758  Biso   1.000  C
  H276     1.0000 0.25010  0.92680  0.13760  Biso   1.000  H
  C448     1.0000 0.09533  0.89774  0.03338  Biso   1.000  C
  C449     1.0000 0.16843  0.86148  0.01321  Biso   1.000  C
  H277     1.0000 0.16710  0.85060  0.00320  Biso   1.000  H
  C450     1.0000 0.18666  0.86260  0.02462  Biso   1.000  C
  H278     1.0000 0.19780  0.85310  0.02200  Biso   1.000  H
  C451     1.0000 0.18858  0.87779  0.04007  Biso   1.000  C
  H279     1.0000 0.20070  0.87840  0.04870  Biso   1.000  H
  C452     1.0000 0.17226  0.89210  0.04249  Biso   1.000  C
  C453     1.0000 0.15472  0.89026  0.03001  Biso   1.000  C
  H280     1.0000 0.14380  0.90020  0.03170  Biso   1.000  H
  C454     1.0000 0.17282  0.90868  0.05877  Biso   1.000  C
  C455     1.0000 0.18970  0.92567  0.08461  Biso   1.000  C
  C456     1.0000 0.15684  0.93511  0.07589  Biso   1.000  C
  C457     1.0000 0.13822  0.96232  0.09601  Biso   1.000  C
  H281     1.0000 0.15060  0.96370  0.10420  Biso   1.000  H
  C458     1.0000 0.13815  0.94779  0.07952  Biso   1.000  C
  C459     1.0000 0.12040  0.94589  0.06735  Biso   1.000  C
  H282     1.0000 0.11970  0.93600  0.05620  Biso   1.000  H
  C460     1.0000 0.10358  0.95891  0.07192  Biso   1.000  C
  H283     1.0000 0.09130  0.95840  0.06360  Biso   1.000  H
  C461     1.0000 0.10489  0.97254  0.08860  Biso   1.000  C
  H284     1.0000 0.09310  0.98110  0.09160  Biso   1.000  H
  C462     1.0000 0.13862  0.01763  0.08301  Biso   1.000  C
  H285     1.0000 0.14890  0.00700  0.08410  Biso   1.000  H
  C463     1.0000 0.13834  0.02940  0.06540  Biso   1.000  C
  H286     1.0000 0.14810  0.02690  0.05450  Biso   1.000  H
  C464     1.0000 0.12333  0.04530  0.06360  Biso   1.000  C
  H287     1.0000 0.12290  0.05410  0.05160  Biso   1.000  H
  C465     1.0000 0.10924  0.04783  0.07984  Biso   1.000  C
  C466     1.0000 0.11085  0.03502  0.09731  Biso   1.000  C
  H288     1.0000 0.10130  0.03700  0.10850  Biso   1.000  H
  C467     1.0000 0.09302  0.06441  0.07908  Biso   1.000  C
  C468     1.0000 0.07478  0.00059  0.12611  Biso   1.000  C
  N171     1.0000 0.23525  0.90904  0.11692  Biso   1.000  N
  N172     1.0000 0.10699  0.88715  0.02446  Biso   1.000  N
  N173     1.0000 0.15242  0.87497  0.01551  Biso   1.000  N
  N174     1.0000 0.15582  0.92040  0.06091  Biso   1.000  N
  N175     1.0000 0.19029  0.91034  0.07025  Biso   1.000  N
  N176     1.0000 0.17387  0.93887  0.08763  Biso   1.000  N
  N177     1.0000 0.12185  0.97432  0.10075  Biso   1.000  N
  N178     1.0000 0.09238  0.99881  0.12676  Biso   1.000  N
  N179     1.0000 0.12524  0.02009  0.09897  Biso   1.000  N
  N180     1.0000 0.09428  0.07831  0.06397  Biso   1.000  N
  S35      1.0000 0.07812  0.91304  0.04463  Biso   1.000  S
  S36      1.0000 0.04928  0.00216  0.12346  Biso   1.000  S
  C469     1.0000 0.71989  0.40972  0.10258  Biso   1.000  C
  H289     1.0000 0.71730  0.39760  0.09440  Biso   1.000  H
  C470     1.0000 0.70750  0.42742  0.09914  Biso   1.000  C
  C471     1.0000 0.71138  0.44523  0.11072  Biso   1.000  C
  H290     1.0000 0.70300  0.45740  0.10920  Biso   1.000  H
  C472     1.0000 0.72810  0.44486  0.12482  Biso   1.000  C
  H291     1.0000 0.73180  0.45710  0.13240  Biso   1.000  H
  C473     1.0000 0.73907  0.42686  0.12758  Biso   1.000  C
  H292     1.0000 0.75010  0.42680  0.13760  Biso   1.000  H
  C474     1.0000 0.59533  0.39774  0.03338  Biso   1.000  C
  C475     1.0000 0.66843  0.36148  0.01321  Biso   1.000  C
  H293     1.0000 0.66710  0.35060  0.00320  Biso   1.000  H
  C476     1.0000 0.68666  0.36260  0.02462  Biso   1.000  C
  H294     1.0000 0.69780  0.35310  0.02200  Biso   1.000  H
  C477     1.0000 0.68858  0.37779  0.04007  Biso   1.000  C
  H295     1.0000 0.70070  0.37840  0.04870  Biso   1.000  H
  C478     1.0000 0.67226  0.39210  0.04249  Biso   1.000  C
  C479     1.0000 0.65472  0.39026  0.03001  Biso   1.000  C
  H296     1.0000 0.64380  0.40020  0.03170  Biso   1.000  H
  C480     1.0000 0.67282  0.40868  0.05877  Biso   1.000  C
  C481     1.0000 0.68970  0.42567  0.08461  Biso   1.000  C
  C482     1.0000 0.65684  0.43511  0.07589  Biso   1.000  C
  C483     1.0000 0.63822  0.46232  0.09601  Biso   1.000  C
  H297     1.0000 0.65060  0.46370  0.10420  Biso   1.000  H
  C484     1.0000 0.63815  0.44779  0.07952  Biso   1.000  C
  C485     1.0000 0.62040  0.44589  0.06735  Biso   1.000  C
  H298     1.0000 0.61970  0.43600  0.05620  Biso   1.000  H
  C486     1.0000 0.60358  0.45891  0.07192  Biso   1.000  C
  H299     1.0000 0.59130  0.45840  0.06360  Biso   1.000  H
  C487     1.0000 0.60489  0.47254  0.08860  Biso   1.000  C
  H300     1.0000 0.59310  0.48110  0.09160  Biso   1.000  H
  C488     1.0000 0.63862  0.51763  0.08301  Biso   1.000  C
  H301     1.0000 0.64890  0.50700  0.08410  Biso   1.000  H
  C489     1.0000 0.63834  0.52940  0.06540  Biso   1.000  C
  H302     1.0000 0.64810  0.52690  0.05450  Biso   1.000  H
  C490     1.0000 0.62333  0.54530  0.06360  Biso   1.000  C
  H303     1.0000 0.62290  0.55410  0.05160  Biso   1.000  H
  C491     1.0000 0.60924  0.54783  0.07984  Biso   1.000  C
  C492     1.0000 0.61085  0.53502  0.09731  Biso   1.000  C
  H304     1.0000 0.60130  0.53700  0.10850  Biso   1.000  H
  C493     1.0000 0.59302  0.56441  0.07908  Biso   1.000  C
  C494     1.0000 0.57478  0.50059  0.12611  Biso   1.000  C
  N181     1.0000 0.73525  0.40904  0.11692  Biso   1.000  N
  N182     1.0000 0.60699  0.38715  0.02446  Biso   1.000  N
  N183     1.0000 0.65242  0.37497  0.01551  Biso   1.000  N
  N184     1.0000 0.65582  0.42040  0.06091  Biso   1.000  N
  N185     1.0000 0.69029  0.41034  0.07025  Biso   1.000  N
  N186     1.0000 0.67387  0.43887  0.08763  Biso   1.000  N
  N187     1.0000 0.62185  0.47432  0.10075  Biso   1.000  N
  N188     1.0000 0.59238  0.49881  0.12676  Biso   1.000  N
  N189     1.0000 0.62524  0.52009  0.09897  Biso   1.000  N
  N190     1.0000 0.59428  0.57831  0.06397  Biso   1.000  N
  S37      1.0000 0.57812  0.41304  0.04463  Biso   1.000  S
  S38      1.0000 0.54928  0.50216  0.12346  Biso   1.000  S
  C495     1.0000 0.71989  0.90972  0.60258  Biso   1.000  C
  H305     1.0000 0.71730  0.89760  0.59440  Biso   1.000  H
  C496     1.0000 0.70750  0.92742  0.59914  Biso   1.000  C
  C497     1.0000 0.71138  0.94523  0.61072  Biso   1.000  C
  H306     1.0000 0.70300  0.95740  0.60920  Biso   1.000  H
  C498     1.0000 0.72810  0.94486  0.62482  Biso   1.000  C
  H307     1.0000 0.73180  0.95710  0.63240  Biso   1.000  H
  C499     1.0000 0.73907  0.92686  0.62758  Biso   1.000  C
  H308     1.0000 0.75010  0.92680  0.63760  Biso   1.000  H
  C500     1.0000 0.59533  0.89774  0.53338  Biso   1.000  C
  C501     1.0000 0.66843  0.86148  0.51321  Biso   1.000  C
  H309     1.0000 0.66710  0.85060  0.50320  Biso   1.000  H
  C502     1.0000 0.68666  0.86260  0.52462  Biso   1.000  C
  H310     1.0000 0.69780  0.85310  0.52200  Biso   1.000  H
  C503     1.0000 0.68858  0.87779  0.54007  Biso   1.000  C
  H311     1.0000 0.70070  0.87840  0.54870  Biso   1.000  H
  C504     1.0000 0.67226  0.89210  0.54249  Biso   1.000  C
  C505     1.0000 0.65472  0.89026  0.53001  Biso   1.000  C
  H312     1.0000 0.64380  0.90020  0.53170  Biso   1.000  H
  C506     1.0000 0.67282  0.90868  0.55877  Biso   1.000  C
  C507     1.0000 0.68970  0.92567  0.58461  Biso   1.000  C
  C508     1.0000 0.65684  0.93511  0.57589  Biso   1.000  C
  C509     1.0000 0.63822  0.96232  0.59601  Biso   1.000  C
  H313     1.0000 0.65060  0.96370  0.60420  Biso   1.000  H
  C510     1.0000 0.63815  0.94779  0.57952  Biso   1.000  C
  C511     1.0000 0.62040  0.94589  0.56735  Biso   1.000  C
  H314     1.0000 0.61970  0.93600  0.55620  Biso   1.000  H
  C512     1.0000 0.60358  0.95891  0.57192  Biso   1.000  C
  H315     1.0000 0.59130  0.95840  0.56360  Biso   1.000  H
  C513     1.0000 0.60489  0.97254  0.58860  Biso   1.000  C
  H316     1.0000 0.59310  0.98110  0.59160  Biso   1.000  H
  C514     1.0000 0.63862  0.01763  0.58301  Biso   1.000  C
  H317     1.0000 0.64890  0.00700  0.58410  Biso   1.000  H
  C515     1.0000 0.63834  0.02940  0.56540  Biso   1.000  C
  H318     1.0000 0.64810  0.02690  0.55450  Biso   1.000  H
  C516     1.0000 0.62333  0.04530  0.56360  Biso   1.000  C
  H319     1.0000 0.62290  0.05410  0.55160  Biso   1.000  H
  C517     1.0000 0.60924  0.04783  0.57984  Biso   1.000  C
  C518     1.0000 0.61085  0.03502  0.59731  Biso   1.000  C
  H320     1.0000 0.60130  0.03700  0.60850  Biso   1.000  H
  C519     1.0000 0.59302  0.06441  0.57908  Biso   1.000  C
  C520     1.0000 0.57478  0.00059  0.62611  Biso   1.000  C
  N191     1.0000 0.73525  0.90904  0.61692  Biso   1.000  N
  N192     1.0000 0.60699  0.88715  0.52446  Biso   1.000  N
  N193     1.0000 0.65242  0.87497  0.51551  Biso   1.000  N
  N194     1.0000 0.65582  0.92040  0.56091  Biso   1.000  N
  N195     1.0000 0.69029  0.91034  0.57025  Biso   1.000  N
  N196     1.0000 0.67387  0.93887  0.58763  Biso   1.000  N
  N197     1.0000 0.62185  0.97432  0.60075  Biso   1.000  N
  N198     1.0000 0.59238  0.99881  0.62676  Biso   1.000  N
  N199     1.0000 0.62524  0.02009  0.59897  Biso   1.000  N
  N200     1.0000 0.59428  0.07831  0.56397  Biso   1.000  N
  S39      1.0000 0.57812  0.91304  0.54463  Biso   1.000  S
  S40      1.0000 0.54928  0.00216  0.62346  Biso   1.000  S
  C521     1.0000 0.71989  0.84028  0.14742  Biso   1.000  C
  H321     1.0000 0.71730  0.85240  0.15560  Biso   1.000  H
  C522     1.0000 0.70750  0.82258  0.15086  Biso   1.000  C
  C523     1.0000 0.71138  0.80477  0.13928  Biso   1.000  C
  H322     1.0000 0.70300  0.79260  0.14080  Biso   1.000  H
  C524     1.0000 0.72810  0.80514  0.12518  Biso   1.000  C
  H323     1.0000 0.73180  0.79290  0.11760  Biso   1.000  H
  C525     1.0000 0.73907  0.82314  0.12242  Biso   1.000  C
  H324     1.0000 0.75010  0.82320  0.11240  Biso   1.000  H
  C526     1.0000 0.59533  0.85226  0.21662  Biso   1.000  C
  C527     1.0000 0.66843  0.88852  0.23679  Biso   1.000  C
  H325     1.0000 0.66710  0.89940  0.24680  Biso   1.000  H
  C528     1.0000 0.68666  0.88740  0.22538  Biso   1.000  C
  H326     1.0000 0.69780  0.89690  0.22800  Biso   1.000  H
  C529     1.0000 0.68858  0.87221  0.20993  Biso   1.000  C
  H327     1.0000 0.70070  0.87160  0.20130  Biso   1.000  H
  C530     1.0000 0.67226  0.85790  0.20751  Biso   1.000  C
  C531     1.0000 0.65472  0.85974  0.21999  Biso   1.000  C
  H328     1.0000 0.64380  0.84980  0.21830  Biso   1.000  H
  C532     1.0000 0.67282  0.84132  0.19123  Biso   1.000  C
  C533     1.0000 0.68970  0.82433  0.16539  Biso   1.000  C
  C534     1.0000 0.65684  0.81489  0.17411  Biso   1.000  C
  C535     1.0000 0.63822  0.78768  0.15399  Biso   1.000  C
  H329     1.0000 0.65060  0.78630  0.14580  Biso   1.000  H
  C536     1.0000 0.63815  0.80221  0.17048  Biso   1.000  C
  C537     1.0000 0.62040  0.80411  0.18265  Biso   1.000  C
  H330     1.0000 0.61970  0.81400  0.19380  Biso   1.000  H
  C538     1.0000 0.60358  0.79109  0.17808  Biso   1.000  C
  H331     1.0000 0.59130  0.79160  0.18640  Biso   1.000  H
  C539     1.0000 0.60489  0.77746  0.16140  Biso   1.000  C
  H332     1.0000 0.59310  0.76890  0.15840  Biso   1.000  H
  C540     1.0000 0.63862  0.73237  0.16699  Biso   1.000  C
  H333     1.0000 0.64890  0.74300  0.16590  Biso   1.000  H
  C541     1.0000 0.63834  0.72060  0.18460  Biso   1.000  C
  H334     1.0000 0.64810  0.72310  0.19550  Biso   1.000  H
  C542     1.0000 0.62333  0.70470  0.18640  Biso   1.000  C
  H335     1.0000 0.62290  0.69590  0.19840  Biso   1.000  H
  C543     1.0000 0.60924  0.70217  0.17016  Biso   1.000  C
  C544     1.0000 0.61085  0.71498  0.15269  Biso   1.000  C
  H336     1.0000 0.60130  0.71300  0.14150  Biso   1.000  H
  C545     1.0000 0.59302  0.68559  0.17092  Biso   1.000  C
  C546     1.0000 0.57478  0.74941  0.12389  Biso   1.000  C
  N201     1.0000 0.73525  0.84096  0.13308  Biso   1.000  N
  N202     1.0000 0.60699  0.86285  0.22554  Biso   1.000  N
  N203     1.0000 0.65242  0.87503  0.23449  Biso   1.000  N
  N204     1.0000 0.65582  0.82960  0.18909  Biso   1.000  N
  N205     1.0000 0.69029  0.83966  0.17975  Biso   1.000  N
  N206     1.0000 0.67387  0.81113  0.16237  Biso   1.000  N
  N207     1.0000 0.62185  0.77568  0.14925  Biso   1.000  N
  N208     1.0000 0.59238  0.75119  0.12324  Biso   1.000  N
  N209     1.0000 0.62524  0.72991  0.15103  Biso   1.000  N
  N210     1.0000 0.59428  0.67169  0.18603  Biso   1.000  N
  S41      1.0000 0.57812  0.83696  0.20537  Biso   1.000  S
  S42      1.0000 0.54928  0.74784  0.12654  Biso   1.000  S
  C547     1.0000 0.71989  0.34028  0.64742  Biso   1.000  C
  H337     1.0000 0.71730  0.35240  0.65560  Biso   1.000  H
  C548     1.0000 0.70750  0.32258  0.65086  Biso   1.000  C
  C549     1.0000 0.71138  0.30477  0.63928  Biso   1.000  C
  H338     1.0000 0.70300  0.29260  0.64080  Biso   1.000  H
  C550     1.0000 0.72810  0.30514  0.62518  Biso   1.000  C
  H339     1.0000 0.73180  0.29290  0.61760  Biso   1.000  H
  C551     1.0000 0.73907  0.32314  0.62242  Biso   1.000  C
  H340     1.0000 0.75010  0.32320  0.61240  Biso   1.000  H
  C552     1.0000 0.59533  0.35226  0.71662  Biso   1.000  C
  C553     1.0000 0.66843  0.38852  0.73679  Biso   1.000  C
  H341     1.0000 0.66710  0.39940  0.74680  Biso   1.000  H
  C554     1.0000 0.68666  0.38740  0.72538  Biso   1.000  C
  H342     1.0000 0.69780  0.39690  0.72800  Biso   1.000  H
  C555     1.0000 0.68858  0.37221  0.70993  Biso   1.000  C
  H343     1.0000 0.70070  0.37160  0.70130  Biso   1.000  H
  C556     1.0000 0.67226  0.35790  0.70751  Biso   1.000  C
  C557     1.0000 0.65472  0.35974  0.71999  Biso   1.000  C
  H344     1.0000 0.64380  0.34980  0.71830  Biso   1.000  H
  C558     1.0000 0.67282  0.34132  0.69123  Biso   1.000  C
  C559     1.0000 0.68970  0.32433  0.66539  Biso   1.000  C
  C560     1.0000 0.65684  0.31489  0.67411  Biso   1.000  C
  C561     1.0000 0.63822  0.28768  0.65399  Biso   1.000  C
  H345     1.0000 0.65060  0.28630  0.64580  Biso   1.000  H
  C562     1.0000 0.63815  0.30221  0.67048  Biso   1.000  C
  C563     1.0000 0.62040  0.30411  0.68265  Biso   1.000  C
  H346     1.0000 0.61970  0.31400  0.69380  Biso   1.000  H
  C564     1.0000 0.60358  0.29109  0.67808  Biso   1.000  C
  H347     1.0000 0.59130  0.29160  0.68640  Biso   1.000  H
  C565     1.0000 0.60489  0.27746  0.66140  Biso   1.000  C
  H348     1.0000 0.59310  0.26890  0.65840  Biso   1.000  H
  C566     1.0000 0.63862  0.23237  0.66699  Biso   1.000  C
  H349     1.0000 0.64890  0.24300  0.66590  Biso   1.000  H
  C567     1.0000 0.63834  0.22060  0.68460  Biso   1.000  C
  H350     1.0000 0.64810  0.22310  0.69550  Biso   1.000  H
  C568     1.0000 0.62333  0.20470  0.68640  Biso   1.000  C
  H351     1.0000 0.62290  0.19590  0.69840  Biso   1.000  H
  C569     1.0000 0.60924  0.20217  0.67016  Biso   1.000  C
  C570     1.0000 0.61085  0.21498  0.65269  Biso   1.000  C
  H352     1.0000 0.60130  0.21300  0.64150  Biso   1.000  H
  C571     1.0000 0.59302  0.18559  0.67092  Biso   1.000  C
  C572     1.0000 0.57478  0.24941  0.62389  Biso   1.000  C
  N211     1.0000 0.73525  0.34096  0.63308  Biso   1.000  N
  N212     1.0000 0.60699  0.36285  0.72554  Biso   1.000  N
  N213     1.0000 0.65242  0.37503  0.73449  Biso   1.000  N
  N214     1.0000 0.65582  0.32960  0.68909  Biso   1.000  N
  N215     1.0000 0.69029  0.33966  0.67975  Biso   1.000  N
  N216     1.0000 0.67387  0.31113  0.66237  Biso   1.000  N
  N217     1.0000 0.62185  0.27568  0.64925  Biso   1.000  N
  N218     1.0000 0.59238  0.25119  0.62324  Biso   1.000  N
  N219     1.0000 0.62524  0.22991  0.65103  Biso   1.000  N
  N220     1.0000 0.59428  0.17169  0.68603  Biso   1.000  N
  S43      1.0000 0.57812  0.33696  0.70537  Biso   1.000  S
  S44      1.0000 0.54928  0.24784  0.62654  Biso   1.000  S
  C573     1.0000 0.21989  0.84028  0.64742  Biso   1.000  C
  H353     1.0000 0.21730  0.85240  0.65560  Biso   1.000  H
  C574     1.0000 0.20750  0.82258  0.65086  Biso   1.000  C
  C575     1.0000 0.21138  0.80477  0.63928  Biso   1.000  C
  H354     1.0000 0.20300  0.79260  0.64080  Biso   1.000  H
  C576     1.0000 0.22810  0.80514  0.62518  Biso   1.000  C
  H355     1.0000 0.23180  0.79290  0.61760  Biso   1.000  H
  C577     1.0000 0.23907  0.82314  0.62242  Biso   1.000  C
  H356     1.0000 0.25010  0.82320  0.61240  Biso   1.000  H
  C578     1.0000 0.09533  0.85226  0.71662  Biso   1.000  C
  C579     1.0000 0.16843  0.88852  0.73679  Biso   1.000  C
  H357     1.0000 0.16710  0.89940  0.74680  Biso   1.000  H
  C580     1.0000 0.18666  0.88740  0.72538  Biso   1.000  C
  H358     1.0000 0.19780  0.89690  0.72800  Biso   1.000  H
  C581     1.0000 0.18858  0.87221  0.70993  Biso   1.000  C
  H359     1.0000 0.20070  0.87160  0.70130  Biso   1.000  H
  C582     1.0000 0.17226  0.85790  0.70751  Biso   1.000  C
  C583     1.0000 0.15472  0.85974  0.71999  Biso   1.000  C
  H360     1.0000 0.14380  0.84980  0.71830  Biso   1.000  H
  C584     1.0000 0.17282  0.84132  0.69123  Biso   1.000  C
  C585     1.0000 0.18970  0.82433  0.66539  Biso   1.000  C
  C586     1.0000 0.15684  0.81489  0.67411  Biso   1.000  C
  C587     1.0000 0.13822  0.78768  0.65399  Biso   1.000  C
  H361     1.0000 0.15060  0.78630  0.64580  Biso   1.000  H
  C588     1.0000 0.13815  0.80221  0.67048  Biso   1.000  C
  C589     1.0000 0.12040  0.80411  0.68265  Biso   1.000  C
  H362     1.0000 0.11970  0.81400  0.69380  Biso   1.000  H
  C590     1.0000 0.10358  0.79109  0.67808  Biso   1.000  C
  H363     1.0000 0.09130  0.79160  0.68640  Biso   1.000  H
  C591     1.0000 0.10489  0.77746  0.66140  Biso   1.000  C
  H364     1.0000 0.09310  0.76890  0.65840  Biso   1.000  H
  C592     1.0000 0.13862  0.73237  0.66699  Biso   1.000  C
  H365     1.0000 0.14890  0.74300  0.66590  Biso   1.000  H
  C593     1.0000 0.13834  0.72060  0.68460  Biso   1.000  C
  H366     1.0000 0.14810  0.72310  0.69550  Biso   1.000  H
  C594     1.0000 0.12333  0.70470  0.68640  Biso   1.000  C
  H367     1.0000 0.12290  0.69590  0.69840  Biso   1.000  H
  C595     1.0000 0.10924  0.70217  0.67016  Biso   1.000  C
  C596     1.0000 0.11085  0.71498  0.65269  Biso   1.000  C
  H368     1.0000 0.10130  0.71300  0.64150  Biso   1.000  H
  C597     1.0000 0.09302  0.68559  0.67092  Biso   1.000  C
  C598     1.0000 0.07478  0.74941  0.62389  Biso   1.000  C
  N221     1.0000 0.23525  0.84096  0.63308  Biso   1.000  N
  N222     1.0000 0.10699  0.86285  0.72554  Biso   1.000  N
  N223     1.0000 0.15242  0.87503  0.73449  Biso   1.000  N
  N224     1.0000 0.15582  0.82960  0.68909  Biso   1.000  N
  N225     1.0000 0.19029  0.83966  0.67975  Biso   1.000  N
  N226     1.0000 0.17387  0.81113  0.66237  Biso   1.000  N
  N227     1.0000 0.12185  0.77568  0.64925  Biso   1.000  N
  N228     1.0000 0.09238  0.75119  0.62324  Biso   1.000  N
  N229     1.0000 0.12524  0.72991  0.65103  Biso   1.000  N
  N230     1.0000 0.09428  0.67169  0.68603  Biso   1.000  N
  S45      1.0000 0.07812  0.83696  0.70537  Biso   1.000  S
  S46      1.0000 0.04928  0.74784  0.62654  Biso   1.000  S
  C599     1.0000 0.21989  0.34028  0.14742  Biso   1.000  C
  H369     1.0000 0.21730  0.35240  0.15560  Biso   1.000  H
  C600     1.0000 0.20750  0.32258  0.15086  Biso   1.000  C
  C601     1.0000 0.21138  0.30477  0.13928  Biso   1.000  C
  H370     1.0000 0.20300  0.29260  0.14080  Biso   1.000  H
  C602     1.0000 0.22810  0.30514  0.12518  Biso   1.000  C
  H371     1.0000 0.23180  0.29290  0.11760  Biso   1.000  H
  C603     1.0000 0.23907  0.32314  0.12242  Biso   1.000  C
  H372     1.0000 0.25010  0.32320  0.11240  Biso   1.000  H
  C604     1.0000 0.09533  0.35226  0.21662  Biso   1.000  C
  C605     1.0000 0.16843  0.38852  0.23679  Biso   1.000  C
  H373     1.0000 0.16710  0.39940  0.24680  Biso   1.000  H
  C606     1.0000 0.18666  0.38740  0.22538  Biso   1.000  C
  H374     1.0000 0.19780  0.39690  0.22800  Biso   1.000  H
  C607     1.0000 0.18858  0.37221  0.20993  Biso   1.000  C
  H375     1.0000 0.20070  0.37160  0.20130  Biso   1.000  H
  C608     1.0000 0.17226  0.35790  0.20751  Biso   1.000  C
  C609     1.0000 0.15472  0.35974  0.21999  Biso   1.000  C
  H376     1.0000 0.14380  0.34980  0.21830  Biso   1.000  H
  C610     1.0000 0.17282  0.34132  0.19123  Biso   1.000  C
  C611     1.0000 0.18970  0.32433  0.16539  Biso   1.000  C
  C612     1.0000 0.15684  0.31489  0.17411  Biso   1.000  C
  C613     1.0000 0.13822  0.28768  0.15399  Biso   1.000  C
  H377     1.0000 0.15060  0.28630  0.14580  Biso   1.000  H
  C614     1.0000 0.13815  0.30221  0.17048  Biso   1.000  C
  C615     1.0000 0.12040  0.30411  0.18265  Biso   1.000  C
  H378     1.0000 0.11970  0.31400  0.19380  Biso   1.000  H
  C616     1.0000 0.10358  0.29109  0.17808  Biso   1.000  C
  H379     1.0000 0.09130  0.29160  0.18640  Biso   1.000  H
  C617     1.0000 0.10489  0.27746  0.16140  Biso   1.000  C
  H380     1.0000 0.09310  0.26890  0.15840  Biso   1.000  H
  C618     1.0000 0.13862  0.23237  0.16699  Biso   1.000  C
  H381     1.0000 0.14890  0.24300  0.16590  Biso   1.000  H
  C619     1.0000 0.13834  0.22060  0.18460  Biso   1.000  C
  H382     1.0000 0.14810  0.22310  0.19550  Biso   1.000  H
  C620     1.0000 0.12333  0.20470  0.18640  Biso   1.000  C
  H383     1.0000 0.12290  0.19590  0.19840  Biso   1.000  H
  C621     1.0000 0.10924  0.20217  0.17016  Biso   1.000  C
  C622     1.0000 0.11085  0.21498  0.15269  Biso   1.000  C
  H384     1.0000 0.10130  0.21300  0.14150  Biso   1.000  H
  C623     1.0000 0.09302  0.18559  0.17092  Biso   1.000  C
  C624     1.0000 0.07478  0.24941  0.12389  Biso   1.000  C
  N231     1.0000 0.23525  0.34096  0.13308  Biso   1.000  N
  N232     1.0000 0.10699  0.36285  0.22554  Biso   1.000  N
  N233     1.0000 0.15242  0.37503  0.23449  Biso   1.000  N
  N234     1.0000 0.15582  0.32960  0.18909  Biso   1.000  N
  N235     1.0000 0.19029  0.33966  0.17975  Biso   1.000  N
  N236     1.0000 0.17387  0.31113  0.16237  Biso   1.000  N
  N237     1.0000 0.12185  0.27568  0.14925  Biso   1.000  N
  N238     1.0000 0.09238  0.25119  0.12324  Biso   1.000  N
  N239     1.0000 0.12524  0.22991  0.15103  Biso   1.000  N
  N240     1.0000 0.09428  0.17169  0.18603  Biso   1.000  N
  S47      1.0000 0.07812  0.33696  0.20537  Biso   1.000  S
  S48      1.0000 0.04928  0.24784  0.12654  Biso   1.000  S
  C625     1.0000 0.03011  0.34028  0.10258  Biso   1.000  C
  H385     1.0000 0.03270  0.35240  0.09440  Biso   1.000  H
  C626     1.0000 0.04250  0.32258  0.09914  Biso   1.000  C
  C627     1.0000 0.03862  0.30477  0.11072  Biso   1.000  C
  H386     1.0000 0.04700  0.29260  0.10920  Biso   1.000  H
  C628     1.0000 0.02190  0.30514  0.12482  Biso   1.000  C
  H387     1.0000 0.01820  0.29290  0.13240  Biso   1.000  H
  C629     1.0000 0.01093  0.32314  0.12758  Biso   1.000  C
  H388     1.0000 0.99990  0.32320  0.13760  Biso   1.000  H
  C630     1.0000 0.15467  0.35226  0.03338  Biso   1.000  C
  C631     1.0000 0.08157  0.38852  0.01321  Biso   1.000  C
  H389     1.0000 0.08290  0.39940  0.00320  Biso   1.000  H
  C632     1.0000 0.06334  0.38740  0.02462  Biso   1.000  C
  H390     1.0000 0.05220  0.39690  0.02200  Biso   1.000  H
  C633     1.0000 0.06142  0.37221  0.04007  Biso   1.000  C
  H391     1.0000 0.04930  0.37160  0.04870  Biso   1.000  H
  C634     1.0000 0.07774  0.35790  0.04249  Biso   1.000  C
  C635     1.0000 0.09528  0.35974  0.03001  Biso   1.000  C
  H392     1.0000 0.10620  0.34980  0.03170  Biso   1.000  H
  C636     1.0000 0.07718  0.34132  0.05877  Biso   1.000  C
  C637     1.0000 0.06030  0.32433  0.08461  Biso   1.000  C
  C638     1.0000 0.09316  0.31489  0.07589  Biso   1.000  C
  C639     1.0000 0.11178  0.28768  0.09601  Biso   1.000  C
  H393     1.0000 0.09940  0.28630  0.10420  Biso   1.000  H
  C640     1.0000 0.11185  0.30221  0.07952  Biso   1.000  C
  C641     1.0000 0.12960  0.30411  0.06735  Biso   1.000  C
  H394     1.0000 0.13030  0.31400  0.05620  Biso   1.000  H
  C642     1.0000 0.14642  0.29109  0.07192  Biso   1.000  C
  H395     1.0000 0.15870  0.29160  0.06360  Biso   1.000  H
  C643     1.0000 0.14511  0.27746  0.08860  Biso   1.000  C
  H396     1.0000 0.15690  0.26890  0.09160  Biso   1.000  H
  C644     1.0000 0.11138  0.23237  0.08301  Biso   1.000  C
  H397     1.0000 0.10110  0.24300  0.08410  Biso   1.000  H
  C645     1.0000 0.11166  0.22060  0.06540  Biso   1.000  C
  H398     1.0000 0.10190  0.22310  0.05450  Biso   1.000  H
  C646     1.0000 0.12667  0.20470  0.06360  Biso   1.000  C
  H399     1.0000 0.12710  0.19590  0.05160  Biso   1.000  H
  C647     1.0000 0.14076  0.20217  0.07984  Biso   1.000  C
  C648     1.0000 0.13915  0.21498  0.09731  Biso   1.000  C
  H400     1.0000 0.14870  0.21300  0.10850  Biso   1.000  H
  C649     1.0000 0.15698  0.18559  0.07908  Biso   1.000  C
  C650     1.0000 0.17522  0.24941  0.12611  Biso   1.000  C
  N241     1.0000 0.01475  0.34096  0.11692  Biso   1.000  N
  N242     1.0000 0.14301  0.36285  0.02446  Biso   1.000  N
  N243     1.0000 0.09758  0.37503  0.01551  Biso   1.000  N
  N244     1.0000 0.09418  0.32960  0.06091  Biso   1.000  N
  N245     1.0000 0.05971  0.33966  0.07025  Biso   1.000  N
  N246     1.0000 0.07613  0.31113  0.08763  Biso   1.000  N
  N247     1.0000 0.12815  0.27568  0.10075  Biso   1.000  N
  N248     1.0000 0.15762  0.25119  0.12676  Biso   1.000  N
  N249     1.0000 0.12476  0.22991  0.09897  Biso   1.000  N
  N250     1.0000 0.15572  0.17169  0.06397  Biso   1.000  N
  S49      1.0000 0.17188  0.33696  0.04463  Biso   1.000  S
  S50      1.0000 0.20072  0.24784  0.12346  Biso   1.000  S
  C651     1.0000 0.03011  0.84028  0.60258  Biso   1.000  C
  H401     1.0000 0.03270  0.85240  0.59440  Biso   1.000  H
  C652     1.0000 0.04250  0.82258  0.59914  Biso   1.000  C
  C653     1.0000 0.03862  0.80477  0.61072  Biso   1.000  C
  H402     1.0000 0.04700  0.79260  0.60920  Biso   1.000  H
  C654     1.0000 0.02190  0.80514  0.62482  Biso   1.000  C
  H403     1.0000 0.01820  0.79290  0.63240  Biso   1.000  H
  C655     1.0000 0.01093  0.82314  0.62758  Biso   1.000  C
  H404     1.0000 0.99990  0.82320  0.63760  Biso   1.000  H
  C656     1.0000 0.15467  0.85226  0.53338  Biso   1.000  C
  C657     1.0000 0.08157  0.88852  0.51321  Biso   1.000  C
  H405     1.0000 0.08290  0.89940  0.50320  Biso   1.000  H
  C658     1.0000 0.06334  0.88740  0.52462  Biso   1.000  C
  H406     1.0000 0.05220  0.89690  0.52200  Biso   1.000  H
  C659     1.0000 0.06142  0.87221  0.54007  Biso   1.000  C
  H407     1.0000 0.04930  0.87160  0.54870  Biso   1.000  H
  C660     1.0000 0.07774  0.85790  0.54249  Biso   1.000  C
  C661     1.0000 0.09528  0.85974  0.53001  Biso   1.000  C
  H408     1.0000 0.10620  0.84980  0.53170  Biso   1.000  H
  C662     1.0000 0.07718  0.84132  0.55877  Biso   1.000  C
  C663     1.0000 0.06030  0.82433  0.58461  Biso   1.000  C
  C664     1.0000 0.09316  0.81489  0.57589  Biso   1.000  C
  C665     1.0000 0.11178  0.78768  0.59601  Biso   1.000  C
  H409     1.0000 0.09940  0.78630  0.60420  Biso   1.000  H
  C666     1.0000 0.11185  0.80221  0.57952  Biso   1.000  C
  C667     1.0000 0.12960  0.80411  0.56735  Biso   1.000  C
  H410     1.0000 0.13030  0.81400  0.55620  Biso   1.000  H
  C668     1.0000 0.14642  0.79109  0.57192  Biso   1.000  C
  H411     1.0000 0.15870  0.79160  0.56360  Biso   1.000  H
  C669     1.0000 0.14511  0.77746  0.58860  Biso   1.000  C
  H412     1.0000 0.15690  0.76890  0.59160  Biso   1.000  H
  C670     1.0000 0.11138  0.73237  0.58301  Biso   1.000  C
  H413     1.0000 0.10110  0.74300  0.58410  Biso   1.000  H
  C671     1.0000 0.11166  0.72060  0.56540  Biso   1.000  C
  H414     1.0000 0.10190  0.72310  0.55450  Biso   1.000  H
  C672     1.0000 0.12667  0.70470  0.56360  Biso   1.000  C
  H415     1.0000 0.12710  0.69590  0.55160  Biso   1.000  H
  C673     1.0000 0.14076  0.70217  0.57984  Biso   1.000  C
  C674     1.0000 0.13915  0.71498  0.59731  Biso   1.000  C
  H416     1.0000 0.14870  0.71300  0.60850  Biso   1.000  H
  C675     1.0000 0.15698  0.68559  0.57908  Biso   1.000  C
  C676     1.0000 0.17522  0.74941  0.62611  Biso   1.000  C
  N251     1.0000 0.01475  0.84096  0.61692  Biso   1.000  N
  N252     1.0000 0.14301  0.86285  0.52446  Biso   1.000  N
  N253     1.0000 0.09758  0.87503  0.51551  Biso   1.000  N
  N254     1.0000 0.09418  0.82960  0.56091  Biso   1.000  N
  N255     1.0000 0.05971  0.83966  0.57025  Biso   1.000  N
  N256     1.0000 0.07613  0.81113  0.58763  Biso   1.000  N
  N257     1.0000 0.12815  0.77568  0.60075  Biso   1.000  N
  N258     1.0000 0.15762  0.75119  0.62676  Biso   1.000  N
  N259     1.0000 0.12476  0.72991  0.59897  Biso   1.000  N
  N260     1.0000 0.15572  0.67169  0.56397  Biso   1.000  N
  S51      1.0000 0.17188  0.83696  0.54463  Biso   1.000  S
  S52      1.0000 0.20072  0.74784  0.62346  Biso   1.000  S
  C677     1.0000 0.53011  0.34028  0.60258  Biso   1.000  C
  H417     1.0000 0.53270  0.35240  0.59440  Biso   1.000  H
  C678     1.0000 0.54250  0.32258  0.59914  Biso   1.000  C
  C679     1.0000 0.53862  0.30477  0.61072  Biso   1.000  C
  H418     1.0000 0.54700  0.29260  0.60920  Biso   1.000  H
  C680     1.0000 0.52190  0.30514  0.62482  Biso   1.000  C
  H419     1.0000 0.51820  0.29290  0.63240  Biso   1.000  H
  C681     1.0000 0.51093  0.32314  0.62758  Biso   1.000  C
  H420     1.0000 0.49990  0.32320  0.63760  Biso   1.000  H
  C682     1.0000 0.65467  0.35226  0.53338  Biso   1.000  C
  C683     1.0000 0.58157  0.38852  0.51321  Biso   1.000  C
  H421     1.0000 0.58290  0.39940  0.50320  Biso   1.000  H
  C684     1.0000 0.56334  0.38740  0.52462  Biso   1.000  C
  H422     1.0000 0.55220  0.39690  0.52200  Biso   1.000  H
  C685     1.0000 0.56142  0.37221  0.54007  Biso   1.000  C
  H423     1.0000 0.54930  0.37160  0.54870  Biso   1.000  H
  C686     1.0000 0.57774  0.35790  0.54249  Biso   1.000  C
  C687     1.0000 0.59528  0.35974  0.53001  Biso   1.000  C
  H424     1.0000 0.60620  0.34980  0.53170  Biso   1.000  H
  C688     1.0000 0.57718  0.34132  0.55877  Biso   1.000  C
  C689     1.0000 0.56030  0.32433  0.58461  Biso   1.000  C
  C690     1.0000 0.59316  0.31489  0.57589  Biso   1.000  C
  C691     1.0000 0.61178  0.28768  0.59601  Biso   1.000  C
  H425     1.0000 0.59940  0.28630  0.60420  Biso   1.000  H
  C692     1.0000 0.61185  0.30221  0.57952  Biso   1.000  C
  C693     1.0000 0.62960  0.30411  0.56735  Biso   1.000  C
  H426     1.0000 0.63030  0.31400  0.55620  Biso   1.000  H
  C694     1.0000 0.64642  0.29109  0.57192  Biso   1.000  C
  H427     1.0000 0.65870  0.29160  0.56360  Biso   1.000  H
  C695     1.0000 0.64511  0.27746  0.58860  Biso   1.000  C
  H428     1.0000 0.65690  0.26890  0.59160  Biso   1.000  H
  C696     1.0000 0.61138  0.23237  0.58301  Biso   1.000  C
  H429     1.0000 0.60110  0.24300  0.58410  Biso   1.000  H
  C697     1.0000 0.61166  0.22060  0.56540  Biso   1.000  C
  H430     1.0000 0.60190  0.22310  0.55450  Biso   1.000  H
  C698     1.0000 0.62667  0.20470  0.56360  Biso   1.000  C
  H431     1.0000 0.62710  0.19590  0.55160  Biso   1.000  H
  C699     1.0000 0.64076  0.20217  0.57984  Biso   1.000  C
  C700     1.0000 0.63915  0.21498  0.59731  Biso   1.000  C
  H432     1.0000 0.64870  0.21300  0.60850  Biso   1.000  H
  C701     1.0000 0.65698  0.18559  0.57908  Biso   1.000  C
  C702     1.0000 0.67522  0.24941  0.62611  Biso   1.000  C
  N261     1.0000 0.51475  0.34096  0.61692  Biso   1.000  N
  N262     1.0000 0.64301  0.36285  0.52446  Biso   1.000  N
  N263     1.0000 0.59758  0.37503  0.51551  Biso   1.000  N
  N264     1.0000 0.59418  0.32960  0.56091  Biso   1.000  N
  N265     1.0000 0.55971  0.33966  0.57025  Biso   1.000  N
  N266     1.0000 0.57613  0.31113  0.58763  Biso   1.000  N
  N267     1.0000 0.62815  0.27568  0.60075  Biso   1.000  N
  N268     1.0000 0.65762  0.25119  0.62676  Biso   1.000  N
  N269     1.0000 0.62476  0.22991  0.59897  Biso   1.000  N
  N270     1.0000 0.65572  0.17169  0.56397  Biso   1.000  N
  S53      1.0000 0.67188  0.33696  0.54463  Biso   1.000  S
  S54      1.0000 0.70072  0.24784  0.62346  Biso   1.000  S
  C703     1.0000 0.53011  0.84028  0.10258  Biso   1.000  C
  H433     1.0000 0.53270  0.85240  0.09440  Biso   1.000  H
  C704     1.0000 0.54250  0.82258  0.09914  Biso   1.000  C
  C705     1.0000 0.53862  0.80477  0.11072  Biso   1.000  C
  H434     1.0000 0.54700  0.79260  0.10920  Biso   1.000  H
  C706     1.0000 0.52190  0.80514  0.12482  Biso   1.000  C
  H435     1.0000 0.51820  0.79290  0.13240  Biso   1.000  H
  C707     1.0000 0.51093  0.82314  0.12758  Biso   1.000  C
  H436     1.0000 0.49990  0.82320  0.13760  Biso   1.000  H
  C708     1.0000 0.65467  0.85226  0.03338  Biso   1.000  C
  C709     1.0000 0.58157  0.88852  0.01321  Biso   1.000  C
  H437     1.0000 0.58290  0.89940  0.00320  Biso   1.000  H
  C710     1.0000 0.56334  0.88740  0.02462  Biso   1.000  C
  H438     1.0000 0.55220  0.89690  0.02200  Biso   1.000  H
  C711     1.0000 0.56142  0.87221  0.04007  Biso   1.000  C
  H439     1.0000 0.54930  0.87160  0.04870  Biso   1.000  H
  C712     1.0000 0.57774  0.85790  0.04249  Biso   1.000  C
  C713     1.0000 0.59528  0.85974  0.03001  Biso   1.000  C
  H440     1.0000 0.60620  0.84980  0.03170  Biso   1.000  H
  C714     1.0000 0.57718  0.84132  0.05877  Biso   1.000  C
  C715     1.0000 0.56030  0.82433  0.08461  Biso   1.000  C
  C716     1.0000 0.59316  0.81489  0.07589  Biso   1.000  C
  C717     1.0000 0.61178  0.78768  0.09601  Biso   1.000  C
  H441     1.0000 0.59940  0.78630  0.10420  Biso   1.000  H
  C718     1.0000 0.61185  0.80221  0.07952  Biso   1.000  C
  C719     1.0000 0.62960  0.80411  0.06735  Biso   1.000  C
  H442     1.0000 0.63030  0.81400  0.05620  Biso   1.000  H
  C720     1.0000 0.64642  0.79109  0.07192  Biso   1.000  C
  H443     1.0000 0.65870  0.79160  0.06360  Biso   1.000  H
  C721     1.0000 0.64511  0.77746  0.08860  Biso   1.000  C
  H444     1.0000 0.65690  0.76890  0.09160  Biso   1.000  H
  C722     1.0000 0.61138  0.73237  0.08301  Biso   1.000  C
  H445     1.0000 0.60110  0.74300  0.08410  Biso   1.000  H
  C723     1.0000 0.61166  0.72060  0.06540  Biso   1.000  C
  H446     1.0000 0.60190  0.72310  0.05450  Biso   1.000  H
  C724     1.0000 0.62667  0.70470  0.06360  Biso   1.000  C
  H447     1.0000 0.62710  0.69590  0.05160  Biso   1.000  H
  C725     1.0000 0.64076  0.70217  0.07984  Biso   1.000  C
  C726     1.0000 0.63915  0.71498  0.09731  Biso   1.000  C
  H448     1.0000 0.64870  0.71300  0.10850  Biso   1.000  H
  C727     1.0000 0.65698  0.68559  0.07908  Biso   1.000  C
  C728     1.0000 0.67522  0.74941  0.12611  Biso   1.000  C
  N271     1.0000 0.51475  0.84096  0.11692  Biso   1.000  N
  N272     1.0000 0.64301  0.86285  0.02446  Biso   1.000  N
  N273     1.0000 0.59758  0.87503  0.01551  Biso   1.000  N
  N274     1.0000 0.59418  0.82960  0.06091  Biso   1.000  N
  N275     1.0000 0.55971  0.83966  0.07025  Biso   1.000  N
  N276     1.0000 0.57613  0.81113  0.08763  Biso   1.000  N
  N277     1.0000 0.62815  0.77568  0.10075  Biso   1.000  N
  N278     1.0000 0.65762  0.75119  0.12676  Biso   1.000  N
  N279     1.0000 0.62476  0.72991  0.09897  Biso   1.000  N
  N280     1.0000 0.65572  0.67169  0.06397  Biso   1.000  N
  S55      1.0000 0.67188  0.83696  0.04463  Biso   1.000  S
  S56      1.0000 0.70072  0.74784  0.12346  Biso   1.000  S
  C729     1.0000 0.53011  0.90972  0.64742  Biso   1.000  C
  H449     1.0000 0.53270  0.89760  0.65560  Biso   1.000  H
  C730     1.0000 0.54250  0.92742  0.65086  Biso   1.000  C
  C731     1.0000 0.53862  0.94523  0.63928  Biso   1.000  C
  H450     1.0000 0.54700  0.95740  0.64080  Biso   1.000  H
  C732     1.0000 0.52190  0.94486  0.62518  Biso   1.000  C
  H451     1.0000 0.51820  0.95710  0.61760  Biso   1.000  H
  C733     1.0000 0.51093  0.92686  0.62242  Biso   1.000  C
  H452     1.0000 0.49990  0.92680  0.61240  Biso   1.000  H
  C734     1.0000 0.65467  0.89774  0.71662  Biso   1.000  C
  C735     1.0000 0.58157  0.86148  0.73679  Biso   1.000  C
  H453     1.0000 0.58290  0.85060  0.74680  Biso   1.000  H
  C736     1.0000 0.56334  0.86260  0.72538  Biso   1.000  C
  H454     1.0000 0.55220  0.85310  0.72800  Biso   1.000  H
  C737     1.0000 0.56142  0.87779  0.70993  Biso   1.000  C
  H455     1.0000 0.54930  0.87840  0.70130  Biso   1.000  H
  C738     1.0000 0.57774  0.89210  0.70751  Biso   1.000  C
  C739     1.0000 0.59528  0.89026  0.71999  Biso   1.000  C
  H456     1.0000 0.60620  0.90020  0.71830  Biso   1.000  H
  C740     1.0000 0.57718  0.90868  0.69123  Biso   1.000  C
  C741     1.0000 0.56030  0.92567  0.66539  Biso   1.000  C
  C742     1.0000 0.59316  0.93511  0.67411  Biso   1.000  C
  C743     1.0000 0.61178  0.96232  0.65399  Biso   1.000  C
  H457     1.0000 0.59940  0.96370  0.64580  Biso   1.000  H
  C744     1.0000 0.61185  0.94779  0.67048  Biso   1.000  C
  C745     1.0000 0.62960  0.94589  0.68265  Biso   1.000  C
  H458     1.0000 0.63030  0.93600  0.69380  Biso   1.000  H
  C746     1.0000 0.64642  0.95891  0.67808  Biso   1.000  C
  H459     1.0000 0.65870  0.95840  0.68640  Biso   1.000  H
  C747     1.0000 0.64511  0.97254  0.66140  Biso   1.000  C
  H460     1.0000 0.65690  0.98110  0.65840  Biso   1.000  H
  C748     1.0000 0.61138  0.01763  0.66699  Biso   1.000  C
  H461     1.0000 0.60110  0.00700  0.66590  Biso   1.000  H
  C749     1.0000 0.61166  0.02940  0.68460  Biso   1.000  C
  H462     1.0000 0.60190  0.02690  0.69550  Biso   1.000  H
  C750     1.0000 0.62667  0.04530  0.68640  Biso   1.000  C
  H463     1.0000 0.62710  0.05410  0.69840  Biso   1.000  H
  C751     1.0000 0.64076  0.04783  0.67016  Biso   1.000  C
  C752     1.0000 0.63915  0.03502  0.65269  Biso   1.000  C
  H464     1.0000 0.64870  0.03700  0.64150  Biso   1.000  H
  C753     1.0000 0.65698  0.06441  0.67092  Biso   1.000  C
  C754     1.0000 0.67522  0.00059  0.62389  Biso   1.000  C
  N281     1.0000 0.51475  0.90904  0.63308  Biso   1.000  N
  N282     1.0000 0.64301  0.88715  0.72554  Biso   1.000  N
  N283     1.0000 0.59758  0.87497  0.73449  Biso   1.000  N
  N284     1.0000 0.59418  0.92040  0.68909  Biso   1.000  N
  N285     1.0000 0.55971  0.91034  0.67975  Biso   1.000  N
  N286     1.0000 0.57613  0.93887  0.66237  Biso   1.000  N
  N287     1.0000 0.62815  0.97432  0.64925  Biso   1.000  N
  N288     1.0000 0.65762  0.99881  0.62324  Biso   1.000  N
  N289     1.0000 0.62476  0.02009  0.65103  Biso   1.000  N
  N290     1.0000 0.65572  0.07831  0.68603  Biso   1.000  N
  S57      1.0000 0.67188  0.91304  0.70537  Biso   1.000  S
  S58      1.0000 0.70072  0.00216  0.62654  Biso   1.000  S
  C755     1.0000 0.53011  0.40972  0.14742  Biso   1.000  C
  H465     1.0000 0.53270  0.39760  0.15560  Biso   1.000  H
  C756     1.0000 0.54250  0.42742  0.15086  Biso   1.000  C
  C757     1.0000 0.53862  0.44523  0.13928  Biso   1.000  C
  H466     1.0000 0.54700  0.45740  0.14080  Biso   1.000  H
  C758     1.0000 0.52190  0.44486  0.12518  Biso   1.000  C
  H467     1.0000 0.51820  0.45710  0.11760  Biso   1.000  H
  C759     1.0000 0.51093  0.42686  0.12242  Biso   1.000  C
  H468     1.0000 0.49990  0.42680  0.11240  Biso   1.000  H
  C760     1.0000 0.65467  0.39774  0.21662  Biso   1.000  C
  C761     1.0000 0.58157  0.36148  0.23679  Biso   1.000  C
  H469     1.0000 0.58290  0.35060  0.24680  Biso   1.000  H
  C762     1.0000 0.56334  0.36260  0.22538  Biso   1.000  C
  H470     1.0000 0.55220  0.35310  0.22800  Biso   1.000  H
  C763     1.0000 0.56142  0.37779  0.20993  Biso   1.000  C
  H471     1.0000 0.54930  0.37840  0.20130  Biso   1.000  H
  C764     1.0000 0.57774  0.39210  0.20751  Biso   1.000  C
  C765     1.0000 0.59528  0.39026  0.21999  Biso   1.000  C
  H472     1.0000 0.60620  0.40020  0.21830  Biso   1.000  H
  C766     1.0000 0.57718  0.40868  0.19123  Biso   1.000  C
  C767     1.0000 0.56030  0.42567  0.16539  Biso   1.000  C
  C768     1.0000 0.59316  0.43511  0.17411  Biso   1.000  C
  C769     1.0000 0.61178  0.46232  0.15399  Biso   1.000  C
  H473     1.0000 0.59940  0.46370  0.14580  Biso   1.000  H
  C770     1.0000 0.61185  0.44779  0.17048  Biso   1.000  C
  C771     1.0000 0.62960  0.44589  0.18265  Biso   1.000  C
  H474     1.0000 0.63030  0.43600  0.19380  Biso   1.000  H
  C772     1.0000 0.64642  0.45891  0.17808  Biso   1.000  C
  H475     1.0000 0.65870  0.45840  0.18640  Biso   1.000  H
  C773     1.0000 0.64511  0.47254  0.16140  Biso   1.000  C
  H476     1.0000 0.65690  0.48110  0.15840  Biso   1.000  H
  C774     1.0000 0.61138  0.51763  0.16699  Biso   1.000  C
  H477     1.0000 0.60110  0.50700  0.16590  Biso   1.000  H
  C775     1.0000 0.61166  0.52940  0.18460  Biso   1.000  C
  H478     1.0000 0.60190  0.52690  0.19550  Biso   1.000  H
  C776     1.0000 0.62667  0.54530  0.18640  Biso   1.000  C
  H479     1.0000 0.62710  0.55410  0.19840  Biso   1.000  H
  C777     1.0000 0.64076  0.54783  0.17016  Biso   1.000  C
  C778     1.0000 0.63915  0.53502  0.15269  Biso   1.000  C
  H480     1.0000 0.64870  0.53700  0.14150  Biso   1.000  H
  C779     1.0000 0.65698  0.56441  0.17092  Biso   1.000  C
  C780     1.0000 0.67522  0.50059  0.12389  Biso   1.000  C
  N291     1.0000 0.51475  0.40904  0.13308  Biso   1.000  N
  N292     1.0000 0.64301  0.38715  0.22554  Biso   1.000  N
  N293     1.0000 0.59758  0.37497  0.23449  Biso   1.000  N
  N294     1.0000 0.59418  0.42040  0.18909  Biso   1.000  N
  N295     1.0000 0.55971  0.41034  0.17975  Biso   1.000  N
  N296     1.0000 0.57613  0.43887  0.16237  Biso   1.000  N
  N297     1.0000 0.62815  0.47432  0.14925  Biso   1.000  N
  N298     1.0000 0.65762  0.49881  0.12324  Biso   1.000  N
  N299     1.0000 0.62476  0.52009  0.15103  Biso   1.000  N
  N300     1.0000 0.65572  0.57831  0.18603  Biso   1.000  N
  S59      1.0000 0.67188  0.41304  0.20537  Biso   1.000  S
  S60      1.0000 0.70072  0.50216  0.12654  Biso   1.000  S
  C781     1.0000 0.03011  0.90972  0.14742  Biso   1.000  C
  H481     1.0000 0.03270  0.89760  0.15560  Biso   1.000  H
  C782     1.0000 0.04250  0.92742  0.15086  Biso   1.000  C
  C783     1.0000 0.03862  0.94523  0.13928  Biso   1.000  C
  H482     1.0000 0.04700  0.95740  0.14080  Biso   1.000  H
  C784     1.0000 0.02190  0.94486  0.12518  Biso   1.000  C
  H483     1.0000 0.01820  0.95710  0.11760  Biso   1.000  H
  C785     1.0000 0.01093  0.92686  0.12242  Biso   1.000  C
  H484     1.0000 0.99990  0.92680  0.11240  Biso   1.000  H
  C786     1.0000 0.15467  0.89774  0.21662  Biso   1.000  C
  C787     1.0000 0.08157  0.86148  0.23679  Biso   1.000  C
  H485     1.0000 0.08290  0.85060  0.24680  Biso   1.000  H
  C788     1.0000 0.06334  0.86260  0.22538  Biso   1.000  C
  H486     1.0000 0.05220  0.85310  0.22800  Biso   1.000  H
  C789     1.0000 0.06142  0.87779  0.20993  Biso   1.000  C
  H487     1.0000 0.04930  0.87840  0.20130  Biso   1.000  H
  C790     1.0000 0.07774  0.89210  0.20751  Biso   1.000  C
  C791     1.0000 0.09528  0.89026  0.21999  Biso   1.000  C
  H488     1.0000 0.10620  0.90020  0.21830  Biso   1.000  H
  C792     1.0000 0.07718  0.90868  0.19123  Biso   1.000  C
  C793     1.0000 0.06030  0.92567  0.16539  Biso   1.000  C
  C794     1.0000 0.09316  0.93511  0.17411  Biso   1.000  C
  C795     1.0000 0.11178  0.96232  0.15399  Biso   1.000  C
  H489     1.0000 0.09940  0.96370  0.14580  Biso   1.000  H
  C796     1.0000 0.11185  0.94779  0.17048  Biso   1.000  C
  C797     1.0000 0.12960  0.94589  0.18265  Biso   1.000  C
  H490     1.0000 0.13030  0.93600  0.19380  Biso   1.000  H
  C798     1.0000 0.14642  0.95891  0.17808  Biso   1.000  C
  H491     1.0000 0.15870  0.95840  0.18640  Biso   1.000  H
  C799     1.0000 0.14511  0.97254  0.16140  Biso   1.000  C
  H492     1.0000 0.15690  0.98110  0.15840  Biso   1.000  H
  C800     1.0000 0.11138  0.01763  0.16699  Biso   1.000  C
  H493     1.0000 0.10110  0.00700  0.16590  Biso   1.000  H
  C801     1.0000 0.11166  0.02940  0.18460  Biso   1.000  C
  H494     1.0000 0.10190  0.02690  0.19550  Biso   1.000  H
  C802     1.0000 0.12667  0.04530  0.18640  Biso   1.000  C
  H495     1.0000 0.12710  0.05410  0.19840  Biso   1.000  H
  C803     1.0000 0.14076  0.04783  0.17016  Biso   1.000  C
  C804     1.0000 0.13915  0.03502  0.15269  Biso   1.000  C
  H496     1.0000 0.14870  0.03700  0.14150  Biso   1.000  H
  C805     1.0000 0.15698  0.06441  0.17092  Biso   1.000  C
  C806     1.0000 0.17522  0.00059  0.12389  Biso   1.000  C
  N301     1.0000 0.01475  0.90904  0.13308  Biso   1.000  N
  N302     1.0000 0.14301  0.88715  0.22554  Biso   1.000  N
  N303     1.0000 0.09758  0.87497  0.23449  Biso   1.000  N
  N304     1.0000 0.09418  0.92040  0.18909  Biso   1.000  N
  N305     1.0000 0.05971  0.91034  0.17975  Biso   1.000  N
  N306     1.0000 0.07613  0.93887  0.16237  Biso   1.000  N
  N307     1.0000 0.12815  0.97432  0.14925  Biso   1.000  N
  N308     1.0000 0.15762  0.99881  0.12324  Biso   1.000  N
  N309     1.0000 0.12476  0.02009  0.15103  Biso   1.000  N
  N310     1.0000 0.15572  0.07831  0.18603  Biso   1.000  N
  S61      1.0000 0.17188  0.91304  0.20537  Biso   1.000  S
  S62      1.0000 0.20072  0.00216  0.12654  Biso   1.000  S
  C807     1.0000 0.03011  0.40972  0.64742  Biso   1.000  C
  H497     1.0000 0.03270  0.39760  0.65560  Biso   1.000  H
  C808     1.0000 0.04250  0.42742  0.65086  Biso   1.000  C
  C809     1.0000 0.03862  0.44523  0.63928  Biso   1.000  C
  H498     1.0000 0.04700  0.45740  0.64080  Biso   1.000  H
  C810     1.0000 0.02190  0.44486  0.62518  Biso   1.000  C
  H499     1.0000 0.01820  0.45710  0.61760  Biso   1.000  H
  C811     1.0000 0.01093  0.42686  0.62242  Biso   1.000  C
  H500     1.0000 0.99990  0.42680  0.61240  Biso   1.000  H
  C812     1.0000 0.15467  0.39774  0.71662  Biso   1.000  C
  C813     1.0000 0.08157  0.36148  0.73679  Biso   1.000  C
  H501     1.0000 0.08290  0.35060  0.74680  Biso   1.000  H
  C814     1.0000 0.06334  0.36260  0.72538  Biso   1.000  C
  H502     1.0000 0.05220  0.35310  0.72800  Biso   1.000  H
  C815     1.0000 0.06142  0.37779  0.70993  Biso   1.000  C
  H503     1.0000 0.04930  0.37840  0.70130  Biso   1.000  H
  C816     1.0000 0.07774  0.39210  0.70751  Biso   1.000  C
  C817     1.0000 0.09528  0.39026  0.71999  Biso   1.000  C
  H504     1.0000 0.10620  0.40020  0.71830  Biso   1.000  H
  C818     1.0000 0.07718  0.40868  0.69123  Biso   1.000  C
  C819     1.0000 0.06030  0.42567  0.66539  Biso   1.000  C
  C820     1.0000 0.09316  0.43511  0.67411  Biso   1.000  C
  C821     1.0000 0.11178  0.46232  0.65399  Biso   1.000  C
  H505     1.0000 0.09940  0.46370  0.64580  Biso   1.000  H
  C822     1.0000 0.11185  0.44779  0.67048  Biso   1.000  C
  C823     1.0000 0.12960  0.44589  0.68265  Biso   1.000  C
  H506     1.0000 0.13030  0.43600  0.69380  Biso   1.000  H
  C824     1.0000 0.14642  0.45891  0.67808  Biso   1.000  C
  H507     1.0000 0.15870  0.45840  0.68640  Biso   1.000  H
  C825     1.0000 0.14511  0.47254  0.66140  Biso   1.000  C
  H508     1.0000 0.15690  0.48110  0.65840  Biso   1.000  H
  C826     1.0000 0.11138  0.51763  0.66699  Biso   1.000  C
  H509     1.0000 0.10110  0.50700  0.66590  Biso   1.000  H
  C827     1.0000 0.11166  0.52940  0.68460  Biso   1.000  C
  H510     1.0000 0.10190  0.52690  0.69550  Biso   1.000  H
  C828     1.0000 0.12667  0.54530  0.68640  Biso   1.000  C
  H511     1.0000 0.12710  0.55410  0.69840  Biso   1.000  H
  C829     1.0000 0.14076  0.54783  0.67016  Biso   1.000  C
  C830     1.0000 0.13915  0.53502  0.65269  Biso   1.000  C
  H512     1.0000 0.14870  0.53700  0.64150  Biso   1.000  H
  C831     1.0000 0.15698  0.56441  0.67092  Biso   1.000  C
  C832     1.0000 0.17522  0.50059  0.62389  Biso   1.000  C
  N311     1.0000 0.01475  0.40904  0.63308  Biso   1.000  N
  N312     1.0000 0.14301  0.38715  0.72554  Biso   1.000  N
  N313     1.0000 0.09758  0.37497  0.73449  Biso   1.000  N
  N314     1.0000 0.09418  0.42040  0.68909  Biso   1.000  N
  N315     1.0000 0.05971  0.41034  0.67975  Biso   1.000  N
  N316     1.0000 0.07613  0.43887  0.66237  Biso   1.000  N
  N317     1.0000 0.12815  0.47432  0.64925  Biso   1.000  N
  N318     1.0000 0.15762  0.49881  0.62324  Biso   1.000  N
  N319     1.0000 0.12476  0.52009  0.65103  Biso   1.000  N
  N320     1.0000 0.15572  0.57831  0.68603  Biso   1.000  N
  S63      1.0000 0.17188  0.41304  0.70537  Biso   1.000  S
  S64      1.0000 0.20072  0.50216  0.62654  Biso   1.000  S
  C833     1.0000 0.60258  0.21989  0.40972  Biso   1.000  C
  H513     1.0000 0.59440  0.21730  0.39760  Biso   1.000  H
  C834     1.0000 0.59914  0.20750  0.42742  Biso   1.000  C
  C835     1.0000 0.61072  0.21138  0.44523  Biso   1.000  C
  H514     1.0000 0.60920  0.20300  0.45740  Biso   1.000  H
  C836     1.0000 0.62482  0.22810  0.44486  Biso   1.000  C
  H515     1.0000 0.63240  0.23180  0.45710  Biso   1.000  H
  C837     1.0000 0.62758  0.23907  0.42686  Biso   1.000  C
  H516     1.0000 0.63760  0.25010  0.42680  Biso   1.000  H
  C838     1.0000 0.53338  0.09533  0.39774  Biso   1.000  C
  C839     1.0000 0.51321  0.16843  0.36148  Biso   1.000  C
  H517     1.0000 0.50320  0.16710  0.35060  Biso   1.000  H
  C840     1.0000 0.52462  0.18666  0.36260  Biso   1.000  C
  H518     1.0000 0.52200  0.19780  0.35310  Biso   1.000  H
  C841     1.0000 0.54007  0.18858  0.37779  Biso   1.000  C
  H519     1.0000 0.54870  0.20070  0.37840  Biso   1.000  H
  C842     1.0000 0.54249  0.17226  0.39210  Biso   1.000  C
  C843     1.0000 0.53001  0.15472  0.39026  Biso   1.000  C
  H520     1.0000 0.53170  0.14380  0.40020  Biso   1.000  H
  C844     1.0000 0.55877  0.17282  0.40868  Biso   1.000  C
  C845     1.0000 0.58461  0.18970  0.42567  Biso   1.000  C
  C846     1.0000 0.57589  0.15684  0.43511  Biso   1.000  C
  C847     1.0000 0.59601  0.13822  0.46232  Biso   1.000  C
  H521     1.0000 0.60420  0.15060  0.46370  Biso   1.000  H
  C848     1.0000 0.57952  0.13815  0.44779  Biso   1.000  C
  C849     1.0000 0.56735  0.12040  0.44589  Biso   1.000  C
  H522     1.0000 0.55620  0.11970  0.43600  Biso   1.000  H
  C850     1.0000 0.57192  0.10358  0.45891  Biso   1.000  C
  H523     1.0000 0.56360  0.09130  0.45840  Biso   1.000  H
  C851     1.0000 0.58860  0.10489  0.47254  Biso   1.000  C
  H524     1.0000 0.59160  0.09310  0.48110  Biso   1.000  H
  C852     1.0000 0.58301  0.13862  0.51763  Biso   1.000  C
  H525     1.0000 0.58410  0.14890  0.50700  Biso   1.000  H
  C853     1.0000 0.56540  0.13834  0.52940  Biso   1.000  C
  H526     1.0000 0.55450  0.14810  0.52690  Biso   1.000  H
  C854     1.0000 0.56360  0.12333  0.54530  Biso   1.000  C
  H527     1.0000 0.55160  0.12290  0.55410  Biso   1.000  H
  C855     1.0000 0.57984  0.10924  0.54783  Biso   1.000  C
  C856     1.0000 0.59731  0.11085  0.53502  Biso   1.000  C
  H528     1.0000 0.60850  0.10130  0.53700  Biso   1.000  H
  C857     1.0000 0.57908  0.09302  0.56441  Biso   1.000  C
  C858     1.0000 0.62611  0.07478  0.50059  Biso   1.000  C
  N321     1.0000 0.61692  0.23525  0.40904  Biso   1.000  N
  N322     1.0000 0.52446  0.10699  0.38715  Biso   1.000  N
  N323     1.0000 0.51551  0.15242  0.37497  Biso   1.000  N
  N324     1.0000 0.56091  0.15582  0.42040  Biso   1.000  N
  N325     1.0000 0.57025  0.19029  0.41034  Biso   1.000  N
  N326     1.0000 0.58763  0.17387  0.43887  Biso   1.000  N
  N327     1.0000 0.60075  0.12185  0.47432  Biso   1.000  N
  N328     1.0000 0.62676  0.09238  0.49881  Biso   1.000  N
  N329     1.0000 0.59897  0.12524  0.52009  Biso   1.000  N
  N330     1.0000 0.56397  0.09428  0.57831  Biso   1.000  N
  S65      1.0000 0.54463  0.07812  0.41304  Biso   1.000  S
  S66      1.0000 0.62346  0.04928  0.50216  Biso   1.000  S
  C859     1.0000 0.60258  0.71989  0.90972  Biso   1.000  C
  H529     1.0000 0.59440  0.71730  0.89760  Biso   1.000  H
  C860     1.0000 0.59914  0.70750  0.92742  Biso   1.000  C
  C861     1.0000 0.61072  0.71138  0.94523  Biso   1.000  C
  H530     1.0000 0.60920  0.70300  0.95740  Biso   1.000  H
  C862     1.0000 0.62482  0.72810  0.94486  Biso   1.000  C
  H531     1.0000 0.63240  0.73180  0.95710  Biso   1.000  H
  C863     1.0000 0.62758  0.73907  0.92686  Biso   1.000  C
  H532     1.0000 0.63760  0.75010  0.92680  Biso   1.000  H
  C864     1.0000 0.53338  0.59533  0.89774  Biso   1.000  C
  C865     1.0000 0.51321  0.66843  0.86148  Biso   1.000  C
  H533     1.0000 0.50320  0.66710  0.85060  Biso   1.000  H
  C866     1.0000 0.52462  0.68666  0.86260  Biso   1.000  C
  H534     1.0000 0.52200  0.69780  0.85310  Biso   1.000  H
  C867     1.0000 0.54007  0.68858  0.87779  Biso   1.000  C
  H535     1.0000 0.54870  0.70070  0.87840  Biso   1.000  H
  C868     1.0000 0.54249  0.67226  0.89210  Biso   1.000  C
  C869     1.0000 0.53001  0.65472  0.89026  Biso   1.000  C
  H536     1.0000 0.53170  0.64380  0.90020  Biso   1.000  H
  C870     1.0000 0.55877  0.67282  0.90868  Biso   1.000  C
  C871     1.0000 0.58461  0.68970  0.92567  Biso   1.000  C
  C872     1.0000 0.57589  0.65684  0.93511  Biso   1.000  C
  C873     1.0000 0.59601  0.63822  0.96232  Biso   1.000  C
  H537     1.0000 0.60420  0.65060  0.96370  Biso   1.000  H
  C874     1.0000 0.57952  0.63815  0.94779  Biso   1.000  C
  C875     1.0000 0.56735  0.62040  0.94589  Biso   1.000  C
  H538     1.0000 0.55620  0.61970  0.93600  Biso   1.000  H
  C876     1.0000 0.57192  0.60358  0.95891  Biso   1.000  C
  H539     1.0000 0.56360  0.59130  0.95840  Biso   1.000  H
  C877     1.0000 0.58860  0.60489  0.97254  Biso   1.000  C
  H540     1.0000 0.59160  0.59310  0.98110  Biso   1.000  H
  C878     1.0000 0.58301  0.63862  0.01763  Biso   1.000  C
  H541     1.0000 0.58410  0.64890  0.00700  Biso   1.000  H
  C879     1.0000 0.56540  0.63834  0.02940  Biso   1.000  C
  H542     1.0000 0.55450  0.64810  0.02690  Biso   1.000  H
  C880     1.0000 0.56360  0.62333  0.04530  Biso   1.000  C
  H543     1.0000 0.55160  0.62290  0.05410  Biso   1.000  H
  C881     1.0000 0.57984  0.60924  0.04783  Biso   1.000  C
  C882     1.0000 0.59731  0.61085  0.03502  Biso   1.000  C
  H544     1.0000 0.60850  0.60130  0.03700  Biso   1.000  H
  C883     1.0000 0.57908  0.59302  0.06441  Biso   1.000  C
  C884     1.0000 0.62611  0.57478  0.00059  Biso   1.000  C
  N331     1.0000 0.61692  0.73525  0.90904  Biso   1.000  N
  N332     1.0000 0.52446  0.60699  0.88715  Biso   1.000  N
  N333     1.0000 0.51551  0.65242  0.87497  Biso   1.000  N
  N334     1.0000 0.56091  0.65582  0.92040  Biso   1.000  N
  N335     1.0000 0.57025  0.69029  0.91034  Biso   1.000  N
  N336     1.0000 0.58763  0.67387  0.93887  Biso   1.000  N
  N337     1.0000 0.60075  0.62185  0.97432  Biso   1.000  N
  N338     1.0000 0.62676  0.59238  0.99881  Biso   1.000  N
  N339     1.0000 0.59897  0.62524  0.02009  Biso   1.000  N
  N340     1.0000 0.56397  0.59428  0.07831  Biso   1.000  N
  S67      1.0000 0.54463  0.57812  0.91304  Biso   1.000  S
  S68      1.0000 0.62346  0.54928  0.00216  Biso   1.000  S
  C885     1.0000 0.10258  0.21989  0.90972  Biso   1.000  C
  H545     1.0000 0.09440  0.21730  0.89760  Biso   1.000  H
  C886     1.0000 0.09914  0.20750  0.92742  Biso   1.000  C
  C887     1.0000 0.11072  0.21138  0.94523  Biso   1.000  C
  H546     1.0000 0.10920  0.20300  0.95740  Biso   1.000  H
  C888     1.0000 0.12482  0.22810  0.94486  Biso   1.000  C
  H547     1.0000 0.13240  0.23180  0.95710  Biso   1.000  H
  C889     1.0000 0.12758  0.23907  0.92686  Biso   1.000  C
  H548     1.0000 0.13760  0.25010  0.92680  Biso   1.000  H
  C890     1.0000 0.03338  0.09533  0.89774  Biso   1.000  C
  C891     1.0000 0.01321  0.16843  0.86148  Biso   1.000  C
  H549     1.0000 0.00320  0.16710  0.85060  Biso   1.000  H
  C892     1.0000 0.02462  0.18666  0.86260  Biso   1.000  C
  H550     1.0000 0.02200  0.19780  0.85310  Biso   1.000  H
  C893     1.0000 0.04007  0.18858  0.87779  Biso   1.000  C
  H551     1.0000 0.04870  0.20070  0.87840  Biso   1.000  H
  C894     1.0000 0.04249  0.17226  0.89210  Biso   1.000  C
  C895     1.0000 0.03001  0.15472  0.89026  Biso   1.000  C
  H552     1.0000 0.03170  0.14380  0.90020  Biso   1.000  H
  C896     1.0000 0.05877  0.17282  0.90868  Biso   1.000  C
  C897     1.0000 0.08461  0.18970  0.92567  Biso   1.000  C
  C898     1.0000 0.07589  0.15684  0.93511  Biso   1.000  C
  C899     1.0000 0.09601  0.13822  0.96232  Biso   1.000  C
  H553     1.0000 0.10420  0.15060  0.96370  Biso   1.000  H
  C900     1.0000 0.07952  0.13815  0.94779  Biso   1.000  C
  C901     1.0000 0.06735  0.12040  0.94589  Biso   1.000  C
  H554     1.0000 0.05620  0.11970  0.93600  Biso   1.000  H
  C902     1.0000 0.07192  0.10358  0.95891  Biso   1.000  C
  H555     1.0000 0.06360  0.09130  0.95840  Biso   1.000  H
  C903     1.0000 0.08860  0.10489  0.97254  Biso   1.000  C
  H556     1.0000 0.09160  0.09310  0.98110  Biso   1.000  H
  C904     1.0000 0.08301  0.13862  0.01763  Biso   1.000  C
  H557     1.0000 0.08410  0.14890  0.00700  Biso   1.000  H
  C905     1.0000 0.06540  0.13834  0.02940  Biso   1.000  C
  H558     1.0000 0.05450  0.14810  0.02690  Biso   1.000  H
  C906     1.0000 0.06360  0.12333  0.04530  Biso   1.000  C
  H559     1.0000 0.05160  0.12290  0.05410  Biso   1.000  H
  C907     1.0000 0.07984  0.10924  0.04783  Biso   1.000  C
  C908     1.0000 0.09731  0.11085  0.03502  Biso   1.000  C
  H560     1.0000 0.10850  0.10130  0.03700  Biso   1.000  H
  C909     1.0000 0.07908  0.09302  0.06441  Biso   1.000  C
  C910     1.0000 0.12611  0.07478  0.00059  Biso   1.000  C
  N341     1.0000 0.11692  0.23525  0.90904  Biso   1.000  N
  N342     1.0000 0.02446  0.10699  0.88715  Biso   1.000  N
  N343     1.0000 0.01551  0.15242  0.87497  Biso   1.000  N
  N344     1.0000 0.06091  0.15582  0.92040  Biso   1.000  N
  N345     1.0000 0.07025  0.19029  0.91034  Biso   1.000  N
  N346     1.0000 0.08763  0.17387  0.93887  Biso   1.000  N
  N347     1.0000 0.10075  0.12185  0.97432  Biso   1.000  N
  N348     1.0000 0.12676  0.09238  0.99881  Biso   1.000  N
  N349     1.0000 0.09897  0.12524  0.02009  Biso   1.000  N
  N350     1.0000 0.06397  0.09428  0.07831  Biso   1.000  N
  S69      1.0000 0.04463  0.07812  0.91304  Biso   1.000  S
  S70      1.0000 0.12346  0.04928  0.00216  Biso   1.000  S
  C911     1.0000 0.10258  0.71989  0.40972  Biso   1.000  C
  H561     1.0000 0.09440  0.71730  0.39760  Biso   1.000  H
  C912     1.0000 0.09914  0.70750  0.42742  Biso   1.000  C
  C913     1.0000 0.11072  0.71138  0.44523  Biso   1.000  C
  H562     1.0000 0.10920  0.70300  0.45740  Biso   1.000  H
  C914     1.0000 0.12482  0.72810  0.44486  Biso   1.000  C
  H563     1.0000 0.13240  0.73180  0.45710  Biso   1.000  H
  C915     1.0000 0.12758  0.73907  0.42686  Biso   1.000  C
  H564     1.0000 0.13760  0.75010  0.42680  Biso   1.000  H
  C916     1.0000 0.03338  0.59533  0.39774  Biso   1.000  C
  C917     1.0000 0.01321  0.66843  0.36148  Biso   1.000  C
  H565     1.0000 0.00320  0.66710  0.35060  Biso   1.000  H
  C918     1.0000 0.02462  0.68666  0.36260  Biso   1.000  C
  H566     1.0000 0.02200  0.69780  0.35310  Biso   1.000  H
  C919     1.0000 0.04007  0.68858  0.37779  Biso   1.000  C
  H567     1.0000 0.04870  0.70070  0.37840  Biso   1.000  H
  C920     1.0000 0.04249  0.67226  0.39210  Biso   1.000  C
  C921     1.0000 0.03001  0.65472  0.39026  Biso   1.000  C
  H568     1.0000 0.03170  0.64380  0.40020  Biso   1.000  H
  C922     1.0000 0.05877  0.67282  0.40868  Biso   1.000  C
  C923     1.0000 0.08461  0.68970  0.42567  Biso   1.000  C
  C924     1.0000 0.07589  0.65684  0.43511  Biso   1.000  C
  C925     1.0000 0.09601  0.63822  0.46232  Biso   1.000  C
  H569     1.0000 0.10420  0.65060  0.46370  Biso   1.000  H
  C926     1.0000 0.07952  0.63815  0.44779  Biso   1.000  C
  C927     1.0000 0.06735  0.62040  0.44589  Biso   1.000  C
  H570     1.0000 0.05620  0.61970  0.43600  Biso   1.000  H
  C928     1.0000 0.07192  0.60358  0.45891  Biso   1.000  C
  H571     1.0000 0.06360  0.59130  0.45840  Biso   1.000  H
  C929     1.0000 0.08860  0.60489  0.47254  Biso   1.000  C
  H572     1.0000 0.09160  0.59310  0.48110  Biso   1.000  H
  C930     1.0000 0.08301  0.63862  0.51763  Biso   1.000  C
  H573     1.0000 0.08410  0.64890  0.50700  Biso   1.000  H
  C931     1.0000 0.06540  0.63834  0.52940  Biso   1.000  C
  H574     1.0000 0.05450  0.64810  0.52690  Biso   1.000  H
  C932     1.0000 0.06360  0.62333  0.54530  Biso   1.000  C
  H575     1.0000 0.05160  0.62290  0.55410  Biso   1.000  H
  C933     1.0000 0.07984  0.60924  0.54783  Biso   1.000  C
  C934     1.0000 0.09731  0.61085  0.53502  Biso   1.000  C
  H576     1.0000 0.10850  0.60130  0.53700  Biso   1.000  H
  C935     1.0000 0.07908  0.59302  0.56441  Biso   1.000  C
  C936     1.0000 0.12611  0.57478  0.50059  Biso   1.000  C
  N351     1.0000 0.11692  0.73525  0.40904  Biso   1.000  N
  N352     1.0000 0.02446  0.60699  0.38715  Biso   1.000  N
  N353     1.0000 0.01551  0.65242  0.37497  Biso   1.000  N
  N354     1.0000 0.06091  0.65582  0.42040  Biso   1.000  N
  N355     1.0000 0.07025  0.69029  0.41034  Biso   1.000  N
  N356     1.0000 0.08763  0.67387  0.43887  Biso   1.000  N
  N357     1.0000 0.10075  0.62185  0.47432  Biso   1.000  N
  N358     1.0000 0.12676  0.59238  0.49881  Biso   1.000  N
  N359     1.0000 0.09897  0.62524  0.52009  Biso   1.000  N
  N360     1.0000 0.06397  0.59428  0.57831  Biso   1.000  N
  S71      1.0000 0.04463  0.57812  0.41304  Biso   1.000  S
  S72      1.0000 0.12346  0.54928  0.50216  Biso   1.000  S
  C937     1.0000 0.14742  0.71989  0.84028  Biso   1.000  C
  H577     1.0000 0.15560  0.71730  0.85240  Biso   1.000  H
  C938     1.0000 0.15086  0.70750  0.82258  Biso   1.000  C
  C939     1.0000 0.13928  0.71138  0.80477  Biso   1.000  C
  H578     1.0000 0.14080  0.70300  0.79260  Biso   1.000  H
  C940     1.0000 0.12518  0.72810  0.80514  Biso   1.000  C
  H579     1.0000 0.11760  0.73180  0.79290  Biso   1.000  H
  C941     1.0000 0.12242  0.73907  0.82314  Biso   1.000  C
  H580     1.0000 0.11240  0.75010  0.82320  Biso   1.000  H
  C942     1.0000 0.21662  0.59533  0.85226  Biso   1.000  C
  C943     1.0000 0.23679  0.66843  0.88852  Biso   1.000  C
  H581     1.0000 0.24680  0.66710  0.89940  Biso   1.000  H
  C944     1.0000 0.22538  0.68666  0.88740  Biso   1.000  C
  H582     1.0000 0.22800  0.69780  0.89690  Biso   1.000  H
  C945     1.0000 0.20993  0.68858  0.87221  Biso   1.000  C
  H583     1.0000 0.20130  0.70070  0.87160  Biso   1.000  H
  C946     1.0000 0.20751  0.67226  0.85790  Biso   1.000  C
  C947     1.0000 0.21999  0.65472  0.85974  Biso   1.000  C
  H584     1.0000 0.21830  0.64380  0.84980  Biso   1.000  H
  C948     1.0000 0.19123  0.67282  0.84132  Biso   1.000  C
  C949     1.0000 0.16539  0.68970  0.82433  Biso   1.000  C
  C950     1.0000 0.17411  0.65684  0.81489  Biso   1.000  C
  C951     1.0000 0.15399  0.63822  0.78768  Biso   1.000  C
  H585     1.0000 0.14580  0.65060  0.78630  Biso   1.000  H
  C952     1.0000 0.17048  0.63815  0.80221  Biso   1.000  C
  C953     1.0000 0.18265  0.62040  0.80411  Biso   1.000  C
  H586     1.0000 0.19380  0.61970  0.81400  Biso   1.000  H
  C954     1.0000 0.17808  0.60358  0.79109  Biso   1.000  C
  H587     1.0000 0.18640  0.59130  0.79160  Biso   1.000  H
  C955     1.0000 0.16140  0.60489  0.77746  Biso   1.000  C
  H588     1.0000 0.15840  0.59310  0.76890  Biso   1.000  H
  C956     1.0000 0.16699  0.63862  0.73237  Biso   1.000  C
  H589     1.0000 0.16590  0.64890  0.74300  Biso   1.000  H
  C957     1.0000 0.18460  0.63834  0.72060  Biso   1.000  C
  H590     1.0000 0.19550  0.64810  0.72310  Biso   1.000  H
  C958     1.0000 0.18640  0.62333  0.70470  Biso   1.000  C
  H591     1.0000 0.19840  0.62290  0.69590  Biso   1.000  H
  C959     1.0000 0.17016  0.60924  0.70217  Biso   1.000  C
  C960     1.0000 0.15269  0.61085  0.71498  Biso   1.000  C
  H592     1.0000 0.14150  0.60130  0.71300  Biso   1.000  H
  C961     1.0000 0.17092  0.59302  0.68559  Biso   1.000  C
  C962     1.0000 0.12389  0.57478  0.74941  Biso   1.000  C
  N361     1.0000 0.13308  0.73525  0.84096  Biso   1.000  N
  N362     1.0000 0.22554  0.60699  0.86285  Biso   1.000  N
  N363     1.0000 0.23449  0.65242  0.87503  Biso   1.000  N
  N364     1.0000 0.18909  0.65582  0.82960  Biso   1.000  N
  N365     1.0000 0.17975  0.69029  0.83966  Biso   1.000  N
  N366     1.0000 0.16237  0.67387  0.81113  Biso   1.000  N
  N367     1.0000 0.14925  0.62185  0.77568  Biso   1.000  N
  N368     1.0000 0.12324  0.59238  0.75119  Biso   1.000  N
  N369     1.0000 0.15103  0.62524  0.72991  Biso   1.000  N
  N370     1.0000 0.18603  0.59428  0.67169  Biso   1.000  N
  S73      1.0000 0.20537  0.57812  0.83696  Biso   1.000  S
  S74      1.0000 0.12654  0.54928  0.74784  Biso   1.000  S
  C963     1.0000 0.14742  0.21989  0.34028  Biso   1.000  C
  H593     1.0000 0.15560  0.21730  0.35240  Biso   1.000  H
  C964     1.0000 0.15086  0.20750  0.32258  Biso   1.000  C
  C965     1.0000 0.13928  0.21138  0.30477  Biso   1.000  C
  H594     1.0000 0.14080  0.20300  0.29260  Biso   1.000  H
  C966     1.0000 0.12518  0.22810  0.30514  Biso   1.000  C
  H595     1.0000 0.11760  0.23180  0.29290  Biso   1.000  H
  C967     1.0000 0.12242  0.23907  0.32314  Biso   1.000  C
  H596     1.0000 0.11240  0.25010  0.32320  Biso   1.000  H
  C968     1.0000 0.21662  0.09533  0.35226  Biso   1.000  C
  C969     1.0000 0.23679  0.16843  0.38852  Biso   1.000  C
  H597     1.0000 0.24680  0.16710  0.39940  Biso   1.000  H
  C970     1.0000 0.22538  0.18666  0.38740  Biso   1.000  C
  H598     1.0000 0.22800  0.19780  0.39690  Biso   1.000  H
  C971     1.0000 0.20993  0.18858  0.37221  Biso   1.000  C
  H599     1.0000 0.20130  0.20070  0.37160  Biso   1.000  H
  C972     1.0000 0.20751  0.17226  0.35790  Biso   1.000  C
  C973     1.0000 0.21999  0.15472  0.35974  Biso   1.000  C
  H600     1.0000 0.21830  0.14380  0.34980  Biso   1.000  H
  C974     1.0000 0.19123  0.17282  0.34132  Biso   1.000  C
  C975     1.0000 0.16539  0.18970  0.32433  Biso   1.000  C
  C976     1.0000 0.17411  0.15684  0.31489  Biso   1.000  C
  C977     1.0000 0.15399  0.13822  0.28768  Biso   1.000  C
  H601     1.0000 0.14580  0.15060  0.28630  Biso   1.000  H
  C978     1.0000 0.17048  0.13815  0.30221  Biso   1.000  C
  C979     1.0000 0.18265  0.12040  0.30411  Biso   1.000  C
  H602     1.0000 0.19380  0.11970  0.31400  Biso   1.000  H
  C980     1.0000 0.17808  0.10358  0.29109  Biso   1.000  C
  H603     1.0000 0.18640  0.09130  0.29160  Biso   1.000  H
  C981     1.0000 0.16140  0.10489  0.27746  Biso   1.000  C
  H604     1.0000 0.15840  0.09310  0.26890  Biso   1.000  H
  C982     1.0000 0.16699  0.13862  0.23237  Biso   1.000  C
  H605     1.0000 0.16590  0.14890  0.24300  Biso   1.000  H
  C983     1.0000 0.18460  0.13834  0.22060  Biso   1.000  C
  H606     1.0000 0.19550  0.14810  0.22310  Biso   1.000  H
  C984     1.0000 0.18640  0.12333  0.20470  Biso   1.000  C
  H607     1.0000 0.19840  0.12290  0.19590  Biso   1.000  H
  C985     1.0000 0.17016  0.10924  0.20217  Biso   1.000  C
  C986     1.0000 0.15269  0.11085  0.21498  Biso   1.000  C
  H608     1.0000 0.14150  0.10130  0.21300  Biso   1.000  H
  C987     1.0000 0.17092  0.09302  0.18559  Biso   1.000  C
  C988     1.0000 0.12389  0.07478  0.24941  Biso   1.000  C
  N371     1.0000 0.13308  0.23525  0.34096  Biso   1.000  N
  N372     1.0000 0.22554  0.10699  0.36285  Biso   1.000  N
  N373     1.0000 0.23449  0.15242  0.37503  Biso   1.000  N
  N374     1.0000 0.18909  0.15582  0.32960  Biso   1.000  N
  N375     1.0000 0.17975  0.19029  0.33966  Biso   1.000  N
  N376     1.0000 0.16237  0.17387  0.31113  Biso   1.000  N
  N377     1.0000 0.14925  0.12185  0.27568  Biso   1.000  N
  N378     1.0000 0.12324  0.09238  0.25119  Biso   1.000  N
  N379     1.0000 0.15103  0.12524  0.22991  Biso   1.000  N
  N380     1.0000 0.18603  0.09428  0.17169  Biso   1.000  N
  S75      1.0000 0.20537  0.07812  0.33696  Biso   1.000  S
  S76      1.0000 0.12654  0.04928  0.24784  Biso   1.000  S
  C989     1.0000 0.64742  0.71989  0.34028  Biso   1.000  C
  H609     1.0000 0.65560  0.71730  0.35240  Biso   1.000  H
  C990     1.0000 0.65086  0.70750  0.32258  Biso   1.000  C
  C991     1.0000 0.63928  0.71138  0.30477  Biso   1.000  C
  H610     1.0000 0.64080  0.70300  0.29260  Biso   1.000  H
  C992     1.0000 0.62518  0.72810  0.30514  Biso   1.000  C
  H611     1.0000 0.61760  0.73180  0.29290  Biso   1.000  H
  C993     1.0000 0.62242  0.73907  0.32314  Biso   1.000  C
  H612     1.0000 0.61240  0.75010  0.32320  Biso   1.000  H
  C994     1.0000 0.71662  0.59533  0.35226  Biso   1.000  C
  C995     1.0000 0.73679  0.66843  0.38852  Biso   1.000  C
  H613     1.0000 0.74680  0.66710  0.39940  Biso   1.000  H
  C996     1.0000 0.72538  0.68666  0.38740  Biso   1.000  C
  H614     1.0000 0.72800  0.69780  0.39690  Biso   1.000  H
  C997     1.0000 0.70993  0.68858  0.37221  Biso   1.000  C
  H615     1.0000 0.70130  0.70070  0.37160  Biso   1.000  H
  C998     1.0000 0.70751  0.67226  0.35790  Biso   1.000  C
  C999     1.0000 0.71999  0.65472  0.35974  Biso   1.000  C
  H616     1.0000 0.71830  0.64380  0.34980  Biso   1.000  H
  C1000    1.0000 0.69123  0.67282  0.34132  Biso   1.000  C
  C1001    1.0000 0.66539  0.68970  0.32433  Biso   1.000  C
  C1002    1.0000 0.67411  0.65684  0.31489  Biso   1.000  C
  C1003    1.0000 0.65399  0.63822  0.28768  Biso   1.000  C
  H617     1.0000 0.64580  0.65060  0.28630  Biso   1.000  H
  C1004    1.0000 0.67048  0.63815  0.30221  Biso   1.000  C
  C1005    1.0000 0.68265  0.62040  0.30411  Biso   1.000  C
  H618     1.0000 0.69380  0.61970  0.31400  Biso   1.000  H
  C1006    1.0000 0.67808  0.60358  0.29109  Biso   1.000  C
  H619     1.0000 0.68640  0.59130  0.29160  Biso   1.000  H
  C1007    1.0000 0.66140  0.60489  0.27746  Biso   1.000  C
  H620     1.0000 0.65840  0.59310  0.26890  Biso   1.000  H
  C1008    1.0000 0.66699  0.63862  0.23237  Biso   1.000  C
  H621     1.0000 0.66590  0.64890  0.24300  Biso   1.000  H
  C1009    1.0000 0.68460  0.63834  0.22060  Biso   1.000  C
  H622     1.0000 0.69550  0.64810  0.22310  Biso   1.000  H
  C1010    1.0000 0.68640  0.62333  0.20470  Biso   1.000  C
  H623     1.0000 0.69840  0.62290  0.19590  Biso   1.000  H
  C1011    1.0000 0.67016  0.60924  0.20217  Biso   1.000  C
  C1012    1.0000 0.65269  0.61085  0.21498  Biso   1.000  C
  H624     1.0000 0.64150  0.60130  0.21300  Biso   1.000  H
  C1013    1.0000 0.67092  0.59302  0.18559  Biso   1.000  C
  C1014    1.0000 0.62389  0.57478  0.24941  Biso   1.000  C
  N381     1.0000 0.63308  0.73525  0.34096  Biso   1.000  N
  N382     1.0000 0.72554  0.60699  0.36285  Biso   1.000  N
  N383     1.0000 0.73449  0.65242  0.37503  Biso   1.000  N
  N384     1.0000 0.68909  0.65582  0.32960  Biso   1.000  N
  N385     1.0000 0.67975  0.69029  0.33966  Biso   1.000  N
  N386     1.0000 0.66237  0.67387  0.31113  Biso   1.000  N
  N387     1.0000 0.64925  0.62185  0.27568  Biso   1.000  N
  N388     1.0000 0.62324  0.59238  0.25119  Biso   1.000  N
  N389     1.0000 0.65103  0.62524  0.22991  Biso   1.000  N
  N390     1.0000 0.68603  0.59428  0.17169  Biso   1.000  N
  S77      1.0000 0.70537  0.57812  0.33696  Biso   1.000  S
  S78      1.0000 0.62654  0.54928  0.24784  Biso   1.000  S
  C1015    1.0000 0.64742  0.21989  0.84028  Biso   1.000  C
  H625     1.0000 0.65560  0.21730  0.85240  Biso   1.000  H
  C1016    1.0000 0.65086  0.20750  0.82258  Biso   1.000  C
  C1017    1.0000 0.63928  0.21138  0.80477  Biso   1.000  C
  H626     1.0000 0.64080  0.20300  0.79260  Biso   1.000  H
  C1018    1.0000 0.62518  0.22810  0.80514  Biso   1.000  C
  H627     1.0000 0.61760  0.23180  0.79290  Biso   1.000  H
  C1019    1.0000 0.62242  0.23907  0.82314  Biso   1.000  C
  H628     1.0000 0.61240  0.25010  0.82320  Biso   1.000  H
  C1020    1.0000 0.71662  0.09533  0.85226  Biso   1.000  C
  C1021    1.0000 0.73679  0.16843  0.88852  Biso   1.000  C
  H629     1.0000 0.74680  0.16710  0.89940  Biso   1.000  H
  C1022    1.0000 0.72538  0.18666  0.88740  Biso   1.000  C
  H630     1.0000 0.72800  0.19780  0.89690  Biso   1.000  H
  C1023    1.0000 0.70993  0.18858  0.87221  Biso   1.000  C
  H631     1.0000 0.70130  0.20070  0.87160  Biso   1.000  H
  C1024    1.0000 0.70751  0.17226  0.85790  Biso   1.000  C
  C1025    1.0000 0.71999  0.15472  0.85974  Biso   1.000  C
  H632     1.0000 0.71830  0.14380  0.84980  Biso   1.000  H
  C1026    1.0000 0.69123  0.17282  0.84132  Biso   1.000  C
  C1027    1.0000 0.66539  0.18970  0.82433  Biso   1.000  C
  C1028    1.0000 0.67411  0.15684  0.81489  Biso   1.000  C
  C1029    1.0000 0.65399  0.13822  0.78768  Biso   1.000  C
  H633     1.0000 0.64580  0.15060  0.78630  Biso   1.000  H
  C1030    1.0000 0.67048  0.13815  0.80221  Biso   1.000  C
  C1031    1.0000 0.68265  0.12040  0.80411  Biso   1.000  C
  H634     1.0000 0.69380  0.11970  0.81400  Biso   1.000  H
  C1032    1.0000 0.67808  0.10358  0.79109  Biso   1.000  C
  H635     1.0000 0.68640  0.09130  0.79160  Biso   1.000  H
  C1033    1.0000 0.66140  0.10489  0.77746  Biso   1.000  C
  H636     1.0000 0.65840  0.09310  0.76890  Biso   1.000  H
  C1034    1.0000 0.66699  0.13862  0.73237  Biso   1.000  C
  H637     1.0000 0.66590  0.14890  0.74300  Biso   1.000  H
  C1035    1.0000 0.68460  0.13834  0.72060  Biso   1.000  C
  H638     1.0000 0.69550  0.14810  0.72310  Biso   1.000  H
  C1036    1.0000 0.68640  0.12333  0.70470  Biso   1.000  C
  H639     1.0000 0.69840  0.12290  0.69590  Biso   1.000  H
  C1037    1.0000 0.67016  0.10924  0.70217  Biso   1.000  C
  C1038    1.0000 0.65269  0.11085  0.71498  Biso   1.000  C
  H640     1.0000 0.64150  0.10130  0.71300  Biso   1.000  H
  C1039    1.0000 0.67092  0.09302  0.68559  Biso   1.000  C
  C1040    1.0000 0.62389  0.07478  0.74941  Biso   1.000  C
  N391     1.0000 0.63308  0.23525  0.84096  Biso   1.000  N
  N392     1.0000 0.72554  0.10699  0.86285  Biso   1.000  N
  N393     1.0000 0.73449  0.15242  0.87503  Biso   1.000  N
  N394     1.0000 0.68909  0.15582  0.82960  Biso   1.000  N
  N395     1.0000 0.67975  0.19029  0.83966  Biso   1.000  N
  N396     1.0000 0.66237  0.17387  0.81113  Biso   1.000  N
  N397     1.0000 0.64925  0.12185  0.77568  Biso   1.000  N
  N398     1.0000 0.62324  0.09238  0.75119  Biso   1.000  N
  N399     1.0000 0.65103  0.12524  0.72991  Biso   1.000  N
  N400     1.0000 0.68603  0.09428  0.67169  Biso   1.000  N
  S79      1.0000 0.70537  0.07812  0.83696  Biso   1.000  S
  S80      1.0000 0.62654  0.04928  0.74784  Biso   1.000  S
  C1041    1.0000 0.10258  0.03011  0.34028  Biso   1.000  C
  H641     1.0000 0.09440  0.03270  0.35240  Biso   1.000  H
  C1042    1.0000 0.09914  0.04250  0.32258  Biso   1.000  C
  C1043    1.0000 0.11072  0.03862  0.30477  Biso   1.000  C
  H642     1.0000 0.10920  0.04700  0.29260  Biso   1.000  H
  C1044    1.0000 0.12482  0.02190  0.30514  Biso   1.000  C
  H643     1.0000 0.13240  0.01820  0.29290  Biso   1.000  H
  C1045    1.0000 0.12758  0.01093  0.32314  Biso   1.000  C
  H644     1.0000 0.13760  0.99990  0.32320  Biso   1.000  H
  C1046    1.0000 0.03338  0.15467  0.35226  Biso   1.000  C
  C1047    1.0000 0.01321  0.08157  0.38852  Biso   1.000  C
  H645     1.0000 0.00320  0.08290  0.39940  Biso   1.000  H
  C1048    1.0000 0.02462  0.06334  0.38740  Biso   1.000  C
  H646     1.0000 0.02200  0.05220  0.39690  Biso   1.000  H
  C1049    1.0000 0.04007  0.06142  0.37221  Biso   1.000  C
  H647     1.0000 0.04870  0.04930  0.37160  Biso   1.000  H
  C1050    1.0000 0.04249  0.07774  0.35790  Biso   1.000  C
  C1051    1.0000 0.03001  0.09528  0.35974  Biso   1.000  C
  H648     1.0000 0.03170  0.10620  0.34980  Biso   1.000  H
  C1052    1.0000 0.05877  0.07718  0.34132  Biso   1.000  C
  C1053    1.0000 0.08461  0.06030  0.32433  Biso   1.000  C
  C1054    1.0000 0.07589  0.09316  0.31489  Biso   1.000  C
  C1055    1.0000 0.09601  0.11178  0.28768  Biso   1.000  C
  H649     1.0000 0.10420  0.09940  0.28630  Biso   1.000  H
  C1056    1.0000 0.07952  0.11185  0.30221  Biso   1.000  C
  C1057    1.0000 0.06735  0.12960  0.30411  Biso   1.000  C
  H650     1.0000 0.05620  0.13030  0.31400  Biso   1.000  H
  C1058    1.0000 0.07192  0.14642  0.29109  Biso   1.000  C
  H651     1.0000 0.06360  0.15870  0.29160  Biso   1.000  H
  C1059    1.0000 0.08860  0.14511  0.27746  Biso   1.000  C
  H652     1.0000 0.09160  0.15690  0.26890  Biso   1.000  H
  C1060    1.0000 0.08301  0.11138  0.23237  Biso   1.000  C
  H653     1.0000 0.08410  0.10110  0.24300  Biso   1.000  H
  C1061    1.0000 0.06540  0.11166  0.22060  Biso   1.000  C
  H654     1.0000 0.05450  0.10190  0.22310  Biso   1.000  H
  C1062    1.0000 0.06360  0.12667  0.20470  Biso   1.000  C
  H655     1.0000 0.05160  0.12710  0.19590  Biso   1.000  H
  C1063    1.0000 0.07984  0.14076  0.20217  Biso   1.000  C
  C1064    1.0000 0.09731  0.13915  0.21498  Biso   1.000  C
  H656     1.0000 0.10850  0.14870  0.21300  Biso   1.000  H
  C1065    1.0000 0.07908  0.15698  0.18559  Biso   1.000  C
  C1066    1.0000 0.12611  0.17522  0.24941  Biso   1.000  C
  N401     1.0000 0.11692  0.01475  0.34096  Biso   1.000  N
  N402     1.0000 0.02446  0.14301  0.36285  Biso   1.000  N
  N403     1.0000 0.01551  0.09758  0.37503  Biso   1.000  N
  N404     1.0000 0.06091  0.09418  0.32960  Biso   1.000  N
  N405     1.0000 0.07025  0.05971  0.33966  Biso   1.000  N
  N406     1.0000 0.08763  0.07613  0.31113  Biso   1.000  N
  N407     1.0000 0.10075  0.12815  0.27568  Biso   1.000  N
  N408     1.0000 0.12676  0.15762  0.25119  Biso   1.000  N
  N409     1.0000 0.09897  0.12476  0.22991  Biso   1.000  N
  N410     1.0000 0.06397  0.15572  0.17169  Biso   1.000  N
  S81      1.0000 0.04463  0.17188  0.33696  Biso   1.000  S
  S82      1.0000 0.12346  0.20072  0.24784  Biso   1.000  S
  C1067    1.0000 0.10258  0.53011  0.84028  Biso   1.000  C
  H657     1.0000 0.09440  0.53270  0.85240  Biso   1.000  H
  C1068    1.0000 0.09914  0.54250  0.82258  Biso   1.000  C
  C1069    1.0000 0.11072  0.53862  0.80477  Biso   1.000  C
  H658     1.0000 0.10920  0.54700  0.79260  Biso   1.000  H
  C1070    1.0000 0.12482  0.52190  0.80514  Biso   1.000  C
  H659     1.0000 0.13240  0.51820  0.79290  Biso   1.000  H
  C1071    1.0000 0.12758  0.51093  0.82314  Biso   1.000  C
  H660     1.0000 0.13760  0.49990  0.82320  Biso   1.000  H
  C1072    1.0000 0.03338  0.65467  0.85226  Biso   1.000  C
  C1073    1.0000 0.01321  0.58157  0.88852  Biso   1.000  C
  H661     1.0000 0.00320  0.58290  0.89940  Biso   1.000  H
  C1074    1.0000 0.02462  0.56334  0.88740  Biso   1.000  C
  H662     1.0000 0.02200  0.55220  0.89690  Biso   1.000  H
  C1075    1.0000 0.04007  0.56142  0.87221  Biso   1.000  C
  H663     1.0000 0.04870  0.54930  0.87160  Biso   1.000  H
  C1076    1.0000 0.04249  0.57774  0.85790  Biso   1.000  C
  C1077    1.0000 0.03001  0.59528  0.85974  Biso   1.000  C
  H664     1.0000 0.03170  0.60620  0.84980  Biso   1.000  H
  C1078    1.0000 0.05877  0.57718  0.84132  Biso   1.000  C
  C1079    1.0000 0.08461  0.56030  0.82433  Biso   1.000  C
  C1080    1.0000 0.07589  0.59316  0.81489  Biso   1.000  C
  C1081    1.0000 0.09601  0.61178  0.78768  Biso   1.000  C
  H665     1.0000 0.10420  0.59940  0.78630  Biso   1.000  H
  C1082    1.0000 0.07952  0.61185  0.80221  Biso   1.000  C
  C1083    1.0000 0.06735  0.62960  0.80411  Biso   1.000  C
  H666     1.0000 0.05620  0.63030  0.81400  Biso   1.000  H
  C1084    1.0000 0.07192  0.64642  0.79109  Biso   1.000  C
  H667     1.0000 0.06360  0.65870  0.79160  Biso   1.000  H
  C1085    1.0000 0.08860  0.64511  0.77746  Biso   1.000  C
  H668     1.0000 0.09160  0.65690  0.76890  Biso   1.000  H
  C1086    1.0000 0.08301  0.61138  0.73237  Biso   1.000  C
  H669     1.0000 0.08410  0.60110  0.74300  Biso   1.000  H
  C1087    1.0000 0.06540  0.61166  0.72060  Biso   1.000  C
  H670     1.0000 0.05450  0.60190  0.72310  Biso   1.000  H
  C1088    1.0000 0.06360  0.62667  0.70470  Biso   1.000  C
  H671     1.0000 0.05160  0.62710  0.69590  Biso   1.000  H
  C1089    1.0000 0.07984  0.64076  0.70217  Biso   1.000  C
  C1090    1.0000 0.09731  0.63915  0.71498  Biso   1.000  C
  H672     1.0000 0.10850  0.64870  0.71300  Biso   1.000  H
  C1091    1.0000 0.07908  0.65698  0.68559  Biso   1.000  C
  C1092    1.0000 0.12611  0.67522  0.74941  Biso   1.000  C
  N411     1.0000 0.11692  0.51475  0.84096  Biso   1.000  N
  N412     1.0000 0.02446  0.64301  0.86285  Biso   1.000  N
  N413     1.0000 0.01551  0.59758  0.87503  Biso   1.000  N
  N414     1.0000 0.06091  0.59418  0.82960  Biso   1.000  N
  N415     1.0000 0.07025  0.55971  0.83966  Biso   1.000  N
  N416     1.0000 0.08763  0.57613  0.81113  Biso   1.000  N
  N417     1.0000 0.10075  0.62815  0.77568  Biso   1.000  N
  N418     1.0000 0.12676  0.65762  0.75119  Biso   1.000  N
  N419     1.0000 0.09897  0.62476  0.72991  Biso   1.000  N
  N420     1.0000 0.06397  0.65572  0.67169  Biso   1.000  N
  S83      1.0000 0.04463  0.67188  0.83696  Biso   1.000  S
  S84      1.0000 0.12346  0.70072  0.74784  Biso   1.000  S
  C1093    1.0000 0.60258  0.03011  0.84028  Biso   1.000  C
  H673     1.0000 0.59440  0.03270  0.85240  Biso   1.000  H
  C1094    1.0000 0.59914  0.04250  0.82258  Biso   1.000  C
  C1095    1.0000 0.61072  0.03862  0.80477  Biso   1.000  C
  H674     1.0000 0.60920  0.04700  0.79260  Biso   1.000  H
  C1096    1.0000 0.62482  0.02190  0.80514  Biso   1.000  C
  H675     1.0000 0.63240  0.01820  0.79290  Biso   1.000  H
  C1097    1.0000 0.62758  0.01093  0.82314  Biso   1.000  C
  H676     1.0000 0.63760  0.99990  0.82320  Biso   1.000  H
  C1098    1.0000 0.53338  0.15467  0.85226  Biso   1.000  C
  C1099    1.0000 0.51321  0.08157  0.88852  Biso   1.000  C
  H677     1.0000 0.50320  0.08290  0.89940  Biso   1.000  H
  C1100    1.0000 0.52462  0.06334  0.88740  Biso   1.000  C
  H678     1.0000 0.52200  0.05220  0.89690  Biso   1.000  H
  C1101    1.0000 0.54007  0.06142  0.87221  Biso   1.000  C
  H679     1.0000 0.54870  0.04930  0.87160  Biso   1.000  H
  C1102    1.0000 0.54249  0.07774  0.85790  Biso   1.000  C
  C1103    1.0000 0.53001  0.09528  0.85974  Biso   1.000  C
  H680     1.0000 0.53170  0.10620  0.84980  Biso   1.000  H
  C1104    1.0000 0.55877  0.07718  0.84132  Biso   1.000  C
  C1105    1.0000 0.58461  0.06030  0.82433  Biso   1.000  C
  C1106    1.0000 0.57589  0.09316  0.81489  Biso   1.000  C
  C1107    1.0000 0.59601  0.11178  0.78768  Biso   1.000  C
  H681     1.0000 0.60420  0.09940  0.78630  Biso   1.000  H
  C1108    1.0000 0.57952  0.11185  0.80221  Biso   1.000  C
  C1109    1.0000 0.56735  0.12960  0.80411  Biso   1.000  C
  H682     1.0000 0.55620  0.13030  0.81400  Biso   1.000  H
  C1110    1.0000 0.57192  0.14642  0.79109  Biso   1.000  C
  H683     1.0000 0.56360  0.15870  0.79160  Biso   1.000  H
  C1111    1.0000 0.58860  0.14511  0.77746  Biso   1.000  C
  H684     1.0000 0.59160  0.15690  0.76890  Biso   1.000  H
  C1112    1.0000 0.58301  0.11138  0.73237  Biso   1.000  C
  H685     1.0000 0.58410  0.10110  0.74300  Biso   1.000  H
  C1113    1.0000 0.56540  0.11166  0.72060  Biso   1.000  C
  H686     1.0000 0.55450  0.10190  0.72310  Biso   1.000  H
  C1114    1.0000 0.56360  0.12667  0.70470  Biso   1.000  C
  H687     1.0000 0.55160  0.12710  0.69590  Biso   1.000  H
  C1115    1.0000 0.57984  0.14076  0.70217  Biso   1.000  C
  C1116    1.0000 0.59731  0.13915  0.71498  Biso   1.000  C
  H688     1.0000 0.60850  0.14870  0.71300  Biso   1.000  H
  C1117    1.0000 0.57908  0.15698  0.68559  Biso   1.000  C
  C1118    1.0000 0.62611  0.17522  0.74941  Biso   1.000  C
  N421     1.0000 0.61692  0.01475  0.84096  Biso   1.000  N
  N422     1.0000 0.52446  0.14301  0.86285  Biso   1.000  N
  N423     1.0000 0.51551  0.09758  0.87503  Biso   1.000  N
  N424     1.0000 0.56091  0.09418  0.82960  Biso   1.000  N
  N425     1.0000 0.57025  0.05971  0.83966  Biso   1.000  N
  N426     1.0000 0.58763  0.07613  0.81113  Biso   1.000  N
  N427     1.0000 0.60075  0.12815  0.77568  Biso   1.000  N
  N428     1.0000 0.62676  0.15762  0.75119  Biso   1.000  N
  N429     1.0000 0.59897  0.12476  0.72991  Biso   1.000  N
  N430     1.0000 0.56397  0.15572  0.67169  Biso   1.000  N
  S85      1.0000 0.54463  0.17188  0.83696  Biso   1.000  S
  S86      1.0000 0.62346  0.20072  0.74784  Biso   1.000  S
  C1119    1.0000 0.60258  0.53011  0.34028  Biso   1.000  C
  H689     1.0000 0.59440  0.53270  0.35240  Biso   1.000  H
  C1120    1.0000 0.59914  0.54250  0.32258  Biso   1.000  C
  C1121    1.0000 0.61072  0.53862  0.30477  Biso   1.000  C
  H690     1.0000 0.60920  0.54700  0.29260  Biso   1.000  H
  C1122    1.0000 0.62482  0.52190  0.30514  Biso   1.000  C
  H691     1.0000 0.63240  0.51820  0.29290  Biso   1.000  H
  C1123    1.0000 0.62758  0.51093  0.32314  Biso   1.000  C
  H692     1.0000 0.63760  0.49990  0.32320  Biso   1.000  H
  C1124    1.0000 0.53338  0.65467  0.35226  Biso   1.000  C
  C1125    1.0000 0.51321  0.58157  0.38852  Biso   1.000  C
  H693     1.0000 0.50320  0.58290  0.39940  Biso   1.000  H
  C1126    1.0000 0.52462  0.56334  0.38740  Biso   1.000  C
  H694     1.0000 0.52200  0.55220  0.39690  Biso   1.000  H
  C1127    1.0000 0.54007  0.56142  0.37221  Biso   1.000  C
  H695     1.0000 0.54870  0.54930  0.37160  Biso   1.000  H
  C1128    1.0000 0.54249  0.57774  0.35790  Biso   1.000  C
  C1129    1.0000 0.53001  0.59528  0.35974  Biso   1.000  C
  H696     1.0000 0.53170  0.60620  0.34980  Biso   1.000  H
  C1130    1.0000 0.55877  0.57718  0.34132  Biso   1.000  C
  C1131    1.0000 0.58461  0.56030  0.32433  Biso   1.000  C
  C1132    1.0000 0.57589  0.59316  0.31489  Biso   1.000  C
  C1133    1.0000 0.59601  0.61178  0.28768  Biso   1.000  C
  H697     1.0000 0.60420  0.59940  0.28630  Biso   1.000  H
  C1134    1.0000 0.57952  0.61185  0.30221  Biso   1.000  C
  C1135    1.0000 0.56735  0.62960  0.30411  Biso   1.000  C
  H698     1.0000 0.55620  0.63030  0.31400  Biso   1.000  H
  C1136    1.0000 0.57192  0.64642  0.29109  Biso   1.000  C
  H699     1.0000 0.56360  0.65870  0.29160  Biso   1.000  H
  C1137    1.0000 0.58860  0.64511  0.27746  Biso   1.000  C
  H700     1.0000 0.59160  0.65690  0.26890  Biso   1.000  H
  C1138    1.0000 0.58301  0.61138  0.23237  Biso   1.000  C
  H701     1.0000 0.58410  0.60110  0.24300  Biso   1.000  H
  C1139    1.0000 0.56540  0.61166  0.22060  Biso   1.000  C
  H702     1.0000 0.55450  0.60190  0.22310  Biso   1.000  H
  C1140    1.0000 0.56360  0.62667  0.20470  Biso   1.000  C
  H703     1.0000 0.55160  0.62710  0.19590  Biso   1.000  H
  C1141    1.0000 0.57984  0.64076  0.20217  Biso   1.000  C
  C1142    1.0000 0.59731  0.63915  0.21498  Biso   1.000  C
  H704     1.0000 0.60850  0.64870  0.21300  Biso   1.000  H
  C1143    1.0000 0.57908  0.65698  0.18559  Biso   1.000  C
  C1144    1.0000 0.62611  0.67522  0.24941  Biso   1.000  C
  N431     1.0000 0.61692  0.51475  0.34096  Biso   1.000  N
  N432     1.0000 0.52446  0.64301  0.36285  Biso   1.000  N
  N433     1.0000 0.51551  0.59758  0.37503  Biso   1.000  N
  N434     1.0000 0.56091  0.59418  0.32960  Biso   1.000  N
  N435     1.0000 0.57025  0.55971  0.33966  Biso   1.000  N
  N436     1.0000 0.58763  0.57613  0.31113  Biso   1.000  N
  N437     1.0000 0.60075  0.62815  0.27568  Biso   1.000  N
  N438     1.0000 0.62676  0.65762  0.25119  Biso   1.000  N
  N439     1.0000 0.59897  0.62476  0.22991  Biso   1.000  N
  N440     1.0000 0.56397  0.65572  0.17169  Biso   1.000  N
  S87      1.0000 0.54463  0.67188  0.33696  Biso   1.000  S
  S88      1.0000 0.62346  0.70072  0.24784  Biso   1.000  S
  C1145    1.0000 0.64742  0.53011  0.90972  Biso   1.000  C
  H705     1.0000 0.65560  0.53270  0.89760  Biso   1.000  H
  C1146    1.0000 0.65086  0.54250  0.92742  Biso   1.000  C
  C1147    1.0000 0.63928  0.53862  0.94523  Biso   1.000  C
  H706     1.0000 0.64080  0.54700  0.95740  Biso   1.000  H
  C1148    1.0000 0.62518  0.52190  0.94486  Biso   1.000  C
  H707     1.0000 0.61760  0.51820  0.95710  Biso   1.000  H
  C1149    1.0000 0.62242  0.51093  0.92686  Biso   1.000  C
  H708     1.0000 0.61240  0.49990  0.92680  Biso   1.000  H
  C1150    1.0000 0.71662  0.65467  0.89774  Biso   1.000  C
  C1151    1.0000 0.73679  0.58157  0.86148  Biso   1.000  C
  H709     1.0000 0.74680  0.58290  0.85060  Biso   1.000  H
  C1152    1.0000 0.72538  0.56334  0.86260  Biso   1.000  C
  H710     1.0000 0.72800  0.55220  0.85310  Biso   1.000  H
  C1153    1.0000 0.70993  0.56142  0.87779  Biso   1.000  C
  H711     1.0000 0.70130  0.54930  0.87840  Biso   1.000  H
  C1154    1.0000 0.70751  0.57774  0.89210  Biso   1.000  C
  C1155    1.0000 0.71999  0.59528  0.89026  Biso   1.000  C
  H712     1.0000 0.71830  0.60620  0.90020  Biso   1.000  H
  C1156    1.0000 0.69123  0.57718  0.90868  Biso   1.000  C
  C1157    1.0000 0.66539  0.56030  0.92567  Biso   1.000  C
  C1158    1.0000 0.67411  0.59316  0.93511  Biso   1.000  C
  C1159    1.0000 0.65399  0.61178  0.96232  Biso   1.000  C
  H713     1.0000 0.64580  0.59940  0.96370  Biso   1.000  H
  C1160    1.0000 0.67048  0.61185  0.94779  Biso   1.000  C
  C1161    1.0000 0.68265  0.62960  0.94589  Biso   1.000  C
  H714     1.0000 0.69380  0.63030  0.93600  Biso   1.000  H
  C1162    1.0000 0.67808  0.64642  0.95891  Biso   1.000  C
  H715     1.0000 0.68640  0.65870  0.95840  Biso   1.000  H
  C1163    1.0000 0.66140  0.64511  0.97254  Biso   1.000  C
  H716     1.0000 0.65840  0.65690  0.98110  Biso   1.000  H
  C1164    1.0000 0.66699  0.61138  0.01763  Biso   1.000  C
  H717     1.0000 0.66590  0.60110  0.00700  Biso   1.000  H
  C1165    1.0000 0.68460  0.61166  0.02940  Biso   1.000  C
  H718     1.0000 0.69550  0.60190  0.02690  Biso   1.000  H
  C1166    1.0000 0.68640  0.62667  0.04530  Biso   1.000  C
  H719     1.0000 0.69840  0.62710  0.05410  Biso   1.000  H
  C1167    1.0000 0.67016  0.64076  0.04783  Biso   1.000  C
  C1168    1.0000 0.65269  0.63915  0.03502  Biso   1.000  C
  H720     1.0000 0.64150  0.64870  0.03700  Biso   1.000  H
  C1169    1.0000 0.67092  0.65698  0.06441  Biso   1.000  C
  C1170    1.0000 0.62389  0.67522  0.00059  Biso   1.000  C
  N441     1.0000 0.63308  0.51475  0.90904  Biso   1.000  N
  N442     1.0000 0.72554  0.64301  0.88715  Biso   1.000  N
  N443     1.0000 0.73449  0.59758  0.87497  Biso   1.000  N
  N444     1.0000 0.68909  0.59418  0.92040  Biso   1.000  N
  N445     1.0000 0.67975  0.55971  0.91034  Biso   1.000  N
  N446     1.0000 0.66237  0.57613  0.93887  Biso   1.000  N
  N447     1.0000 0.64925  0.62815  0.97432  Biso   1.000  N
  N448     1.0000 0.62324  0.65762  0.99881  Biso   1.000  N
  N449     1.0000 0.65103  0.62476  0.02009  Biso   1.000  N
  N450     1.0000 0.68603  0.65572  0.07831  Biso   1.000  N
  S89      1.0000 0.70537  0.67188  0.91304  Biso   1.000  S
  S90      1.0000 0.62654  0.70072  0.00216  Biso   1.000  S
  C1171    1.0000 0.64742  0.03011  0.40972  Biso   1.000  C
  H721     1.0000 0.65560  0.03270  0.39760  Biso   1.000  H
  C1172    1.0000 0.65086  0.04250  0.42742  Biso   1.000  C
  C1173    1.0000 0.63928  0.03862  0.44523  Biso   1.000  C
  H722     1.0000 0.64080  0.04700  0.45740  Biso   1.000  H
  C1174    1.0000 0.62518  0.02190  0.44486  Biso   1.000  C
  H723     1.0000 0.61760  0.01820  0.45710  Biso   1.000  H
  C1175    1.0000 0.62242  0.01093  0.42686  Biso   1.000  C
  H724     1.0000 0.61240  0.99990  0.42680  Biso   1.000  H
  C1176    1.0000 0.71662  0.15467  0.39774  Biso   1.000  C
  C1177    1.0000 0.73679  0.08157  0.36148  Biso   1.000  C
  H725     1.0000 0.74680  0.08290  0.35060  Biso   1.000  H
  C1178    1.0000 0.72538  0.06334  0.36260  Biso   1.000  C
  H726     1.0000 0.72800  0.05220  0.35310  Biso   1.000  H
  C1179    1.0000 0.70993  0.06142  0.37779  Biso   1.000  C
  H727     1.0000 0.70130  0.04930  0.37840  Biso   1.000  H
  C1180    1.0000 0.70751  0.07774  0.39210  Biso   1.000  C
  C1181    1.0000 0.71999  0.09528  0.39026  Biso   1.000  C
  H728     1.0000 0.71830  0.10620  0.40020  Biso   1.000  H
  C1182    1.0000 0.69123  0.07718  0.40868  Biso   1.000  C
  C1183    1.0000 0.66539  0.06030  0.42567  Biso   1.000  C
  C1184    1.0000 0.67411  0.09316  0.43511  Biso   1.000  C
  C1185    1.0000 0.65399  0.11178  0.46232  Biso   1.000  C
  H729     1.0000 0.64580  0.09940  0.46370  Biso   1.000  H
  C1186    1.0000 0.67048  0.11185  0.44779  Biso   1.000  C
  C1187    1.0000 0.68265  0.12960  0.44589  Biso   1.000  C
  H730     1.0000 0.69380  0.13030  0.43600  Biso   1.000  H
  C1188    1.0000 0.67808  0.14642  0.45891  Biso   1.000  C
  H731     1.0000 0.68640  0.15870  0.45840  Biso   1.000  H
  C1189    1.0000 0.66140  0.14511  0.47254  Biso   1.000  C
  H732     1.0000 0.65840  0.15690  0.48110  Biso   1.000  H
  C1190    1.0000 0.66699  0.11138  0.51763  Biso   1.000  C
  H733     1.0000 0.66590  0.10110  0.50700  Biso   1.000  H
  C1191    1.0000 0.68460  0.11166  0.52940  Biso   1.000  C
  H734     1.0000 0.69550  0.10190  0.52690  Biso   1.000  H
  C1192    1.0000 0.68640  0.12667  0.54530  Biso   1.000  C
  H735     1.0000 0.69840  0.12710  0.55410  Biso   1.000  H
  C1193    1.0000 0.67016  0.14076  0.54783  Biso   1.000  C
  C1194    1.0000 0.65269  0.13915  0.53502  Biso   1.000  C
  H736     1.0000 0.64150  0.14870  0.53700  Biso   1.000  H
  C1195    1.0000 0.67092  0.15698  0.56441  Biso   1.000  C
  C1196    1.0000 0.62389  0.17522  0.50059  Biso   1.000  C
  N451     1.0000 0.63308  0.01475  0.40904  Biso   1.000  N
  N452     1.0000 0.72554  0.14301  0.38715  Biso   1.000  N
  N453     1.0000 0.73449  0.09758  0.37497  Biso   1.000  N
  N454     1.0000 0.68909  0.09418  0.42040  Biso   1.000  N
  N455     1.0000 0.67975  0.05971  0.41034  Biso   1.000  N
  N456     1.0000 0.66237  0.07613  0.43887  Biso   1.000  N
  N457     1.0000 0.64925  0.12815  0.47432  Biso   1.000  N
  N458     1.0000 0.62324  0.15762  0.49881  Biso   1.000  N
  N459     1.0000 0.65103  0.12476  0.52009  Biso   1.000  N
  N460     1.0000 0.68603  0.15572  0.57831  Biso   1.000  N
  S91      1.0000 0.70537  0.17188  0.41304  Biso   1.000  S
  S92      1.0000 0.62654  0.20072  0.50216  Biso   1.000  S
  C1197    1.0000 0.14742  0.53011  0.40972  Biso   1.000  C
  H737     1.0000 0.15560  0.53270  0.39760  Biso   1.000  H
  C1198    1.0000 0.15086  0.54250  0.42742  Biso   1.000  C
  C1199    1.0000 0.13928  0.53862  0.44523  Biso   1.000  C
  H738     1.0000 0.14080  0.54700  0.45740  Biso   1.000  H
  C1200    1.0000 0.12518  0.52190  0.44486  Biso   1.000  C
  H739     1.0000 0.11760  0.51820  0.45710  Biso   1.000  H
  C1201    1.0000 0.12242  0.51093  0.42686  Biso   1.000  C
  H740     1.0000 0.11240  0.49990  0.42680  Biso   1.000  H
  C1202    1.0000 0.21662  0.65467  0.39774  Biso   1.000  C
  C1203    1.0000 0.23679  0.58157  0.36148  Biso   1.000  C
  H741     1.0000 0.24680  0.58290  0.35060  Biso   1.000  H
  C1204    1.0000 0.22538  0.56334  0.36260  Biso   1.000  C
  H742     1.0000 0.22800  0.55220  0.35310  Biso   1.000  H
  C1205    1.0000 0.20993  0.56142  0.37779  Biso   1.000  C
  H743     1.0000 0.20130  0.54930  0.37840  Biso   1.000  H
  C1206    1.0000 0.20751  0.57774  0.39210  Biso   1.000  C
  C1207    1.0000 0.21999  0.59528  0.39026  Biso   1.000  C
  H744     1.0000 0.21830  0.60620  0.40020  Biso   1.000  H
  C1208    1.0000 0.19123  0.57718  0.40868  Biso   1.000  C
  C1209    1.0000 0.16539  0.56030  0.42567  Biso   1.000  C
  C1210    1.0000 0.17411  0.59316  0.43511  Biso   1.000  C
  C1211    1.0000 0.15399  0.61178  0.46232  Biso   1.000  C
  H745     1.0000 0.14580  0.59940  0.46370  Biso   1.000  H
  C1212    1.0000 0.17048  0.61185  0.44779  Biso   1.000  C
  C1213    1.0000 0.18265  0.62960  0.44589  Biso   1.000  C
  H746     1.0000 0.19380  0.63030  0.43600  Biso   1.000  H
  C1214    1.0000 0.17808  0.64642  0.45891  Biso   1.000  C
  H747     1.0000 0.18640  0.65870  0.45840  Biso   1.000  H
  C1215    1.0000 0.16140  0.64511  0.47254  Biso   1.000  C
  H748     1.0000 0.15840  0.65690  0.48110  Biso   1.000  H
  C1216    1.0000 0.16699  0.61138  0.51763  Biso   1.000  C
  H749     1.0000 0.16590  0.60110  0.50700  Biso   1.000  H
  C1217    1.0000 0.18460  0.61166  0.52940  Biso   1.000  C
  H750     1.0000 0.19550  0.60190  0.52690  Biso   1.000  H
  C1218    1.0000 0.18640  0.62667  0.54530  Biso   1.000  C
  H751     1.0000 0.19840  0.62710  0.55410  Biso   1.000  H
  C1219    1.0000 0.17016  0.64076  0.54783  Biso   1.000  C
  C1220    1.0000 0.15269  0.63915  0.53502  Biso   1.000  C
  H752     1.0000 0.14150  0.64870  0.53700  Biso   1.000  H
  C1221    1.0000 0.17092  0.65698  0.56441  Biso   1.000  C
  C1222    1.0000 0.12389  0.67522  0.50059  Biso   1.000  C
  N461     1.0000 0.13308  0.51475  0.40904  Biso   1.000  N
  N462     1.0000 0.22554  0.64301  0.38715  Biso   1.000  N
  N463     1.0000 0.23449  0.59758  0.37497  Biso   1.000  N
  N464     1.0000 0.18909  0.59418  0.42040  Biso   1.000  N
  N465     1.0000 0.17975  0.55971  0.41034  Biso   1.000  N
  N466     1.0000 0.16237  0.57613  0.43887  Biso   1.000  N
  N467     1.0000 0.14925  0.62815  0.47432  Biso   1.000  N
  N468     1.0000 0.12324  0.65762  0.49881  Biso   1.000  N
  N469     1.0000 0.15103  0.62476  0.52009  Biso   1.000  N
  N470     1.0000 0.18603  0.65572  0.57831  Biso   1.000  N
  S93      1.0000 0.20537  0.67188  0.41304  Biso   1.000  S
  S94      1.0000 0.12654  0.70072  0.50216  Biso   1.000  S
  C1223    1.0000 0.14742  0.03011  0.90972  Biso   1.000  C
  H753     1.0000 0.15560  0.03270  0.89760  Biso   1.000  H
  C1224    1.0000 0.15086  0.04250  0.92742  Biso   1.000  C
  C1225    1.0000 0.13928  0.03862  0.94523  Biso   1.000  C
  H754     1.0000 0.14080  0.04700  0.95740  Biso   1.000  H
  C1226    1.0000 0.12518  0.02190  0.94486  Biso   1.000  C
  H755     1.0000 0.11760  0.01820  0.95710  Biso   1.000  H
  C1227    1.0000 0.12242  0.01093  0.92686  Biso   1.000  C
  H756     1.0000 0.11240  0.99990  0.92680  Biso   1.000  H
  C1228    1.0000 0.21662  0.15467  0.89774  Biso   1.000  C
  C1229    1.0000 0.23679  0.08157  0.86148  Biso   1.000  C
  H757     1.0000 0.24680  0.08290  0.85060  Biso   1.000  H
  C1230    1.0000 0.22538  0.06334  0.86260  Biso   1.000  C
  H758     1.0000 0.22800  0.05220  0.85310  Biso   1.000  H
  C1231    1.0000 0.20993  0.06142  0.87779  Biso   1.000  C
  H759     1.0000 0.20130  0.04930  0.87840  Biso   1.000  H
  C1232    1.0000 0.20751  0.07774  0.89210  Biso   1.000  C
  C1233    1.0000 0.21999  0.09528  0.89026  Biso   1.000  C
  H760     1.0000 0.21830  0.10620  0.90020  Biso   1.000  H
  C1234    1.0000 0.19123  0.07718  0.90868  Biso   1.000  C
  C1235    1.0000 0.16539  0.06030  0.92567  Biso   1.000  C
  C1236    1.0000 0.17411  0.09316  0.93511  Biso   1.000  C
  C1237    1.0000 0.15399  0.11178  0.96232  Biso   1.000  C
  H761     1.0000 0.14580  0.09940  0.96370  Biso   1.000  H
  C1238    1.0000 0.17048  0.11185  0.94779  Biso   1.000  C
  C1239    1.0000 0.18265  0.12960  0.94589  Biso   1.000  C
  H762     1.0000 0.19380  0.13030  0.93600  Biso   1.000  H
  C1240    1.0000 0.17808  0.14642  0.95891  Biso   1.000  C
  H763     1.0000 0.18640  0.15870  0.95840  Biso   1.000  H
  C1241    1.0000 0.16140  0.14511  0.97254  Biso   1.000  C
  H764     1.0000 0.15840  0.15690  0.98110  Biso   1.000  H
  C1242    1.0000 0.16699  0.11138  0.01763  Biso   1.000  C
  H765     1.0000 0.16590  0.10110  0.00700  Biso   1.000  H
  C1243    1.0000 0.18460  0.11166  0.02940  Biso   1.000  C
  H766     1.0000 0.19550  0.10190  0.02690  Biso   1.000  H
  C1244    1.0000 0.18640  0.12667  0.04530  Biso   1.000  C
  H767     1.0000 0.19840  0.12710  0.05410  Biso   1.000  H
  C1245    1.0000 0.17016  0.14076  0.04783  Biso   1.000  C
  C1246    1.0000 0.15269  0.13915  0.03502  Biso   1.000  C
  H768     1.0000 0.14150  0.14870  0.03700  Biso   1.000  H
  C1247    1.0000 0.17092  0.15698  0.06441  Biso   1.000  C
  C1248    1.0000 0.12389  0.17522  0.00059  Biso   1.000  C
  N471     1.0000 0.13308  0.01475  0.90904  Biso   1.000  N
  N472     1.0000 0.22554  0.14301  0.88715  Biso   1.000  N
  N473     1.0000 0.23449  0.09758  0.87497  Biso   1.000  N
  N474     1.0000 0.18909  0.09418  0.92040  Biso   1.000  N
  N475     1.0000 0.17975  0.05971  0.91034  Biso   1.000  N
  N476     1.0000 0.16237  0.07613  0.93887  Biso   1.000  N
  N477     1.0000 0.14925  0.12815  0.97432  Biso   1.000  N
  N478     1.0000 0.12324  0.15762  0.99881  Biso   1.000  N
  N479     1.0000 0.15103  0.12476  0.02009  Biso   1.000  N
  N480     1.0000 0.18603  0.15572  0.07831  Biso   1.000  N
  S95      1.0000 0.20537  0.17188  0.91304  Biso   1.000  S
  S96      1.0000 0.12654  0.20072  0.00216  Biso   1.000  S
  C1249    1.0000 0.35258  0.65972  0.78011  Biso   1.000  C
  H769     1.0000 0.34440  0.64760  0.78270  Biso   1.000  H
  C1250    1.0000 0.34914  0.67742  0.79250  Biso   1.000  C
  C1251    1.0000 0.36072  0.69523  0.78862  Biso   1.000  C
  H770     1.0000 0.35920  0.70740  0.79700  Biso   1.000  H
  C1252    1.0000 0.37482  0.69486  0.77190  Biso   1.000  C
  H771     1.0000 0.38240  0.70710  0.76820  Biso   1.000  H
  C1253    1.0000 0.37758  0.67686  0.76093  Biso   1.000  C
  H772     1.0000 0.38760  0.67680  0.74990  Biso   1.000  H
  C1254    1.0000 0.28338  0.64774  0.90467  Biso   1.000  C
  C1255    1.0000 0.26321  0.61148  0.83157  Biso   1.000  C
  H773     1.0000 0.25320  0.60060  0.83290  Biso   1.000  H
  C1256    1.0000 0.27462  0.61260  0.81334  Biso   1.000  C
  H774     1.0000 0.27200  0.60310  0.80220  Biso   1.000  H
  C1257    1.0000 0.29007  0.62779  0.81142  Biso   1.000  C
  H775     1.0000 0.29870  0.62840  0.79930  Biso   1.000  H
  C1258    1.0000 0.29249  0.64210  0.82774  Biso   1.000  C
  C1259    1.0000 0.28001  0.64026  0.84528  Biso   1.000  C
  H776     1.0000 0.28170  0.65020  0.85620  Biso   1.000  H
  C1260    1.0000 0.30877  0.65868  0.82718  Biso   1.000  C
  C1261    1.0000 0.33461  0.67567  0.81030  Biso   1.000  C
  C1262    1.0000 0.32589  0.68511  0.84316  Biso   1.000  C
  C1263    1.0000 0.34601  0.71232  0.86178  Biso   1.000  C
  H777     1.0000 0.35420  0.71370  0.84940  Biso   1.000  H
  C1264    1.0000 0.32952  0.69779  0.86185  Biso   1.000  C
  C1265    1.0000 0.31735  0.69589  0.87960  Biso   1.000  C
  H778     1.0000 0.30620  0.68600  0.88030  Biso   1.000  H
  C1266    1.0000 0.32192  0.70891  0.89642  Biso   1.000  C
  H779     1.0000 0.31360  0.70840  0.90870  Biso   1.000  H
  C1267    1.0000 0.33860  0.72254  0.89511  Biso   1.000  C
  H780     1.0000 0.34160  0.73110  0.90690  Biso   1.000  H
  C1268    1.0000 0.33301  0.76763  0.86138  Biso   1.000  C
  H781     1.0000 0.33410  0.75700  0.85110  Biso   1.000  H
  C1269    1.0000 0.31540  0.77940  0.86166  Biso   1.000  C
  H782     1.0000 0.30450  0.77690  0.85190  Biso   1.000  H
  C1270    1.0000 0.31360  0.79530  0.87667  Biso   1.000  C
  H783     1.0000 0.30160  0.80410  0.87710  Biso   1.000  H
  C1271    1.0000 0.32984  0.79783  0.89076  Biso   1.000  C
  C1272    1.0000 0.34731  0.78502  0.88915  Biso   1.000  C
  H784     1.0000 0.35850  0.78700  0.89870  Biso   1.000  H
  C1273    1.0000 0.32908  0.81441  0.90698  Biso   1.000  C
  C1274    1.0000 0.37611  0.75059  0.92522  Biso   1.000  C
  N481     1.0000 0.36692  0.65904  0.76475  Biso   1.000  N
  N482     1.0000 0.27446  0.63715  0.89301  Biso   1.000  N
  N483     1.0000 0.26551  0.62497  0.84758  Biso   1.000  N
  N484     1.0000 0.31091  0.67040  0.84418  Biso   1.000  N
  N485     1.0000 0.32025  0.66034  0.80971  Biso   1.000  N
  N486     1.0000 0.33763  0.68887  0.82613  Biso   1.000  N
  N487     1.0000 0.35075  0.72432  0.87815  Biso   1.000  N
  N488     1.0000 0.37676  0.74881  0.90762  Biso   1.000  N
  N489     1.0000 0.34897  0.77009  0.87476  Biso   1.000  N
  N490     1.0000 0.31397  0.82831  0.90572  Biso   1.000  N
  S97      1.0000 0.29463  0.66304  0.92188  Biso   1.000  S
  S98      1.0000 0.37346  0.75216  0.95072  Biso   1.000  S
  C1275    1.0000 0.35258  0.15972  0.28011  Biso   1.000  C
  H785     1.0000 0.34440  0.14760  0.28270  Biso   1.000  H
  C1276    1.0000 0.34914  0.17742  0.29250  Biso   1.000  C
  C1277    1.0000 0.36072  0.19523  0.28862  Biso   1.000  C
  H786     1.0000 0.35920  0.20740  0.29700  Biso   1.000  H
  C1278    1.0000 0.37482  0.19486  0.27190  Biso   1.000  C
  H787     1.0000 0.38240  0.20710  0.26820  Biso   1.000  H
  C1279    1.0000 0.37758  0.17686  0.26093  Biso   1.000  C
  H788     1.0000 0.38760  0.17680  0.24990  Biso   1.000  H
  C1280    1.0000 0.28338  0.14774  0.40467  Biso   1.000  C
  C1281    1.0000 0.26321  0.11148  0.33157  Biso   1.000  C
  H789     1.0000 0.25320  0.10060  0.33290  Biso   1.000  H
  C1282    1.0000 0.27462  0.11260  0.31334  Biso   1.000  C
  H790     1.0000 0.27200  0.10310  0.30220  Biso   1.000  H
  C1283    1.0000 0.29007  0.12779  0.31142  Biso   1.000  C
  H791     1.0000 0.29870  0.12840  0.29930  Biso   1.000  H
  C1284    1.0000 0.29249  0.14210  0.32774  Biso   1.000  C
  C1285    1.0000 0.28001  0.14026  0.34528  Biso   1.000  C
  H792     1.0000 0.28170  0.15020  0.35620  Biso   1.000  H
  C1286    1.0000 0.30877  0.15868  0.32718  Biso   1.000  C
  C1287    1.0000 0.33461  0.17567  0.31030  Biso   1.000  C
  C1288    1.0000 0.32589  0.18511  0.34316  Biso   1.000  C
  C1289    1.0000 0.34601  0.21232  0.36178  Biso   1.000  C
  H793     1.0000 0.35420  0.21370  0.34940  Biso   1.000  H
  C1290    1.0000 0.32952  0.19779  0.36185  Biso   1.000  C
  C1291    1.0000 0.31735  0.19589  0.37960  Biso   1.000  C
  H794     1.0000 0.30620  0.18600  0.38030  Biso   1.000  H
  C1292    1.0000 0.32192  0.20891  0.39642  Biso   1.000  C
  H795     1.0000 0.31360  0.20840  0.40870  Biso   1.000  H
  C1293    1.0000 0.33860  0.22254  0.39511  Biso   1.000  C
  H796     1.0000 0.34160  0.23110  0.40690  Biso   1.000  H
  C1294    1.0000 0.33301  0.26763  0.36138  Biso   1.000  C
  H797     1.0000 0.33410  0.25700  0.35110  Biso   1.000  H
  C1295    1.0000 0.31540  0.27940  0.36166  Biso   1.000  C
  H798     1.0000 0.30450  0.27690  0.35190  Biso   1.000  H
  C1296    1.0000 0.31360  0.29530  0.37667  Biso   1.000  C
  H799     1.0000 0.30160  0.30410  0.37710  Biso   1.000  H
  C1297    1.0000 0.32984  0.29783  0.39076  Biso   1.000  C
  C1298    1.0000 0.34731  0.28502  0.38915  Biso   1.000  C
  H800     1.0000 0.35850  0.28700  0.39870  Biso   1.000  H
  C1299    1.0000 0.32908  0.31441  0.40698  Biso   1.000  C
  C1300    1.0000 0.37611  0.25059  0.42522  Biso   1.000  C
  N491     1.0000 0.36692  0.15904  0.26475  Biso   1.000  N
  N492     1.0000 0.27446  0.13715  0.39301  Biso   1.000  N
  N493     1.0000 0.26551  0.12497  0.34758  Biso   1.000  N
  N494     1.0000 0.31091  0.17040  0.34418  Biso   1.000  N
  N495     1.0000 0.32025  0.16034  0.30971  Biso   1.000  N
  N496     1.0000 0.33763  0.18887  0.32613  Biso   1.000  N
  N497     1.0000 0.35075  0.22432  0.37815  Biso   1.000  N
  N498     1.0000 0.37676  0.24881  0.40762  Biso   1.000  N
  N499     1.0000 0.34897  0.27009  0.37476  Biso   1.000  N
  N500     1.0000 0.31397  0.32831  0.40572  Biso   1.000  N
  S99      1.0000 0.29463  0.16304  0.42188  Biso   1.000  S
  S100     1.0000 0.37346  0.25216  0.45072  Biso   1.000  S
  C1301    1.0000 0.85258  0.65972  0.28011  Biso   1.000  C
  H801     1.0000 0.84440  0.64760  0.28270  Biso   1.000  H
  C1302    1.0000 0.84914  0.67742  0.29250  Biso   1.000  C
  C1303    1.0000 0.86072  0.69523  0.28862  Biso   1.000  C
  H802     1.0000 0.85920  0.70740  0.29700  Biso   1.000  H
  C1304    1.0000 0.87482  0.69486  0.27190  Biso   1.000  C
  H803     1.0000 0.88240  0.70710  0.26820  Biso   1.000  H
  C1305    1.0000 0.87758  0.67686  0.26093  Biso   1.000  C
  H804     1.0000 0.88760  0.67680  0.24990  Biso   1.000  H
  C1306    1.0000 0.78338  0.64774  0.40467  Biso   1.000  C
  C1307    1.0000 0.76321  0.61148  0.33157  Biso   1.000  C
  H805     1.0000 0.75320  0.60060  0.33290  Biso   1.000  H
  C1308    1.0000 0.77462  0.61260  0.31334  Biso   1.000  C
  H806     1.0000 0.77200  0.60310  0.30220  Biso   1.000  H
  C1309    1.0000 0.79007  0.62779  0.31142  Biso   1.000  C
  H807     1.0000 0.79870  0.62840  0.29930  Biso   1.000  H
  C1310    1.0000 0.79249  0.64210  0.32774  Biso   1.000  C
  C1311    1.0000 0.78001  0.64026  0.34528  Biso   1.000  C
  H808     1.0000 0.78170  0.65020  0.35620  Biso   1.000  H
  C1312    1.0000 0.80877  0.65868  0.32718  Biso   1.000  C
  C1313    1.0000 0.83461  0.67567  0.31030  Biso   1.000  C
  C1314    1.0000 0.82589  0.68511  0.34316  Biso   1.000  C
  C1315    1.0000 0.84601  0.71232  0.36178  Biso   1.000  C
  H809     1.0000 0.85420  0.71370  0.34940  Biso   1.000  H
  C1316    1.0000 0.82952  0.69779  0.36185  Biso   1.000  C
  C1317    1.0000 0.81735  0.69589  0.37960  Biso   1.000  C
  H810     1.0000 0.80620  0.68600  0.38030  Biso   1.000  H
  C1318    1.0000 0.82192  0.70891  0.39642  Biso   1.000  C
  H811     1.0000 0.81360  0.70840  0.40870  Biso   1.000  H
  C1319    1.0000 0.83860  0.72254  0.39511  Biso   1.000  C
  H812     1.0000 0.84160  0.73110  0.40690  Biso   1.000  H
  C1320    1.0000 0.83301  0.76763  0.36138  Biso   1.000  C
  H813     1.0000 0.83410  0.75700  0.35110  Biso   1.000  H
  C1321    1.0000 0.81540  0.77940  0.36166  Biso   1.000  C
  H814     1.0000 0.80450  0.77690  0.35190  Biso   1.000  H
  C1322    1.0000 0.81360  0.79530  0.37667  Biso   1.000  C
  H815     1.0000 0.80160  0.80410  0.37710  Biso   1.000  H
  C1323    1.0000 0.82984  0.79783  0.39076  Biso   1.000  C
  C1324    1.0000 0.84731  0.78502  0.38915  Biso   1.000  C
  H816     1.0000 0.85850  0.78700  0.39870  Biso   1.000  H
  C1325    1.0000 0.82908  0.81441  0.40698  Biso   1.000  C
  C1326    1.0000 0.87611  0.75059  0.42522  Biso   1.000  C
  N501     1.0000 0.86692  0.65904  0.26475  Biso   1.000  N
  N502     1.0000 0.77446  0.63715  0.39301  Biso   1.000  N
  N503     1.0000 0.76551  0.62497  0.34758  Biso   1.000  N
  N504     1.0000 0.81091  0.67040  0.34418  Biso   1.000  N
  N505     1.0000 0.82025  0.66034  0.30971  Biso   1.000  N
  N506     1.0000 0.83763  0.68887  0.32613  Biso   1.000  N
  N507     1.0000 0.85075  0.72432  0.37815  Biso   1.000  N
  N508     1.0000 0.87676  0.74881  0.40762  Biso   1.000  N
  N509     1.0000 0.84897  0.77009  0.37476  Biso   1.000  N
  N510     1.0000 0.81397  0.82831  0.40572  Biso   1.000  N
  S101     1.0000 0.79463  0.66304  0.42188  Biso   1.000  S
  S102     1.0000 0.87346  0.75216  0.45072  Biso   1.000  S
  C1327    1.0000 0.85258  0.15972  0.78011  Biso   1.000  C
  H817     1.0000 0.84440  0.14760  0.78270  Biso   1.000  H
  C1328    1.0000 0.84914  0.17742  0.79250  Biso   1.000  C
  C1329    1.0000 0.86072  0.19523  0.78862  Biso   1.000  C
  H818     1.0000 0.85920  0.20740  0.79700  Biso   1.000  H
  C1330    1.0000 0.87482  0.19486  0.77190  Biso   1.000  C
  H819     1.0000 0.88240  0.20710  0.76820  Biso   1.000  H
  C1331    1.0000 0.87758  0.17686  0.76093  Biso   1.000  C
  H820     1.0000 0.88760  0.17680  0.74990  Biso   1.000  H
  C1332    1.0000 0.78338  0.14774  0.90467  Biso   1.000  C
  C1333    1.0000 0.76321  0.11148  0.83157  Biso   1.000  C
  H821     1.0000 0.75320  0.10060  0.83290  Biso   1.000  H
  C1334    1.0000 0.77462  0.11260  0.81334  Biso   1.000  C
  H822     1.0000 0.77200  0.10310  0.80220  Biso   1.000  H
  C1335    1.0000 0.79007  0.12779  0.81142  Biso   1.000  C
  H823     1.0000 0.79870  0.12840  0.79930  Biso   1.000  H
  C1336    1.0000 0.79249  0.14210  0.82774  Biso   1.000  C
  C1337    1.0000 0.78001  0.14026  0.84528  Biso   1.000  C
  H824     1.0000 0.78170  0.15020  0.85620  Biso   1.000  H
  C1338    1.0000 0.80877  0.15868  0.82718  Biso   1.000  C
  C1339    1.0000 0.83461  0.17567  0.81030  Biso   1.000  C
  C1340    1.0000 0.82589  0.18511  0.84316  Biso   1.000  C
  C1341    1.0000 0.84601  0.21232  0.86178  Biso   1.000  C
  H825     1.0000 0.85420  0.21370  0.84940  Biso   1.000  H
  C1342    1.0000 0.82952  0.19779  0.86185  Biso   1.000  C
  C1343    1.0000 0.81735  0.19589  0.87960  Biso   1.000  C
  H826     1.0000 0.80620  0.18600  0.88030  Biso   1.000  H
  C1344    1.0000 0.82192  0.20891  0.89642  Biso   1.000  C
  H827     1.0000 0.81360  0.20840  0.90870  Biso   1.000  H
  C1345    1.0000 0.83860  0.22254  0.89511  Biso   1.000  C
  H828     1.0000 0.84160  0.23110  0.90690  Biso   1.000  H
  C1346    1.0000 0.83301  0.26763  0.86138  Biso   1.000  C
  H829     1.0000 0.83410  0.25700  0.85110  Biso   1.000  H
  C1347    1.0000 0.81540  0.27940  0.86166  Biso   1.000  C
  H830     1.0000 0.80450  0.27690  0.85190  Biso   1.000  H
  C1348    1.0000 0.81360  0.29530  0.87667  Biso   1.000  C
  H831     1.0000 0.80160  0.30410  0.87710  Biso   1.000  H
  C1349    1.0000 0.82984  0.29783  0.89076  Biso   1.000  C
  C1350    1.0000 0.84731  0.28502  0.88915  Biso   1.000  C
  H832     1.0000 0.85850  0.28700  0.89870  Biso   1.000  H
  C1351    1.0000 0.82908  0.31441  0.90698  Biso   1.000  C
  C1352    1.0000 0.87611  0.25059  0.92522  Biso   1.000  C
  N511     1.0000 0.86692  0.15904  0.76475  Biso   1.000  N
  N512     1.0000 0.77446  0.13715  0.89301  Biso   1.000  N
  N513     1.0000 0.76551  0.12497  0.84758  Biso   1.000  N
  N514     1.0000 0.81091  0.17040  0.84418  Biso   1.000  N
  N515     1.0000 0.82025  0.16034  0.80971  Biso   1.000  N
  N516     1.0000 0.83763  0.18887  0.82613  Biso   1.000  N
  N517     1.0000 0.85075  0.22432  0.87815  Biso   1.000  N
  N518     1.0000 0.87676  0.24881  0.90762  Biso   1.000  N
  N519     1.0000 0.84897  0.27009  0.87476  Biso   1.000  N
  N520     1.0000 0.81397  0.32831  0.90572  Biso   1.000  N
  S103     1.0000 0.79463  0.16304  0.92188  Biso   1.000  S
  S104     1.0000 0.87346  0.25216  0.95072  Biso   1.000  S
  C1353    1.0000 0.89742  0.09028  0.28011  Biso   1.000  C
  H833     1.0000 0.90560  0.10240  0.28270  Biso   1.000  H
  C1354    1.0000 0.90086  0.07258  0.29250  Biso   1.000  C
  C1355    1.0000 0.88928  0.05477  0.28862  Biso   1.000  C
  H834     1.0000 0.89080  0.04260  0.29700  Biso   1.000  H
  C1356    1.0000 0.87518  0.05514  0.27190  Biso   1.000  C
  H835     1.0000 0.86760  0.04290  0.26820  Biso   1.000  H
  C1357    1.0000 0.87242  0.07314  0.26093  Biso   1.000  C
  H836     1.0000 0.86240  0.07320  0.24990  Biso   1.000  H
  C1358    1.0000 0.96662  0.10226  0.40467  Biso   1.000  C
  C1359    1.0000 0.98679  0.13852  0.33157  Biso   1.000  C
  H837     1.0000 0.99680  0.14940  0.33290  Biso   1.000  H
  C1360    1.0000 0.97538  0.13740  0.31334  Biso   1.000  C
  H838     1.0000 0.97800  0.14690  0.30220  Biso   1.000  H
  C1361    1.0000 0.95993  0.12221  0.31142  Biso   1.000  C
  H839     1.0000 0.95130  0.12160  0.29930  Biso   1.000  H
  C1362    1.0000 0.95751  0.10790  0.32774  Biso   1.000  C
  C1363    1.0000 0.96999  0.10974  0.34528  Biso   1.000  C
  H840     1.0000 0.96830  0.09980  0.35620  Biso   1.000  H
  C1364    1.0000 0.94123  0.09132  0.32718  Biso   1.000  C
  C1365    1.0000 0.91539  0.07433  0.31030  Biso   1.000  C
  C1366    1.0000 0.92411  0.06489  0.34316  Biso   1.000  C
  C1367    1.0000 0.90399  0.03768  0.36178  Biso   1.000  C
  H841     1.0000 0.89580  0.03630  0.34940  Biso   1.000  H
  C1368    1.0000 0.92048  0.05221  0.36185  Biso   1.000  C
  C1369    1.0000 0.93265  0.05411  0.37960  Biso   1.000  C
  H842     1.0000 0.94380  0.06400  0.38030  Biso   1.000  H
  C1370    1.0000 0.92808  0.04109  0.39642  Biso   1.000  C
  H843     1.0000 0.93640  0.04160  0.40870  Biso   1.000  H
  C1371    1.0000 0.91140  0.02746  0.39511  Biso   1.000  C
  H844     1.0000 0.90840  0.01890  0.40690  Biso   1.000  H
  C1372    1.0000 0.91699  0.98237  0.36138  Biso   1.000  C
  H845     1.0000 0.91590  0.99300  0.35110  Biso   1.000  H
  C1373    1.0000 0.93460  0.97060  0.36166  Biso   1.000  C
  H846     1.0000 0.94550  0.97310  0.35190  Biso   1.000  H
  C1374    1.0000 0.93640  0.95470  0.37667  Biso   1.000  C
  H847     1.0000 0.94840  0.94590  0.37710  Biso   1.000  H
  C1375    1.0000 0.92016  0.95217  0.39076  Biso   1.000  C
  C1376    1.0000 0.90269  0.96498  0.38915  Biso   1.000  C
  H848     1.0000 0.89150  0.96300  0.39870  Biso   1.000  H
  C1377    1.0000 0.92092  0.93559  0.40698  Biso   1.000  C
  C1378    1.0000 0.87389  0.99941  0.42522  Biso   1.000  C
  N521     1.0000 0.88308  0.09096  0.26475  Biso   1.000  N
  N522     1.0000 0.97554  0.11285  0.39301  Biso   1.000  N
  N523     1.0000 0.98449  0.12503  0.34758  Biso   1.000  N
  N524     1.0000 0.93909  0.07960  0.34418  Biso   1.000  N
  N525     1.0000 0.92975  0.08966  0.30971  Biso   1.000  N
  N526     1.0000 0.91237  0.06113  0.32613  Biso   1.000  N
  N527     1.0000 0.89925  0.02568  0.37815  Biso   1.000  N
  N528     1.0000 0.87324  0.00119  0.40762  Biso   1.000  N
  N529     1.0000 0.90103  0.97991  0.37476  Biso   1.000  N
  N530     1.0000 0.93603  0.92169  0.40572  Biso   1.000  N
  S105     1.0000 0.95537  0.08696  0.42188  Biso   1.000  S
  S106     1.0000 0.87654  0.99784  0.45072  Biso   1.000  S
  C1379    1.0000 0.89742  0.59028  0.78011  Biso   1.000  C
  H849     1.0000 0.90560  0.60240  0.78270  Biso   1.000  H
  C1380    1.0000 0.90086  0.57258  0.79250  Biso   1.000  C
  C1381    1.0000 0.88928  0.55477  0.78862  Biso   1.000  C
  H850     1.0000 0.89080  0.54260  0.79700  Biso   1.000  H
  C1382    1.0000 0.87518  0.55514  0.77190  Biso   1.000  C
  H851     1.0000 0.86760  0.54290  0.76820  Biso   1.000  H
  C1383    1.0000 0.87242  0.57314  0.76093  Biso   1.000  C
  H852     1.0000 0.86240  0.57320  0.74990  Biso   1.000  H
  C1384    1.0000 0.96662  0.60226  0.90467  Biso   1.000  C
  C1385    1.0000 0.98679  0.63852  0.83157  Biso   1.000  C
  H853     1.0000 0.99680  0.64940  0.83290  Biso   1.000  H
  C1386    1.0000 0.97538  0.63740  0.81334  Biso   1.000  C
  H854     1.0000 0.97800  0.64690  0.80220  Biso   1.000  H
  C1387    1.0000 0.95993  0.62221  0.81142  Biso   1.000  C
  H855     1.0000 0.95130  0.62160  0.79930  Biso   1.000  H
  C1388    1.0000 0.95751  0.60790  0.82774  Biso   1.000  C
  C1389    1.0000 0.96999  0.60974  0.84528  Biso   1.000  C
  H856     1.0000 0.96830  0.59980  0.85620  Biso   1.000  H
  C1390    1.0000 0.94123  0.59132  0.82718  Biso   1.000  C
  C1391    1.0000 0.91539  0.57433  0.81030  Biso   1.000  C
  C1392    1.0000 0.92411  0.56489  0.84316  Biso   1.000  C
  C1393    1.0000 0.90399  0.53768  0.86178  Biso   1.000  C
  H857     1.0000 0.89580  0.53630  0.84940  Biso   1.000  H
  C1394    1.0000 0.92048  0.55221  0.86185  Biso   1.000  C
  C1395    1.0000 0.93265  0.55411  0.87960  Biso   1.000  C
  H858     1.0000 0.94380  0.56400  0.88030  Biso   1.000  H
  C1396    1.0000 0.92808  0.54109  0.89642  Biso   1.000  C
  H859     1.0000 0.93640  0.54160  0.90870  Biso   1.000  H
  C1397    1.0000 0.91140  0.52746  0.89511  Biso   1.000  C
  H860     1.0000 0.90840  0.51890  0.90690  Biso   1.000  H
  C1398    1.0000 0.91699  0.48237  0.86138  Biso   1.000  C
  H861     1.0000 0.91590  0.49300  0.85110  Biso   1.000  H
  C1399    1.0000 0.93460  0.47060  0.86166  Biso   1.000  C
  H862     1.0000 0.94550  0.47310  0.85190  Biso   1.000  H
  C1400    1.0000 0.93640  0.45470  0.87667  Biso   1.000  C
  H863     1.0000 0.94840  0.44590  0.87710  Biso   1.000  H
  C1401    1.0000 0.92016  0.45217  0.89076  Biso   1.000  C
  C1402    1.0000 0.90269  0.46498  0.88915  Biso   1.000  C
  H864     1.0000 0.89150  0.46300  0.89870  Biso   1.000  H
  C1403    1.0000 0.92092  0.43559  0.90698  Biso   1.000  C
  C1404    1.0000 0.87389  0.49941  0.92522  Biso   1.000  C
  N531     1.0000 0.88308  0.59096  0.76475  Biso   1.000  N
  N532     1.0000 0.97554  0.61285  0.89301  Biso   1.000  N
  N533     1.0000 0.98449  0.62503  0.84758  Biso   1.000  N
  N534     1.0000 0.93909  0.57960  0.84418  Biso   1.000  N
  N535     1.0000 0.92975  0.58966  0.80971  Biso   1.000  N
  N536     1.0000 0.91237  0.56113  0.82613  Biso   1.000  N
  N537     1.0000 0.89925  0.52568  0.87815  Biso   1.000  N
  N538     1.0000 0.87324  0.50119  0.90762  Biso   1.000  N
  N539     1.0000 0.90103  0.47991  0.87476  Biso   1.000  N
  N540     1.0000 0.93603  0.42169  0.90572  Biso   1.000  N
  S107     1.0000 0.95537  0.58696  0.92188  Biso   1.000  S
  S108     1.0000 0.87654  0.49784  0.95072  Biso   1.000  S
  C1405    1.0000 0.39742  0.09028  0.78011  Biso   1.000  C
  H865     1.0000 0.40560  0.10240  0.78270  Biso   1.000  H
  C1406    1.0000 0.40086  0.07258  0.79250  Biso   1.000  C
  C1407    1.0000 0.38928  0.05477  0.78862  Biso   1.000  C
  H866     1.0000 0.39080  0.04260  0.79700  Biso   1.000  H
  C1408    1.0000 0.37518  0.05514  0.77190  Biso   1.000  C
  H867     1.0000 0.36760  0.04290  0.76820  Biso   1.000  H
  C1409    1.0000 0.37242  0.07314  0.76093  Biso   1.000  C
  H868     1.0000 0.36240  0.07320  0.74990  Biso   1.000  H
  C1410    1.0000 0.46662  0.10226  0.90467  Biso   1.000  C
  C1411    1.0000 0.48679  0.13852  0.83157  Biso   1.000  C
  H869     1.0000 0.49680  0.14940  0.83290  Biso   1.000  H
  C1412    1.0000 0.47538  0.13740  0.81334  Biso   1.000  C
  H870     1.0000 0.47800  0.14690  0.80220  Biso   1.000  H
  C1413    1.0000 0.45993  0.12221  0.81142  Biso   1.000  C
  H871     1.0000 0.45130  0.12160  0.79930  Biso   1.000  H
  C1414    1.0000 0.45751  0.10790  0.82774  Biso   1.000  C
  C1415    1.0000 0.46999  0.10974  0.84528  Biso   1.000  C
  H872     1.0000 0.46830  0.09980  0.85620  Biso   1.000  H
  C1416    1.0000 0.44123  0.09132  0.82718  Biso   1.000  C
  C1417    1.0000 0.41539  0.07433  0.81030  Biso   1.000  C
  C1418    1.0000 0.42411  0.06489  0.84316  Biso   1.000  C
  C1419    1.0000 0.40399  0.03768  0.86178  Biso   1.000  C
  H873     1.0000 0.39580  0.03630  0.84940  Biso   1.000  H
  C1420    1.0000 0.42048  0.05221  0.86185  Biso   1.000  C
  C1421    1.0000 0.43265  0.05411  0.87960  Biso   1.000  C
  H874     1.0000 0.44380  0.06400  0.88030  Biso   1.000  H
  C1422    1.0000 0.42808  0.04109  0.89642  Biso   1.000  C
  H875     1.0000 0.43640  0.04160  0.90870  Biso   1.000  H
  C1423    1.0000 0.41140  0.02746  0.89511  Biso   1.000  C
  H876     1.0000 0.40840  0.01890  0.90690  Biso   1.000  H
  C1424    1.0000 0.41699  0.98237  0.86138  Biso   1.000  C
  H877     1.0000 0.41590  0.99300  0.85110  Biso   1.000  H
  C1425    1.0000 0.43460  0.97060  0.86166  Biso   1.000  C
  H878     1.0000 0.44550  0.97310  0.85190  Biso   1.000  H
  C1426    1.0000 0.43640  0.95470  0.87667  Biso   1.000  C
  H879     1.0000 0.44840  0.94590  0.87710  Biso   1.000  H
  C1427    1.0000 0.42016  0.95217  0.89076  Biso   1.000  C
  C1428    1.0000 0.40269  0.96498  0.88915  Biso   1.000  C
  H880     1.0000 0.39150  0.96300  0.89870  Biso   1.000  H
  C1429    1.0000 0.42092  0.93559  0.90698  Biso   1.000  C
  C1430    1.0000 0.37389  0.99941  0.92522  Biso   1.000  C
  N541     1.0000 0.38308  0.09096  0.76475  Biso   1.000  N
  N542     1.0000 0.47554  0.11285  0.89301  Biso   1.000  N
  N543     1.0000 0.48449  0.12503  0.84758  Biso   1.000  N
  N544     1.0000 0.43909  0.07960  0.84418  Biso   1.000  N
  N545     1.0000 0.42975  0.08966  0.80971  Biso   1.000  N
  N546     1.0000 0.41237  0.06113  0.82613  Biso   1.000  N
  N547     1.0000 0.39925  0.02568  0.87815  Biso   1.000  N
  N548     1.0000 0.37324  0.00119  0.90762  Biso   1.000  N
  N549     1.0000 0.40103  0.97991  0.87476  Biso   1.000  N
  N550     1.0000 0.43603  0.92169  0.90572  Biso   1.000  N
  S109     1.0000 0.45537  0.08696  0.92188  Biso   1.000  S
  S110     1.0000 0.37654  0.99784  0.95072  Biso   1.000  S
  C1431    1.0000 0.39742  0.59028  0.28011  Biso   1.000  C
  H881     1.0000 0.40560  0.60240  0.28270  Biso   1.000  H
  C1432    1.0000 0.40086  0.57258  0.29250  Biso   1.000  C
  C1433    1.0000 0.38928  0.55477  0.28862  Biso   1.000  C
  H882     1.0000 0.39080  0.54260  0.29700  Biso   1.000  H
  C1434    1.0000 0.37518  0.55514  0.27190  Biso   1.000  C
  H883     1.0000 0.36760  0.54290  0.26820  Biso   1.000  H
  C1435    1.0000 0.37242  0.57314  0.26093  Biso   1.000  C
  H884     1.0000 0.36240  0.57320  0.24990  Biso   1.000  H
  C1436    1.0000 0.46662  0.60226  0.40467  Biso   1.000  C
  C1437    1.0000 0.48679  0.63852  0.33157  Biso   1.000  C
  H885     1.0000 0.49680  0.64940  0.33290  Biso   1.000  H
  C1438    1.0000 0.47538  0.63740  0.31334  Biso   1.000  C
  H886     1.0000 0.47800  0.64690  0.30220  Biso   1.000  H
  C1439    1.0000 0.45993  0.62221  0.31142  Biso   1.000  C
  H887     1.0000 0.45130  0.62160  0.29930  Biso   1.000  H
  C1440    1.0000 0.45751  0.60790  0.32774  Biso   1.000  C
  C1441    1.0000 0.46999  0.60974  0.34528  Biso   1.000  C
  H888     1.0000 0.46830  0.59980  0.35620  Biso   1.000  H
  C1442    1.0000 0.44123  0.59132  0.32718  Biso   1.000  C
  C1443    1.0000 0.41539  0.57433  0.31030  Biso   1.000  C
  C1444    1.0000 0.42411  0.56489  0.34316  Biso   1.000  C
  C1445    1.0000 0.40399  0.53768  0.36178  Biso   1.000  C
  H889     1.0000 0.39580  0.53630  0.34940  Biso   1.000  H
  C1446    1.0000 0.42048  0.55221  0.36185  Biso   1.000  C
  C1447    1.0000 0.43265  0.55411  0.37960  Biso   1.000  C
  H890     1.0000 0.44380  0.56400  0.38030  Biso   1.000  H
  C1448    1.0000 0.42808  0.54109  0.39642  Biso   1.000  C
  H891     1.0000 0.43640  0.54160  0.40870  Biso   1.000  H
  C1449    1.0000 0.41140  0.52746  0.39511  Biso   1.000  C
  H892     1.0000 0.40840  0.51890  0.40690  Biso   1.000  H
  C1450    1.0000 0.41699  0.48237  0.36138  Biso   1.000  C
  H893     1.0000 0.41590  0.49300  0.35110  Biso   1.000  H
  C1451    1.0000 0.43460  0.47060  0.36166  Biso   1.000  C
  H894     1.0000 0.44550  0.47310  0.35190  Biso   1.000  H
  C1452    1.0000 0.43640  0.45470  0.37667  Biso   1.000  C
  H895     1.0000 0.44840  0.44590  0.37710  Biso   1.000  H
  C1453    1.0000 0.42016  0.45217  0.39076  Biso   1.000  C
  C1454    1.0000 0.40269  0.46498  0.38915  Biso   1.000  C
  H896     1.0000 0.39150  0.46300  0.39870  Biso   1.000  H
  C1455    1.0000 0.42092  0.43559  0.40698  Biso   1.000  C
  C1456    1.0000 0.37389  0.49941  0.42522  Biso   1.000  C
  N551     1.0000 0.38308  0.59096  0.26475  Biso   1.000  N
  N552     1.0000 0.47554  0.61285  0.39301  Biso   1.000  N
  N553     1.0000 0.48449  0.62503  0.34758  Biso   1.000  N
  N554     1.0000 0.43909  0.57960  0.34418  Biso   1.000  N
  N555     1.0000 0.42975  0.58966  0.30971  Biso   1.000  N
  N556     1.0000 0.41237  0.56113  0.32613  Biso   1.000  N
  N557     1.0000 0.39925  0.52568  0.37815  Biso   1.000  N
  N558     1.0000 0.37324  0.50119  0.40762  Biso   1.000  N
  N559     1.0000 0.40103  0.47991  0.37476  Biso   1.000  N
  N560     1.0000 0.43603  0.42169  0.40572  Biso   1.000  N
  S111     1.0000 0.45537  0.58696  0.42188  Biso   1.000  S
  S112     1.0000 0.37654  0.49784  0.45072  Biso   1.000  S
  C1457    1.0000 0.85258  0.59028  0.96989  Biso   1.000  C
  H897     1.0000 0.84440  0.60240  0.96730  Biso   1.000  H
  C1458    1.0000 0.84914  0.57258  0.95750  Biso   1.000  C
  C1459    1.0000 0.86072  0.55477  0.96138  Biso   1.000  C
  H898     1.0000 0.85920  0.54260  0.95300  Biso   1.000  H
  C1460    1.0000 0.87482  0.55514  0.97810  Biso   1.000  C
  H899     1.0000 0.88240  0.54290  0.98180  Biso   1.000  H
  C1461    1.0000 0.87758  0.57314  0.98907  Biso   1.000  C
  H900     1.0000 0.88760  0.57320  0.00010  Biso   1.000  H
  C1462    1.0000 0.78338  0.60226  0.84533  Biso   1.000  C
  C1463    1.0000 0.76321  0.63852  0.91843  Biso   1.000  C
  H901     1.0000 0.75320  0.64940  0.91710  Biso   1.000  H
  C1464    1.0000 0.77462  0.63740  0.93666  Biso   1.000  C
  H902     1.0000 0.77200  0.64690  0.94780  Biso   1.000  H
  C1465    1.0000 0.79007  0.62221  0.93858  Biso   1.000  C
  H903     1.0000 0.79870  0.62160  0.95070  Biso   1.000  H
  C1466    1.0000 0.79249  0.60790  0.92226  Biso   1.000  C
  C1467    1.0000 0.78001  0.60974  0.90472  Biso   1.000  C
  H904     1.0000 0.78170  0.59980  0.89380  Biso   1.000  H
  C1468    1.0000 0.80877  0.59132  0.92282  Biso   1.000  C
  C1469    1.0000 0.83461  0.57433  0.93970  Biso   1.000  C
  C1470    1.0000 0.82589  0.56489  0.90684  Biso   1.000  C
  C1471    1.0000 0.84601  0.53768  0.88822  Biso   1.000  C
  H905     1.0000 0.85420  0.53630  0.90060  Biso   1.000  H
  C1472    1.0000 0.82952  0.55221  0.88815  Biso   1.000  C
  C1473    1.0000 0.81735  0.55411  0.87040  Biso   1.000  C
  H906     1.0000 0.80620  0.56400  0.86970  Biso   1.000  H
  C1474    1.0000 0.82192  0.54109  0.85358  Biso   1.000  C
  H907     1.0000 0.81360  0.54160  0.84130  Biso   1.000  H
  C1475    1.0000 0.83860  0.52746  0.85489  Biso   1.000  C
  H908     1.0000 0.84160  0.51890  0.84310  Biso   1.000  H
  C1476    1.0000 0.83301  0.48237  0.88862  Biso   1.000  C
  H909     1.0000 0.83410  0.49300  0.89890  Biso   1.000  H
  C1477    1.0000 0.81540  0.47060  0.88834  Biso   1.000  C
  H910     1.0000 0.80450  0.47310  0.89810  Biso   1.000  H
  C1478    1.0000 0.81360  0.45470  0.87333  Biso   1.000  C
  H911     1.0000 0.80160  0.44590  0.87290  Biso   1.000  H
  C1479    1.0000 0.82984  0.45217  0.85924  Biso   1.000  C
  C1480    1.0000 0.84731  0.46498  0.86085  Biso   1.000  C
  H912     1.0000 0.85850  0.46300  0.85130  Biso   1.000  H
  C1481    1.0000 0.82908  0.43559  0.84302  Biso   1.000  C
  C1482    1.0000 0.87611  0.49941  0.82478  Biso   1.000  C
  N561     1.0000 0.86692  0.59096  0.98525  Biso   1.000  N
  N562     1.0000 0.77446  0.61285  0.85699  Biso   1.000  N
  N563     1.0000 0.76551  0.62503  0.90242  Biso   1.000  N
  N564     1.0000 0.81091  0.57960  0.90582  Biso   1.000  N
  N565     1.0000 0.82025  0.58966  0.94029  Biso   1.000  N
  N566     1.0000 0.83763  0.56113  0.92387  Biso   1.000  N
  N567     1.0000 0.85075  0.52568  0.87185  Biso   1.000  N
  N568     1.0000 0.87676  0.50119  0.84238  Biso   1.000  N
  N569     1.0000 0.84897  0.47991  0.87524  Biso   1.000  N
  N570     1.0000 0.81397  0.42169  0.84428  Biso   1.000  N
  S113     1.0000 0.79463  0.58696  0.82812  Biso   1.000  S
  S114     1.0000 0.87346  0.49784  0.79928  Biso   1.000  S
  C1483    1.0000 0.85258  0.09028  0.46989  Biso   1.000  C
  H913     1.0000 0.84440  0.10240  0.46730  Biso   1.000  H
  C1484    1.0000 0.84914  0.07258  0.45750  Biso   1.000  C
  C1485    1.0000 0.86072  0.05477  0.46138  Biso   1.000  C
  H914     1.0000 0.85920  0.04260  0.45300  Biso   1.000  H
  C1486    1.0000 0.87482  0.05514  0.47810  Biso   1.000  C
  H915     1.0000 0.88240  0.04290  0.48180  Biso   1.000  H
  C1487    1.0000 0.87758  0.07314  0.48907  Biso   1.000  C
  H916     1.0000 0.88760  0.07320  0.50010  Biso   1.000  H
  C1488    1.0000 0.78338  0.10226  0.34533  Biso   1.000  C
  C1489    1.0000 0.76321  0.13852  0.41843  Biso   1.000  C
  H917     1.0000 0.75320  0.14940  0.41710  Biso   1.000  H
  C1490    1.0000 0.77462  0.13740  0.43666  Biso   1.000  C
  H918     1.0000 0.77200  0.14690  0.44780  Biso   1.000  H
  C1491    1.0000 0.79007  0.12221  0.43858  Biso   1.000  C
  H919     1.0000 0.79870  0.12160  0.45070  Biso   1.000  H
  C1492    1.0000 0.79249  0.10790  0.42226  Biso   1.000  C
  C1493    1.0000 0.78001  0.10974  0.40472  Biso   1.000  C
  H920     1.0000 0.78170  0.09980  0.39380  Biso   1.000  H
  C1494    1.0000 0.80877  0.09132  0.42282  Biso   1.000  C
  C1495    1.0000 0.83461  0.07433  0.43970  Biso   1.000  C
  C1496    1.0000 0.82589  0.06489  0.40684  Biso   1.000  C
  C1497    1.0000 0.84601  0.03768  0.38822  Biso   1.000  C
  H921     1.0000 0.85420  0.03630  0.40060  Biso   1.000  H
  C1498    1.0000 0.82952  0.05221  0.38815  Biso   1.000  C
  C1499    1.0000 0.81735  0.05411  0.37040  Biso   1.000  C
  H922     1.0000 0.80620  0.06400  0.36970  Biso   1.000  H
  C1500    1.0000 0.82192  0.04109  0.35358  Biso   1.000  C
  H923     1.0000 0.81360  0.04160  0.34130  Biso   1.000  H
  C1501    1.0000 0.83860  0.02746  0.35489  Biso   1.000  C
  H924     1.0000 0.84160  0.01890  0.34310  Biso   1.000  H
  C1502    1.0000 0.83301  0.98237  0.38862  Biso   1.000  C
  H925     1.0000 0.83410  0.99300  0.39890  Biso   1.000  H
  C1503    1.0000 0.81540  0.97060  0.38834  Biso   1.000  C
  H926     1.0000 0.80450  0.97310  0.39810  Biso   1.000  H
  C1504    1.0000 0.81360  0.95470  0.37333  Biso   1.000  C
  H927     1.0000 0.80160  0.94590  0.37290  Biso   1.000  H
  C1505    1.0000 0.82984  0.95217  0.35924  Biso   1.000  C
  C1506    1.0000 0.84731  0.96498  0.36085  Biso   1.000  C
  H928     1.0000 0.85850  0.96300  0.35130  Biso   1.000  H
  C1507    1.0000 0.82908  0.93559  0.34302  Biso   1.000  C
  C1508    1.0000 0.87611  0.99941  0.32478  Biso   1.000  C
  N571     1.0000 0.86692  0.09096  0.48525  Biso   1.000  N
  N572     1.0000 0.77446  0.11285  0.35699  Biso   1.000  N
  N573     1.0000 0.76551  0.12503  0.40242  Biso   1.000  N
  N574     1.0000 0.81091  0.07960  0.40582  Biso   1.000  N
  N575     1.0000 0.82025  0.08966  0.44029  Biso   1.000  N
  N576     1.0000 0.83763  0.06113  0.42387  Biso   1.000  N
  N577     1.0000 0.85075  0.02568  0.37185  Biso   1.000  N
  N578     1.0000 0.87676  0.00119  0.34238  Biso   1.000  N
  N579     1.0000 0.84897  0.97991  0.37524  Biso   1.000  N
  N580     1.0000 0.81397  0.92169  0.34428  Biso   1.000  N
  S115     1.0000 0.79463  0.08696  0.32812  Biso   1.000  S
  S116     1.0000 0.87346  0.99784  0.29928  Biso   1.000  S
  C1509    1.0000 0.35258  0.59028  0.46989  Biso   1.000  C
  H929     1.0000 0.34440  0.60240  0.46730  Biso   1.000  H
  C1510    1.0000 0.34914  0.57258  0.45750  Biso   1.000  C
  C1511    1.0000 0.36072  0.55477  0.46138  Biso   1.000  C
  H930     1.0000 0.35920  0.54260  0.45300  Biso   1.000  H
  C1512    1.0000 0.37482  0.55514  0.47810  Biso   1.000  C
  H931     1.0000 0.38240  0.54290  0.48180  Biso   1.000  H
  C1513    1.0000 0.37758  0.57314  0.48907  Biso   1.000  C
  H932     1.0000 0.38760  0.57320  0.50010  Biso   1.000  H
  C1514    1.0000 0.28338  0.60226  0.34533  Biso   1.000  C
  C1515    1.0000 0.26321  0.63852  0.41843  Biso   1.000  C
  H933     1.0000 0.25320  0.64940  0.41710  Biso   1.000  H
  C1516    1.0000 0.27462  0.63740  0.43666  Biso   1.000  C
  H934     1.0000 0.27200  0.64690  0.44780  Biso   1.000  H
  C1517    1.0000 0.29007  0.62221  0.43858  Biso   1.000  C
  H935     1.0000 0.29870  0.62160  0.45070  Biso   1.000  H
  C1518    1.0000 0.29249  0.60790  0.42226  Biso   1.000  C
  C1519    1.0000 0.28001  0.60974  0.40472  Biso   1.000  C
  H936     1.0000 0.28170  0.59980  0.39380  Biso   1.000  H
  C1520    1.0000 0.30877  0.59132  0.42282  Biso   1.000  C
  C1521    1.0000 0.33461  0.57433  0.43970  Biso   1.000  C
  C1522    1.0000 0.32589  0.56489  0.40684  Biso   1.000  C
  C1523    1.0000 0.34601  0.53768  0.38822  Biso   1.000  C
  H937     1.0000 0.35420  0.53630  0.40060  Biso   1.000  H
  C1524    1.0000 0.32952  0.55221  0.38815  Biso   1.000  C
  C1525    1.0000 0.31735  0.55411  0.37040  Biso   1.000  C
  H938     1.0000 0.30620  0.56400  0.36970  Biso   1.000  H
  C1526    1.0000 0.32192  0.54109  0.35358  Biso   1.000  C
  H939     1.0000 0.31360  0.54160  0.34130  Biso   1.000  H
  C1527    1.0000 0.33860  0.52746  0.35489  Biso   1.000  C
  H940     1.0000 0.34160  0.51890  0.34310  Biso   1.000  H
  C1528    1.0000 0.33301  0.48237  0.38862  Biso   1.000  C
  H941     1.0000 0.33410  0.49300  0.39890  Biso   1.000  H
  C1529    1.0000 0.31540  0.47060  0.38834  Biso   1.000  C
  H942     1.0000 0.30450  0.47310  0.39810  Biso   1.000  H
  C1530    1.0000 0.31360  0.45470  0.37333  Biso   1.000  C
  H943     1.0000 0.30160  0.44590  0.37290  Biso   1.000  H
  C1531    1.0000 0.32984  0.45217  0.35924  Biso   1.000  C
  C1532    1.0000 0.34731  0.46498  0.36085  Biso   1.000  C
  H944     1.0000 0.35850  0.46300  0.35130  Biso   1.000  H
  C1533    1.0000 0.32908  0.43559  0.34302  Biso   1.000  C
  C1534    1.0000 0.37611  0.49941  0.32478  Biso   1.000  C
  N581     1.0000 0.36692  0.59096  0.48525  Biso   1.000  N
  N582     1.0000 0.27446  0.61285  0.35699  Biso   1.000  N
  N583     1.0000 0.26551  0.62503  0.40242  Biso   1.000  N
  N584     1.0000 0.31091  0.57960  0.40582  Biso   1.000  N
  N585     1.0000 0.32025  0.58966  0.44029  Biso   1.000  N
  N586     1.0000 0.33763  0.56113  0.42387  Biso   1.000  N
  N587     1.0000 0.35075  0.52568  0.37185  Biso   1.000  N
  N588     1.0000 0.37676  0.50119  0.34238  Biso   1.000  N
  N589     1.0000 0.34897  0.47991  0.37524  Biso   1.000  N
  N590     1.0000 0.31397  0.42169  0.34428  Biso   1.000  N
  S117     1.0000 0.29463  0.58696  0.32812  Biso   1.000  S
  S118     1.0000 0.37346  0.49784  0.29928  Biso   1.000  S
  C1535    1.0000 0.35258  0.09028  0.96989  Biso   1.000  C
  H945     1.0000 0.34440  0.10240  0.96730  Biso   1.000  H
  C1536    1.0000 0.34914  0.07258  0.95750  Biso   1.000  C
  C1537    1.0000 0.36072  0.05477  0.96138  Biso   1.000  C
  H946     1.0000 0.35920  0.04260  0.95300  Biso   1.000  H
  C1538    1.0000 0.37482  0.05514  0.97810  Biso   1.000  C
  H947     1.0000 0.38240  0.04290  0.98180  Biso   1.000  H
  C1539    1.0000 0.37758  0.07314  0.98907  Biso   1.000  C
  H948     1.0000 0.38760  0.07320  0.00010  Biso   1.000  H
  C1540    1.0000 0.28338  0.10226  0.84533  Biso   1.000  C
  C1541    1.0000 0.26321  0.13852  0.91843  Biso   1.000  C
  H949     1.0000 0.25320  0.14940  0.91710  Biso   1.000  H
  C1542    1.0000 0.27462  0.13740  0.93666  Biso   1.000  C
  H950     1.0000 0.27200  0.14690  0.94780  Biso   1.000  H
  C1543    1.0000 0.29007  0.12221  0.93858  Biso   1.000  C
  H951     1.0000 0.29870  0.12160  0.95070  Biso   1.000  H
  C1544    1.0000 0.29249  0.10790  0.92226  Biso   1.000  C
  C1545    1.0000 0.28001  0.10974  0.90472  Biso   1.000  C
  H952     1.0000 0.28170  0.09980  0.89380  Biso   1.000  H
  C1546    1.0000 0.30877  0.09132  0.92282  Biso   1.000  C
  C1547    1.0000 0.33461  0.07433  0.93970  Biso   1.000  C
  C1548    1.0000 0.32589  0.06489  0.90684  Biso   1.000  C
  C1549    1.0000 0.34601  0.03768  0.88822  Biso   1.000  C
  H953     1.0000 0.35420  0.03630  0.90060  Biso   1.000  H
  C1550    1.0000 0.32952  0.05221  0.88815  Biso   1.000  C
  C1551    1.0000 0.31735  0.05411  0.87040  Biso   1.000  C
  H954     1.0000 0.30620  0.06400  0.86970  Biso   1.000  H
  C1552    1.0000 0.32192  0.04109  0.85358  Biso   1.000  C
  H955     1.0000 0.31360  0.04160  0.84130  Biso   1.000  H
  C1553    1.0000 0.33860  0.02746  0.85489  Biso   1.000  C
  H956     1.0000 0.34160  0.01890  0.84310  Biso   1.000  H
  C1554    1.0000 0.33301  0.98237  0.88862  Biso   1.000  C
  H957     1.0000 0.33410  0.99300  0.89890  Biso   1.000  H
  C1555    1.0000 0.31540  0.97060  0.88834  Biso   1.000  C
  H958     1.0000 0.30450  0.97310  0.89810  Biso   1.000  H
  C1556    1.0000 0.31360  0.95470  0.87333  Biso   1.000  C
  H959     1.0000 0.30160  0.94590  0.87290  Biso   1.000  H
  C1557    1.0000 0.32984  0.95217  0.85924  Biso   1.000  C
  C1558    1.0000 0.34731  0.96498  0.86085  Biso   1.000  C
  H960     1.0000 0.35850  0.96300  0.85130  Biso   1.000  H
  C1559    1.0000 0.32908  0.93559  0.84302  Biso   1.000  C
  C1560    1.0000 0.37611  0.99941  0.82478  Biso   1.000  C
  N591     1.0000 0.36692  0.09096  0.98525  Biso   1.000  N
  N592     1.0000 0.27446  0.11285  0.85699  Biso   1.000  N
  N593     1.0000 0.26551  0.12503  0.90242  Biso   1.000  N
  N594     1.0000 0.31091  0.07960  0.90582  Biso   1.000  N
  N595     1.0000 0.32025  0.08966  0.94029  Biso   1.000  N
  N596     1.0000 0.33763  0.06113  0.92387  Biso   1.000  N
  N597     1.0000 0.35075  0.02568  0.87185  Biso   1.000  N
  N598     1.0000 0.37676  0.00119  0.84238  Biso   1.000  N
  N599     1.0000 0.34897  0.97991  0.87524  Biso   1.000  N
  N600     1.0000 0.31397  0.92169  0.84428  Biso   1.000  N
  S119     1.0000 0.29463  0.08696  0.82812  Biso   1.000  S
  S120     1.0000 0.37346  0.99784  0.79928  Biso   1.000  S
  C1561    1.0000 0.39742  0.15972  0.46989  Biso   1.000  C
  H961     1.0000 0.40560  0.14760  0.46730  Biso   1.000  H
  C1562    1.0000 0.40086  0.17742  0.45750  Biso   1.000  C
  C1563    1.0000 0.38928  0.19523  0.46138  Biso   1.000  C
  H962     1.0000 0.39080  0.20740  0.45300  Biso   1.000  H
  C1564    1.0000 0.37518  0.19486  0.47810  Biso   1.000  C
  H963     1.0000 0.36760  0.20710  0.48180  Biso   1.000  H
  C1565    1.0000 0.37242  0.17686  0.48907  Biso   1.000  C
  H964     1.0000 0.36240  0.17680  0.50010  Biso   1.000  H
  C1566    1.0000 0.46662  0.14774  0.34533  Biso   1.000  C
  C1567    1.0000 0.48679  0.11148  0.41843  Biso   1.000  C
  H965     1.0000 0.49680  0.10060  0.41710  Biso   1.000  H
  C1568    1.0000 0.47538  0.11260  0.43666  Biso   1.000  C
  H966     1.0000 0.47800  0.10310  0.44780  Biso   1.000  H
  C1569    1.0000 0.45993  0.12779  0.43858  Biso   1.000  C
  H967     1.0000 0.45130  0.12840  0.45070  Biso   1.000  H
  C1570    1.0000 0.45751  0.14210  0.42226  Biso   1.000  C
  C1571    1.0000 0.46999  0.14026  0.40472  Biso   1.000  C
  H968     1.0000 0.46830  0.15020  0.39380  Biso   1.000  H
  C1572    1.0000 0.44123  0.15868  0.42282  Biso   1.000  C
  C1573    1.0000 0.41539  0.17567  0.43970  Biso   1.000  C
  C1574    1.0000 0.42411  0.18511  0.40684  Biso   1.000  C
  C1575    1.0000 0.40399  0.21232  0.38822  Biso   1.000  C
  H969     1.0000 0.39580  0.21370  0.40060  Biso   1.000  H
  C1576    1.0000 0.42048  0.19779  0.38815  Biso   1.000  C
  C1577    1.0000 0.43265  0.19589  0.37040  Biso   1.000  C
  H970     1.0000 0.44380  0.18600  0.36970  Biso   1.000  H
  C1578    1.0000 0.42808  0.20891  0.35358  Biso   1.000  C
  H971     1.0000 0.43640  0.20840  0.34130  Biso   1.000  H
  C1579    1.0000 0.41140  0.22254  0.35489  Biso   1.000  C
  H972     1.0000 0.40840  0.23110  0.34310  Biso   1.000  H
  C1580    1.0000 0.41699  0.26763  0.38862  Biso   1.000  C
  H973     1.0000 0.41590  0.25700  0.39890  Biso   1.000  H
  C1581    1.0000 0.43460  0.27940  0.38834  Biso   1.000  C
  H974     1.0000 0.44550  0.27690  0.39810  Biso   1.000  H
  C1582    1.0000 0.43640  0.29530  0.37333  Biso   1.000  C
  H975     1.0000 0.44840  0.30410  0.37290  Biso   1.000  H
  C1583    1.0000 0.42016  0.29783  0.35924  Biso   1.000  C
  C1584    1.0000 0.40269  0.28502  0.36085  Biso   1.000  C
  H976     1.0000 0.39150  0.28700  0.35130  Biso   1.000  H
  C1585    1.0000 0.42092  0.31441  0.34302  Biso   1.000  C
  C1586    1.0000 0.37389  0.25059  0.32478  Biso   1.000  C
  N601     1.0000 0.38308  0.15904  0.48525  Biso   1.000  N
  N602     1.0000 0.47554  0.13715  0.35699  Biso   1.000  N
  N603     1.0000 0.48449  0.12497  0.40242  Biso   1.000  N
  N604     1.0000 0.43909  0.17040  0.40582  Biso   1.000  N
  N605     1.0000 0.42975  0.16034  0.44029  Biso   1.000  N
  N606     1.0000 0.41237  0.18887  0.42387  Biso   1.000  N
  N607     1.0000 0.39925  0.22432  0.37185  Biso   1.000  N
  N608     1.0000 0.37324  0.24881  0.34238  Biso   1.000  N
  N609     1.0000 0.40103  0.27009  0.37524  Biso   1.000  N
  N610     1.0000 0.43603  0.32831  0.34428  Biso   1.000  N
  S121     1.0000 0.45537  0.16304  0.32812  Biso   1.000  S
  S122     1.0000 0.37654  0.25216  0.29928  Biso   1.000  S
  C1587    1.0000 0.39742  0.65972  0.96989  Biso   1.000  C
  H977     1.0000 0.40560  0.64760  0.96730  Biso   1.000  H
  C1588    1.0000 0.40086  0.67742  0.95750  Biso   1.000  C
  C1589    1.0000 0.38928  0.69523  0.96138  Biso   1.000  C
  H978     1.0000 0.39080  0.70740  0.95300  Biso   1.000  H
  C1590    1.0000 0.37518  0.69486  0.97810  Biso   1.000  C
  H979     1.0000 0.36760  0.70710  0.98180  Biso   1.000  H
  C1591    1.0000 0.37242  0.67686  0.98907  Biso   1.000  C
  H980     1.0000 0.36240  0.67680  0.00010  Biso   1.000  H
  C1592    1.0000 0.46662  0.64774  0.84533  Biso   1.000  C
  C1593    1.0000 0.48679  0.61148  0.91843  Biso   1.000  C
  H981     1.0000 0.49680  0.60060  0.91710  Biso   1.000  H
  C1594    1.0000 0.47538  0.61260  0.93666  Biso   1.000  C
  H982     1.0000 0.47800  0.60310  0.94780  Biso   1.000  H
  C1595    1.0000 0.45993  0.62779  0.93858  Biso   1.000  C
  H983     1.0000 0.45130  0.62840  0.95070  Biso   1.000  H
  C1596    1.0000 0.45751  0.64210  0.92226  Biso   1.000  C
  C1597    1.0000 0.46999  0.64026  0.90472  Biso   1.000  C
  H984     1.0000 0.46830  0.65020  0.89380  Biso   1.000  H
  C1598    1.0000 0.44123  0.65868  0.92282  Biso   1.000  C
  C1599    1.0000 0.41539  0.67567  0.93970  Biso   1.000  C
  C1600    1.0000 0.42411  0.68511  0.90684  Biso   1.000  C
  C1601    1.0000 0.40399  0.71232  0.88822  Biso   1.000  C
  H985     1.0000 0.39580  0.71370  0.90060  Biso   1.000  H
  C1602    1.0000 0.42048  0.69779  0.88815  Biso   1.000  C
  C1603    1.0000 0.43265  0.69589  0.87040  Biso   1.000  C
  H986     1.0000 0.44380  0.68600  0.86970  Biso   1.000  H
  C1604    1.0000 0.42808  0.70891  0.85358  Biso   1.000  C
  H987     1.0000 0.43640  0.70840  0.84130  Biso   1.000  H
  C1605    1.0000 0.41140  0.72254  0.85489  Biso   1.000  C
  H988     1.0000 0.40840  0.73110  0.84310  Biso   1.000  H
  C1606    1.0000 0.41699  0.76763  0.88862  Biso   1.000  C
  H989     1.0000 0.41590  0.75700  0.89890  Biso   1.000  H
  C1607    1.0000 0.43460  0.77940  0.88834  Biso   1.000  C
  H990     1.0000 0.44550  0.77690  0.89810  Biso   1.000  H
  C1608    1.0000 0.43640  0.79530  0.87333  Biso   1.000  C
  H991     1.0000 0.44840  0.80410  0.87290  Biso   1.000  H
  C1609    1.0000 0.42016  0.79783  0.85924  Biso   1.000  C
  C1610    1.0000 0.40269  0.78502  0.86085  Biso   1.000  C
  H992     1.0000 0.39150  0.78700  0.85130  Biso   1.000  H
  C1611    1.0000 0.42092  0.81441  0.84302  Biso   1.000  C
  C1612    1.0000 0.37389  0.75059  0.82478  Biso   1.000  C
  N611     1.0000 0.38308  0.65904  0.98525  Biso   1.000  N
  N612     1.0000 0.47554  0.63715  0.85699  Biso   1.000  N
  N613     1.0000 0.48449  0.62497  0.90242  Biso   1.000  N
  N614     1.0000 0.43909  0.67040  0.90582  Biso   1.000  N
  N615     1.0000 0.42975  0.66034  0.94029  Biso   1.000  N
  N616     1.0000 0.41237  0.68887  0.92387  Biso   1.000  N
  N617     1.0000 0.39925  0.72432  0.87185  Biso   1.000  N
  N618     1.0000 0.37324  0.74881  0.84238  Biso   1.000  N
  N619     1.0000 0.40103  0.77009  0.87524  Biso   1.000  N
  N620     1.0000 0.43603  0.82831  0.84428  Biso   1.000  N
  S123     1.0000 0.45537  0.66304  0.82812  Biso   1.000  S
  S124     1.0000 0.37654  0.75216  0.79928  Biso   1.000  S
  C1613    1.0000 0.89742  0.15972  0.96989  Biso   1.000  C
  H993     1.0000 0.90560  0.14760  0.96730  Biso   1.000  H
  C1614    1.0000 0.90086  0.17742  0.95750  Biso   1.000  C
  C1615    1.0000 0.88928  0.19523  0.96138  Biso   1.000  C
  H994     1.0000 0.89080  0.20740  0.95300  Biso   1.000  H
  C1616    1.0000 0.87518  0.19486  0.97810  Biso   1.000  C
  H995     1.0000 0.86760  0.20710  0.98180  Biso   1.000  H
  C1617    1.0000 0.87242  0.17686  0.98907  Biso   1.000  C
  H996     1.0000 0.86240  0.17680  0.00010  Biso   1.000  H
  C1618    1.0000 0.96662  0.14774  0.84533  Biso   1.000  C
  C1619    1.0000 0.98679  0.11148  0.91843  Biso   1.000  C
  H997     1.0000 0.99680  0.10060  0.91710  Biso   1.000  H
  C1620    1.0000 0.97538  0.11260  0.93666  Biso   1.000  C
  H998     1.0000 0.97800  0.10310  0.94780  Biso   1.000  H
  C1621    1.0000 0.95993  0.12779  0.93858  Biso   1.000  C
  H999     1.0000 0.95130  0.12840  0.95070  Biso   1.000  H
  C1622    1.0000 0.95751  0.14210  0.92226  Biso   1.000  C
  C1623    1.0000 0.96999  0.14026  0.90472  Biso   1.000  C
  H1000    1.0000 0.96830  0.15020  0.89380  Biso   1.000  H
  C1624    1.0000 0.94123  0.15868  0.92282  Biso   1.000  C
  C1625    1.0000 0.91539  0.17567  0.93970  Biso   1.000  C
  C1626    1.0000 0.92411  0.18511  0.90684  Biso   1.000  C
  C1627    1.0000 0.90399  0.21232  0.88822  Biso   1.000  C
  H1001    1.0000 0.89580  0.21370  0.90060  Biso   1.000  H
  C1628    1.0000 0.92048  0.19779  0.88815  Biso   1.000  C
  C1629    1.0000 0.93265  0.19589  0.87040  Biso   1.000  C
  H1002    1.0000 0.94380  0.18600  0.86970  Biso   1.000  H
  C1630    1.0000 0.92808  0.20891  0.85358  Biso   1.000  C
  H1003    1.0000 0.93640  0.20840  0.84130  Biso   1.000  H
  C1631    1.0000 0.91140  0.22254  0.85489  Biso   1.000  C
  H1004    1.0000 0.90840  0.23110  0.84310  Biso   1.000  H
  C1632    1.0000 0.91699  0.26763  0.88862  Biso   1.000  C
  H1005    1.0000 0.91590  0.25700  0.89890  Biso   1.000  H
  C1633    1.0000 0.93460  0.27940  0.88834  Biso   1.000  C
  H1006    1.0000 0.94550  0.27690  0.89810  Biso   1.000  H
  C1634    1.0000 0.93640  0.29530  0.87333  Biso   1.000  C
  H1007    1.0000 0.94840  0.30410  0.87290  Biso   1.000  H
  C1635    1.0000 0.92016  0.29783  0.85924  Biso   1.000  C
  C1636    1.0000 0.90269  0.28502  0.86085  Biso   1.000  C
  H1008    1.0000 0.89150  0.28700  0.85130  Biso   1.000  H
  C1637    1.0000 0.92092  0.31441  0.84302  Biso   1.000  C
  C1638    1.0000 0.87389  0.25059  0.82478  Biso   1.000  C
  N621     1.0000 0.88308  0.15904  0.98525  Biso   1.000  N
  N622     1.0000 0.97554  0.13715  0.85699  Biso   1.000  N
  N623     1.0000 0.98449  0.12497  0.90242  Biso   1.000  N
  N624     1.0000 0.93909  0.17040  0.90582  Biso   1.000  N
  N625     1.0000 0.92975  0.16034  0.94029  Biso   1.000  N
  N626     1.0000 0.91237  0.18887  0.92387  Biso   1.000  N
  N627     1.0000 0.89925  0.22432  0.87185  Biso   1.000  N
  N628     1.0000 0.87324  0.24881  0.84238  Biso   1.000  N
  N629     1.0000 0.90103  0.27009  0.87524  Biso   1.000  N
  N630     1.0000 0.93603  0.32831  0.84428  Biso   1.000  N
  S125     1.0000 0.95537  0.16304  0.82812  Biso   1.000  S
  S126     1.0000 0.87654  0.25216  0.79928  Biso   1.000  S
  C1639    1.0000 0.89742  0.65972  0.46989  Biso   1.000  C
  H1009    1.0000 0.90560  0.64760  0.46730  Biso   1.000  H
  C1640    1.0000 0.90086  0.67742  0.45750  Biso   1.000  C
  C1641    1.0000 0.88928  0.69523  0.46138  Biso   1.000  C
  H1010    1.0000 0.89080  0.70740  0.45300  Biso   1.000  H
  C1642    1.0000 0.87518  0.69486  0.47810  Biso   1.000  C
  H1011    1.0000 0.86760  0.70710  0.48180  Biso   1.000  H
  C1643    1.0000 0.87242  0.67686  0.48907  Biso   1.000  C
  H1012    1.0000 0.86240  0.67680  0.50010  Biso   1.000  H
  C1644    1.0000 0.96662  0.64774  0.34533  Biso   1.000  C
  C1645    1.0000 0.98679  0.61148  0.41843  Biso   1.000  C
  H1013    1.0000 0.99680  0.60060  0.41710  Biso   1.000  H
  C1646    1.0000 0.97538  0.61260  0.43666  Biso   1.000  C
  H1014    1.0000 0.97800  0.60310  0.44780  Biso   1.000  H
  C1647    1.0000 0.95993  0.62779  0.43858  Biso   1.000  C
  H1015    1.0000 0.95130  0.62840  0.45070  Biso   1.000  H
  C1648    1.0000 0.95751  0.64210  0.42226  Biso   1.000  C
  C1649    1.0000 0.96999  0.64026  0.40472  Biso   1.000  C
  H1016    1.0000 0.96830  0.65020  0.39380  Biso   1.000  H
  C1650    1.0000 0.94123  0.65868  0.42282  Biso   1.000  C
  C1651    1.0000 0.91539  0.67567  0.43970  Biso   1.000  C
  C1652    1.0000 0.92411  0.68511  0.40684  Biso   1.000  C
  C1653    1.0000 0.90399  0.71232  0.38822  Biso   1.000  C
  H1017    1.0000 0.89580  0.71370  0.40060  Biso   1.000  H
  C1654    1.0000 0.92048  0.69779  0.38815  Biso   1.000  C
  C1655    1.0000 0.93265  0.69589  0.37040  Biso   1.000  C
  H1018    1.0000 0.94380  0.68600  0.36970  Biso   1.000  H
  C1656    1.0000 0.92808  0.70891  0.35358  Biso   1.000  C
  H1019    1.0000 0.93640  0.70840  0.34130  Biso   1.000  H
  C1657    1.0000 0.91140  0.72254  0.35489  Biso   1.000  C
  H1020    1.0000 0.90840  0.73110  0.34310  Biso   1.000  H
  C1658    1.0000 0.91699  0.76763  0.38862  Biso   1.000  C
  H1021    1.0000 0.91590  0.75700  0.39890  Biso   1.000  H
  C1659    1.0000 0.93460  0.77940  0.38834  Biso   1.000  C
  H1022    1.0000 0.94550  0.77690  0.39810  Biso   1.000  H
  C1660    1.0000 0.93640  0.79530  0.37333  Biso   1.000  C
  H1023    1.0000 0.94840  0.80410  0.37290  Biso   1.000  H
  C1661    1.0000 0.92016  0.79783  0.35924  Biso   1.000  C
  C1662    1.0000 0.90269  0.78502  0.36085  Biso   1.000  C
  H1024    1.0000 0.89150  0.78700  0.35130  Biso   1.000  H
  C1663    1.0000 0.92092  0.81441  0.34302  Biso   1.000  C
  C1664    1.0000 0.87389  0.75059  0.32478  Biso   1.000  C
  N631     1.0000 0.88308  0.65904  0.48525  Biso   1.000  N
  N632     1.0000 0.97554  0.63715  0.35699  Biso   1.000  N
  N633     1.0000 0.98449  0.62497  0.40242  Biso   1.000  N
  N634     1.0000 0.93909  0.67040  0.40582  Biso   1.000  N
  N635     1.0000 0.92975  0.66034  0.44029  Biso   1.000  N
  N636     1.0000 0.91237  0.68887  0.42387  Biso   1.000  N
  N637     1.0000 0.89925  0.72432  0.37185  Biso   1.000  N
  N638     1.0000 0.87324  0.74881  0.34238  Biso   1.000  N
  N639     1.0000 0.90103  0.77009  0.37524  Biso   1.000  N
  N640     1.0000 0.93603  0.82831  0.34428  Biso   1.000  N
  S127     1.0000 0.95537  0.66304  0.32812  Biso   1.000  S
  S128     1.0000 0.87654  0.75216  0.29928  Biso   1.000  S
  C1665    1.0000 0.15972  0.46989  0.39742  Biso   1.000  C
  H1025    1.0000 0.14760  0.46730  0.40560  Biso   1.000  H
  C1666    1.0000 0.17742  0.45750  0.40086  Biso   1.000  C
  C1667    1.0000 0.19523  0.46138  0.38928  Biso   1.000  C
  H1026    1.0000 0.20740  0.45300  0.39080  Biso   1.000  H
  C1668    1.0000 0.19486  0.47810  0.37518  Biso   1.000  C
  H1027    1.0000 0.20710  0.48180  0.36760  Biso   1.000  H
  C1669    1.0000 0.17686  0.48907  0.37242  Biso   1.000  C
  H1028    1.0000 0.17680  0.50010  0.36240  Biso   1.000  H
  C1670    1.0000 0.14774  0.34533  0.46662  Biso   1.000  C
  C1671    1.0000 0.11148  0.41843  0.48679  Biso   1.000  C
  H1029    1.0000 0.10060  0.41710  0.49680  Biso   1.000  H
  C1672    1.0000 0.11260  0.43666  0.47538  Biso   1.000  C
  H1030    1.0000 0.10310  0.44780  0.47800  Biso   1.000  H
  C1673    1.0000 0.12779  0.43858  0.45993  Biso   1.000  C
  H1031    1.0000 0.12840  0.45070  0.45130  Biso   1.000  H
  C1674    1.0000 0.14210  0.42226  0.45751  Biso   1.000  C
  C1675    1.0000 0.14026  0.40472  0.46999  Biso   1.000  C
  H1032    1.0000 0.15020  0.39380  0.46830  Biso   1.000  H
  C1676    1.0000 0.15868  0.42282  0.44123  Biso   1.000  C
  C1677    1.0000 0.17567  0.43970  0.41539  Biso   1.000  C
  C1678    1.0000 0.18511  0.40684  0.42411  Biso   1.000  C
  C1679    1.0000 0.21232  0.38822  0.40399  Biso   1.000  C
  H1033    1.0000 0.21370  0.40060  0.39580  Biso   1.000  H
  C1680    1.0000 0.19779  0.38815  0.42048  Biso   1.000  C
  C1681    1.0000 0.19589  0.37040  0.43265  Biso   1.000  C
  H1034    1.0000 0.18600  0.36970  0.44380  Biso   1.000  H
  C1682    1.0000 0.20891  0.35358  0.42808  Biso   1.000  C
  H1035    1.0000 0.20840  0.34130  0.43640  Biso   1.000  H
  C1683    1.0000 0.22254  0.35489  0.41140  Biso   1.000  C
  H1036    1.0000 0.23110  0.34310  0.40840  Biso   1.000  H
  C1684    1.0000 0.26763  0.38862  0.41699  Biso   1.000  C
  H1037    1.0000 0.25700  0.39890  0.41590  Biso   1.000  H
  C1685    1.0000 0.27940  0.38834  0.43460  Biso   1.000  C
  H1038    1.0000 0.27690  0.39810  0.44550  Biso   1.000  H
  C1686    1.0000 0.29530  0.37333  0.43640  Biso   1.000  C
  H1039    1.0000 0.30410  0.37290  0.44840  Biso   1.000  H
  C1687    1.0000 0.29783  0.35924  0.42016  Biso   1.000  C
  C1688    1.0000 0.28502  0.36085  0.40269  Biso   1.000  C
  H1040    1.0000 0.28700  0.35130  0.39150  Biso   1.000  H
  C1689    1.0000 0.31441  0.34302  0.42092  Biso   1.000  C
  C1690    1.0000 0.25059  0.32478  0.37389  Biso   1.000  C
  N641     1.0000 0.15904  0.48525  0.38308  Biso   1.000  N
  N642     1.0000 0.13715  0.35699  0.47554  Biso   1.000  N
  N643     1.0000 0.12497  0.40242  0.48449  Biso   1.000  N
  N644     1.0000 0.17040  0.40582  0.43909  Biso   1.000  N
  N645     1.0000 0.16034  0.44029  0.42975  Biso   1.000  N
  N646     1.0000 0.18887  0.42387  0.41237  Biso   1.000  N
  N647     1.0000 0.22432  0.37185  0.39925  Biso   1.000  N
  N648     1.0000 0.24881  0.34238  0.37324  Biso   1.000  N
  N649     1.0000 0.27009  0.37524  0.40103  Biso   1.000  N
  N650     1.0000 0.32831  0.34428  0.43603  Biso   1.000  N
  S129     1.0000 0.16304  0.32812  0.45537  Biso   1.000  S
  S130     1.0000 0.25216  0.29928  0.37654  Biso   1.000  S
  C1691    1.0000 0.15972  0.96989  0.89742  Biso   1.000  C
  H1041    1.0000 0.14760  0.96730  0.90560  Biso   1.000  H
  C1692    1.0000 0.17742  0.95750  0.90086  Biso   1.000  C
  C1693    1.0000 0.19523  0.96138  0.88928  Biso   1.000  C
  H1042    1.0000 0.20740  0.95300  0.89080  Biso   1.000  H
  C1694    1.0000 0.19486  0.97810  0.87518  Biso   1.000  C
  H1043    1.0000 0.20710  0.98180  0.86760  Biso   1.000  H
  C1695    1.0000 0.17686  0.98907  0.87242  Biso   1.000  C
  H1044    1.0000 0.17680  0.00010  0.86240  Biso   1.000  H
  C1696    1.0000 0.14774  0.84533  0.96662  Biso   1.000  C
  C1697    1.0000 0.11148  0.91843  0.98679  Biso   1.000  C
  H1045    1.0000 0.10060  0.91710  0.99680  Biso   1.000  H
  C1698    1.0000 0.11260  0.93666  0.97538  Biso   1.000  C
  H1046    1.0000 0.10310  0.94780  0.97800  Biso   1.000  H
  C1699    1.0000 0.12779  0.93858  0.95993  Biso   1.000  C
  H1047    1.0000 0.12840  0.95070  0.95130  Biso   1.000  H
  C1700    1.0000 0.14210  0.92226  0.95751  Biso   1.000  C
  C1701    1.0000 0.14026  0.90472  0.96999  Biso   1.000  C
  H1048    1.0000 0.15020  0.89380  0.96830  Biso   1.000  H
  C1702    1.0000 0.15868  0.92282  0.94123  Biso   1.000  C
  C1703    1.0000 0.17567  0.93970  0.91539  Biso   1.000  C
  C1704    1.0000 0.18511  0.90684  0.92411  Biso   1.000  C
  C1705    1.0000 0.21232  0.88822  0.90399  Biso   1.000  C
  H1049    1.0000 0.21370  0.90060  0.89580  Biso   1.000  H
  C1706    1.0000 0.19779  0.88815  0.92048  Biso   1.000  C
  C1707    1.0000 0.19589  0.87040  0.93265  Biso   1.000  C
  H1050    1.0000 0.18600  0.86970  0.94380  Biso   1.000  H
  C1708    1.0000 0.20891  0.85358  0.92808  Biso   1.000  C
  H1051    1.0000 0.20840  0.84130  0.93640  Biso   1.000  H
  C1709    1.0000 0.22254  0.85489  0.91140  Biso   1.000  C
  H1052    1.0000 0.23110  0.84310  0.90840  Biso   1.000  H
  C1710    1.0000 0.26763  0.88862  0.91699  Biso   1.000  C
  H1053    1.0000 0.25700  0.89890  0.91590  Biso   1.000  H
  C1711    1.0000 0.27940  0.88834  0.93460  Biso   1.000  C
  H1054    1.0000 0.27690  0.89810  0.94550  Biso   1.000  H
  C1712    1.0000 0.29530  0.87333  0.93640  Biso   1.000  C
  H1055    1.0000 0.30410  0.87290  0.94840  Biso   1.000  H
  C1713    1.0000 0.29783  0.85924  0.92016  Biso   1.000  C
  C1714    1.0000 0.28502  0.86085  0.90269  Biso   1.000  C
  H1056    1.0000 0.28700  0.85130  0.89150  Biso   1.000  H
  C1715    1.0000 0.31441  0.84302  0.92092  Biso   1.000  C
  C1716    1.0000 0.25059  0.82478  0.87389  Biso   1.000  C
  N651     1.0000 0.15904  0.98525  0.88308  Biso   1.000  N
  N652     1.0000 0.13715  0.85699  0.97554  Biso   1.000  N
  N653     1.0000 0.12497  0.90242  0.98449  Biso   1.000  N
  N654     1.0000 0.17040  0.90582  0.93909  Biso   1.000  N
  N655     1.0000 0.16034  0.94029  0.92975  Biso   1.000  N
  N656     1.0000 0.18887  0.92387  0.91237  Biso   1.000  N
  N657     1.0000 0.22432  0.87185  0.89925  Biso   1.000  N
  N658     1.0000 0.24881  0.84238  0.87324  Biso   1.000  N
  N659     1.0000 0.27009  0.87524  0.90103  Biso   1.000  N
  N660     1.0000 0.32831  0.84428  0.93603  Biso   1.000  N
  S131     1.0000 0.16304  0.82812  0.95537  Biso   1.000  S
  S132     1.0000 0.25216  0.79928  0.87654  Biso   1.000  S
  C1717    1.0000 0.65972  0.46989  0.89742  Biso   1.000  C
  H1057    1.0000 0.64760  0.46730  0.90560  Biso   1.000  H
  C1718    1.0000 0.67742  0.45750  0.90086  Biso   1.000  C
  C1719    1.0000 0.69523  0.46138  0.88928  Biso   1.000  C
  H1058    1.0000 0.70740  0.45300  0.89080  Biso   1.000  H
  C1720    1.0000 0.69486  0.47810  0.87518  Biso   1.000  C
  H1059    1.0000 0.70710  0.48180  0.86760  Biso   1.000  H
  C1721    1.0000 0.67686  0.48907  0.87242  Biso   1.000  C
  H1060    1.0000 0.67680  0.50010  0.86240  Biso   1.000  H
  C1722    1.0000 0.64774  0.34533  0.96662  Biso   1.000  C
  C1723    1.0000 0.61148  0.41843  0.98679  Biso   1.000  C
  H1061    1.0000 0.60060  0.41710  0.99680  Biso   1.000  H
  C1724    1.0000 0.61260  0.43666  0.97538  Biso   1.000  C
  H1062    1.0000 0.60310  0.44780  0.97800  Biso   1.000  H
  C1725    1.0000 0.62779  0.43858  0.95993  Biso   1.000  C
  H1063    1.0000 0.62840  0.45070  0.95130  Biso   1.000  H
  C1726    1.0000 0.64210  0.42226  0.95751  Biso   1.000  C
  C1727    1.0000 0.64026  0.40472  0.96999  Biso   1.000  C
  H1064    1.0000 0.65020  0.39380  0.96830  Biso   1.000  H
  C1728    1.0000 0.65868  0.42282  0.94123  Biso   1.000  C
  C1729    1.0000 0.67567  0.43970  0.91539  Biso   1.000  C
  C1730    1.0000 0.68511  0.40684  0.92411  Biso   1.000  C
  C1731    1.0000 0.71232  0.38822  0.90399  Biso   1.000  C
  H1065    1.0000 0.71370  0.40060  0.89580  Biso   1.000  H
  C1732    1.0000 0.69779  0.38815  0.92048  Biso   1.000  C
  C1733    1.0000 0.69589  0.37040  0.93265  Biso   1.000  C
  H1066    1.0000 0.68600  0.36970  0.94380  Biso   1.000  H
  C1734    1.0000 0.70891  0.35358  0.92808  Biso   1.000  C
  H1067    1.0000 0.70840  0.34130  0.93640  Biso   1.000  H
  C1735    1.0000 0.72254  0.35489  0.91140  Biso   1.000  C
  H1068    1.0000 0.73110  0.34310  0.90840  Biso   1.000  H
  C1736    1.0000 0.76763  0.38862  0.91699  Biso   1.000  C
  H1069    1.0000 0.75700  0.39890  0.91590  Biso   1.000  H
  C1737    1.0000 0.77940  0.38834  0.93460  Biso   1.000  C
  H1070    1.0000 0.77690  0.39810  0.94550  Biso   1.000  H
  C1738    1.0000 0.79530  0.37333  0.93640  Biso   1.000  C
  H1071    1.0000 0.80410  0.37290  0.94840  Biso   1.000  H
  C1739    1.0000 0.79783  0.35924  0.92016  Biso   1.000  C
  C1740    1.0000 0.78502  0.36085  0.90269  Biso   1.000  C
  H1072    1.0000 0.78700  0.35130  0.89150  Biso   1.000  H
  C1741    1.0000 0.81441  0.34302  0.92092  Biso   1.000  C
  C1742    1.0000 0.75059  0.32478  0.87389  Biso   1.000  C
  N661     1.0000 0.65904  0.48525  0.88308  Biso   1.000  N
  N662     1.0000 0.63715  0.35699  0.97554  Biso   1.000  N
  N663     1.0000 0.62497  0.40242  0.98449  Biso   1.000  N
  N664     1.0000 0.67040  0.40582  0.93909  Biso   1.000  N
  N665     1.0000 0.66034  0.44029  0.92975  Biso   1.000  N
  N666     1.0000 0.68887  0.42387  0.91237  Biso   1.000  N
  N667     1.0000 0.72432  0.37185  0.89925  Biso   1.000  N
  N668     1.0000 0.74881  0.34238  0.87324  Biso   1.000  N
  N669     1.0000 0.77009  0.37524  0.90103  Biso   1.000  N
  N670     1.0000 0.82831  0.34428  0.93603  Biso   1.000  N
  S133     1.0000 0.66304  0.32812  0.95537  Biso   1.000  S
  S134     1.0000 0.75216  0.29928  0.87654  Biso   1.000  S
  C1743    1.0000 0.65972  0.96989  0.39742  Biso   1.000  C
  H1073    1.0000 0.64760  0.96730  0.40560  Biso   1.000  H
  C1744    1.0000 0.67742  0.95750  0.40086  Biso   1.000  C
  C1745    1.0000 0.69523  0.96138  0.38928  Biso   1.000  C
  H1074    1.0000 0.70740  0.95300  0.39080  Biso   1.000  H
  C1746    1.0000 0.69486  0.97810  0.37518  Biso   1.000  C
  H1075    1.0000 0.70710  0.98180  0.36760  Biso   1.000  H
  C1747    1.0000 0.67686  0.98907  0.37242  Biso   1.000  C
  H1076    1.0000 0.67680  0.00010  0.36240  Biso   1.000  H
  C1748    1.0000 0.64774  0.84533  0.46662  Biso   1.000  C
  C1749    1.0000 0.61148  0.91843  0.48679  Biso   1.000  C
  H1077    1.0000 0.60060  0.91710  0.49680  Biso   1.000  H
  C1750    1.0000 0.61260  0.93666  0.47538  Biso   1.000  C
  H1078    1.0000 0.60310  0.94780  0.47800  Biso   1.000  H
  C1751    1.0000 0.62779  0.93858  0.45993  Biso   1.000  C
  H1079    1.0000 0.62840  0.95070  0.45130  Biso   1.000  H
  C1752    1.0000 0.64210  0.92226  0.45751  Biso   1.000  C
  C1753    1.0000 0.64026  0.90472  0.46999  Biso   1.000  C
  H1080    1.0000 0.65020  0.89380  0.46830  Biso   1.000  H
  C1754    1.0000 0.65868  0.92282  0.44123  Biso   1.000  C
  C1755    1.0000 0.67567  0.93970  0.41539  Biso   1.000  C
  C1756    1.0000 0.68511  0.90684  0.42411  Biso   1.000  C
  C1757    1.0000 0.71232  0.88822  0.40399  Biso   1.000  C
  H1081    1.0000 0.71370  0.90060  0.39580  Biso   1.000  H
  C1758    1.0000 0.69779  0.88815  0.42048  Biso   1.000  C
  C1759    1.0000 0.69589  0.87040  0.43265  Biso   1.000  C
  H1082    1.0000 0.68600  0.86970  0.44380  Biso   1.000  H
  C1760    1.0000 0.70891  0.85358  0.42808  Biso   1.000  C
  H1083    1.0000 0.70840  0.84130  0.43640  Biso   1.000  H
  C1761    1.0000 0.72254  0.85489  0.41140  Biso   1.000  C
  H1084    1.0000 0.73110  0.84310  0.40840  Biso   1.000  H
  C1762    1.0000 0.76763  0.88862  0.41699  Biso   1.000  C
  H1085    1.0000 0.75700  0.89890  0.41590  Biso   1.000  H
  C1763    1.0000 0.77940  0.88834  0.43460  Biso   1.000  C
  H1086    1.0000 0.77690  0.89810  0.44550  Biso   1.000  H
  C1764    1.0000 0.79530  0.87333  0.43640  Biso   1.000  C
  H1087    1.0000 0.80410  0.87290  0.44840  Biso   1.000  H
  C1765    1.0000 0.79783  0.85924  0.42016  Biso   1.000  C
  C1766    1.0000 0.78502  0.86085  0.40269  Biso   1.000  C
  H1088    1.0000 0.78700  0.85130  0.39150  Biso   1.000  H
  C1767    1.0000 0.81441  0.84302  0.42092  Biso   1.000  C
  C1768    1.0000 0.75059  0.82478  0.37389  Biso   1.000  C
  N671     1.0000 0.65904  0.98525  0.38308  Biso   1.000  N
  N672     1.0000 0.63715  0.85699  0.47554  Biso   1.000  N
  N673     1.0000 0.62497  0.90242  0.48449  Biso   1.000  N
  N674     1.0000 0.67040  0.90582  0.43909  Biso   1.000  N
  N675     1.0000 0.66034  0.94029  0.42975  Biso   1.000  N
  N676     1.0000 0.68887  0.92387  0.41237  Biso   1.000  N
  N677     1.0000 0.72432  0.87185  0.39925  Biso   1.000  N
  N678     1.0000 0.74881  0.84238  0.37324  Biso   1.000  N
  N679     1.0000 0.77009  0.87524  0.40103  Biso   1.000  N
  N680     1.0000 0.82831  0.84428  0.43603  Biso   1.000  N
  S135     1.0000 0.66304  0.82812  0.45537  Biso   1.000  S
  S136     1.0000 0.75216  0.79928  0.37654  Biso   1.000  S
  C1769    1.0000 0.59028  0.96989  0.85258  Biso   1.000  C
  H1089    1.0000 0.60240  0.96730  0.84440  Biso   1.000  H
  C1770    1.0000 0.57258  0.95750  0.84914  Biso   1.000  C
  C1771    1.0000 0.55477  0.96138  0.86072  Biso   1.000  C
  H1090    1.0000 0.54260  0.95300  0.85920  Biso   1.000  H
  C1772    1.0000 0.55514  0.97810  0.87482  Biso   1.000  C
  H1091    1.0000 0.54290  0.98180  0.88240  Biso   1.000  H
  C1773    1.0000 0.57314  0.98907  0.87758  Biso   1.000  C
  H1092    1.0000 0.57320  0.00010  0.88760  Biso   1.000  H
  C1774    1.0000 0.60226  0.84533  0.78338  Biso   1.000  C
  C1775    1.0000 0.63852  0.91843  0.76321  Biso   1.000  C
  H1093    1.0000 0.64940  0.91710  0.75320  Biso   1.000  H
  C1776    1.0000 0.63740  0.93666  0.77462  Biso   1.000  C
  H1094    1.0000 0.64690  0.94780  0.77200  Biso   1.000  H
  C1777    1.0000 0.62221  0.93858  0.79007  Biso   1.000  C
  H1095    1.0000 0.62160  0.95070  0.79870  Biso   1.000  H
  C1778    1.0000 0.60790  0.92226  0.79249  Biso   1.000  C
  C1779    1.0000 0.60974  0.90472  0.78001  Biso   1.000  C
  H1096    1.0000 0.59980  0.89380  0.78170  Biso   1.000  H
  C1780    1.0000 0.59132  0.92282  0.80877  Biso   1.000  C
  C1781    1.0000 0.57433  0.93970  0.83461  Biso   1.000  C
  C1782    1.0000 0.56489  0.90684  0.82589  Biso   1.000  C
  C1783    1.0000 0.53768  0.88822  0.84601  Biso   1.000  C
  H1097    1.0000 0.53630  0.90060  0.85420  Biso   1.000  H
  C1784    1.0000 0.55221  0.88815  0.82952  Biso   1.000  C
  C1785    1.0000 0.55411  0.87040  0.81735  Biso   1.000  C
  H1098    1.0000 0.56400  0.86970  0.80620  Biso   1.000  H
  C1786    1.0000 0.54109  0.85358  0.82192  Biso   1.000  C
  H1099    1.0000 0.54160  0.84130  0.81360  Biso   1.000  H
  C1787    1.0000 0.52746  0.85489  0.83860  Biso   1.000  C
  H1100    1.0000 0.51890  0.84310  0.84160  Biso   1.000  H
  C1788    1.0000 0.48237  0.88862  0.83301  Biso   1.000  C
  H1101    1.0000 0.49300  0.89890  0.83410  Biso   1.000  H
  C1789    1.0000 0.47060  0.88834  0.81540  Biso   1.000  C
  H1102    1.0000 0.47310  0.89810  0.80450  Biso   1.000  H
  C1790    1.0000 0.45470  0.87333  0.81360  Biso   1.000  C
  H1103    1.0000 0.44590  0.87290  0.80160  Biso   1.000  H
  C1791    1.0000 0.45217  0.85924  0.82984  Biso   1.000  C
  C1792    1.0000 0.46498  0.86085  0.84731  Biso   1.000  C
  H1104    1.0000 0.46300  0.85130  0.85850  Biso   1.000  H
  C1793    1.0000 0.43559  0.84302  0.82908  Biso   1.000  C
  C1794    1.0000 0.49941  0.82478  0.87611  Biso   1.000  C
  N681     1.0000 0.59096  0.98525  0.86692  Biso   1.000  N
  N682     1.0000 0.61285  0.85699  0.77446  Biso   1.000  N
  N683     1.0000 0.62503  0.90242  0.76551  Biso   1.000  N
  N684     1.0000 0.57960  0.90582  0.81091  Biso   1.000  N
  N685     1.0000 0.58966  0.94029  0.82025  Biso   1.000  N
  N686     1.0000 0.56113  0.92387  0.83763  Biso   1.000  N
  N687     1.0000 0.52568  0.87185  0.85075  Biso   1.000  N
  N688     1.0000 0.50119  0.84238  0.87676  Biso   1.000  N
  N689     1.0000 0.47991  0.87524  0.84897  Biso   1.000  N
  N690     1.0000 0.42169  0.84428  0.81397  Biso   1.000  N
  S137     1.0000 0.58696  0.82812  0.79463  Biso   1.000  S
  S138     1.0000 0.49784  0.79928  0.87346  Biso   1.000  S
  C1795    1.0000 0.59028  0.46989  0.35258  Biso   1.000  C
  H1105    1.0000 0.60240  0.46730  0.34440  Biso   1.000  H
  C1796    1.0000 0.57258  0.45750  0.34914  Biso   1.000  C
  C1797    1.0000 0.55477  0.46138  0.36072  Biso   1.000  C
  H1106    1.0000 0.54260  0.45300  0.35920  Biso   1.000  H
  C1798    1.0000 0.55514  0.47810  0.37482  Biso   1.000  C
  H1107    1.0000 0.54290  0.48180  0.38240  Biso   1.000  H
  C1799    1.0000 0.57314  0.48907  0.37758  Biso   1.000  C
  H1108    1.0000 0.57320  0.50010  0.38760  Biso   1.000  H
  C1800    1.0000 0.60226  0.34533  0.28338  Biso   1.000  C
  C1801    1.0000 0.63852  0.41843  0.26321  Biso   1.000  C
  H1109    1.0000 0.64940  0.41710  0.25320  Biso   1.000  H
  C1802    1.0000 0.63740  0.43666  0.27462  Biso   1.000  C
  H1110    1.0000 0.64690  0.44780  0.27200  Biso   1.000  H
  C1803    1.0000 0.62221  0.43858  0.29007  Biso   1.000  C
  H1111    1.0000 0.62160  0.45070  0.29870  Biso   1.000  H
  C1804    1.0000 0.60790  0.42226  0.29249  Biso   1.000  C
  C1805    1.0000 0.60974  0.40472  0.28001  Biso   1.000  C
  H1112    1.0000 0.59980  0.39380  0.28170  Biso   1.000  H
  C1806    1.0000 0.59132  0.42282  0.30877  Biso   1.000  C
  C1807    1.0000 0.57433  0.43970  0.33461  Biso   1.000  C
  C1808    1.0000 0.56489  0.40684  0.32589  Biso   1.000  C
  C1809    1.0000 0.53768  0.38822  0.34601  Biso   1.000  C
  H1113    1.0000 0.53630  0.40060  0.35420  Biso   1.000  H
  C1810    1.0000 0.55221  0.38815  0.32952  Biso   1.000  C
  C1811    1.0000 0.55411  0.37040  0.31735  Biso   1.000  C
  H1114    1.0000 0.56400  0.36970  0.30620  Biso   1.000  H
  C1812    1.0000 0.54109  0.35358  0.32192  Biso   1.000  C
  H1115    1.0000 0.54160  0.34130  0.31360  Biso   1.000  H
  C1813    1.0000 0.52746  0.35489  0.33860  Biso   1.000  C
  H1116    1.0000 0.51890  0.34310  0.34160  Biso   1.000  H
  C1814    1.0000 0.48237  0.38862  0.33301  Biso   1.000  C
  H1117    1.0000 0.49300  0.39890  0.33410  Biso   1.000  H
  C1815    1.0000 0.47060  0.38834  0.31540  Biso   1.000  C
  H1118    1.0000 0.47310  0.39810  0.30450  Biso   1.000  H
  C1816    1.0000 0.45470  0.37333  0.31360  Biso   1.000  C
  H1119    1.0000 0.44590  0.37290  0.30160  Biso   1.000  H
  C1817    1.0000 0.45217  0.35924  0.32984  Biso   1.000  C
  C1818    1.0000 0.46498  0.36085  0.34731  Biso   1.000  C
  H1120    1.0000 0.46300  0.35130  0.35850  Biso   1.000  H
  C1819    1.0000 0.43559  0.34302  0.32908  Biso   1.000  C
  C1820    1.0000 0.49941  0.32478  0.37611  Biso   1.000  C
  N691     1.0000 0.59096  0.48525  0.36692  Biso   1.000  N
  N692     1.0000 0.61285  0.35699  0.27446  Biso   1.000  N
  N693     1.0000 0.62503  0.40242  0.26551  Biso   1.000  N
  N694     1.0000 0.57960  0.40582  0.31091  Biso   1.000  N
  N695     1.0000 0.58966  0.44029  0.32025  Biso   1.000  N
  N696     1.0000 0.56113  0.42387  0.33763  Biso   1.000  N
  N697     1.0000 0.52568  0.37185  0.35075  Biso   1.000  N
  N698     1.0000 0.50119  0.34238  0.37676  Biso   1.000  N
  N699     1.0000 0.47991  0.37524  0.34897  Biso   1.000  N
  N700     1.0000 0.42169  0.34428  0.31397  Biso   1.000  N
  S139     1.0000 0.58696  0.32812  0.29463  Biso   1.000  S
  S140     1.0000 0.49784  0.29928  0.37346  Biso   1.000  S
  C1821    1.0000 0.09028  0.96989  0.35258  Biso   1.000  C
  H1121    1.0000 0.10240  0.96730  0.34440  Biso   1.000  H
  C1822    1.0000 0.07258  0.95750  0.34914  Biso   1.000  C
  C1823    1.0000 0.05477  0.96138  0.36072  Biso   1.000  C
  H1122    1.0000 0.04260  0.95300  0.35920  Biso   1.000  H
  C1824    1.0000 0.05514  0.97810  0.37482  Biso   1.000  C
  H1123    1.0000 0.04290  0.98180  0.38240  Biso   1.000  H
  C1825    1.0000 0.07314  0.98907  0.37758  Biso   1.000  C
  H1124    1.0000 0.07320  0.00010  0.38760  Biso   1.000  H
  C1826    1.0000 0.10226  0.84533  0.28338  Biso   1.000  C
  C1827    1.0000 0.13852  0.91843  0.26321  Biso   1.000  C
  H1125    1.0000 0.14940  0.91710  0.25320  Biso   1.000  H
  C1828    1.0000 0.13740  0.93666  0.27462  Biso   1.000  C
  H1126    1.0000 0.14690  0.94780  0.27200  Biso   1.000  H
  C1829    1.0000 0.12221  0.93858  0.29007  Biso   1.000  C
  H1127    1.0000 0.12160  0.95070  0.29870  Biso   1.000  H
  C1830    1.0000 0.10790  0.92226  0.29249  Biso   1.000  C
  C1831    1.0000 0.10974  0.90472  0.28001  Biso   1.000  C
  H1128    1.0000 0.09980  0.89380  0.28170  Biso   1.000  H
  C1832    1.0000 0.09132  0.92282  0.30877  Biso   1.000  C
  C1833    1.0000 0.07433  0.93970  0.33461  Biso   1.000  C
  C1834    1.0000 0.06489  0.90684  0.32589  Biso   1.000  C
  C1835    1.0000 0.03768  0.88822  0.34601  Biso   1.000  C
  H1129    1.0000 0.03630  0.90060  0.35420  Biso   1.000  H
  C1836    1.0000 0.05221  0.88815  0.32952  Biso   1.000  C
  C1837    1.0000 0.05411  0.87040  0.31735  Biso   1.000  C
  H1130    1.0000 0.06400  0.86970  0.30620  Biso   1.000  H
  C1838    1.0000 0.04109  0.85358  0.32192  Biso   1.000  C
  H1131    1.0000 0.04160  0.84130  0.31360  Biso   1.000  H
  C1839    1.0000 0.02746  0.85489  0.33860  Biso   1.000  C
  H1132    1.0000 0.01890  0.84310  0.34160  Biso   1.000  H
  C1840    1.0000 0.98237  0.88862  0.33301  Biso   1.000  C
  H1133    1.0000 0.99300  0.89890  0.33410  Biso   1.000  H
  C1841    1.0000 0.97060  0.88834  0.31540  Biso   1.000  C
  H1134    1.0000 0.97310  0.89810  0.30450  Biso   1.000  H
  C1842    1.0000 0.95470  0.87333  0.31360  Biso   1.000  C
  H1135    1.0000 0.94590  0.87290  0.30160  Biso   1.000  H
  C1843    1.0000 0.95217  0.85924  0.32984  Biso   1.000  C
  C1844    1.0000 0.96498  0.86085  0.34731  Biso   1.000  C
  H1136    1.0000 0.96300  0.85130  0.35850  Biso   1.000  H
  C1845    1.0000 0.93559  0.84302  0.32908  Biso   1.000  C
  C1846    1.0000 0.99941  0.82478  0.37611  Biso   1.000  C
  N701     1.0000 0.09096  0.98525  0.36692  Biso   1.000  N
  N702     1.0000 0.11285  0.85699  0.27446  Biso   1.000  N
  N703     1.0000 0.12503  0.90242  0.26551  Biso   1.000  N
  N704     1.0000 0.07960  0.90582  0.31091  Biso   1.000  N
  N705     1.0000 0.08966  0.94029  0.32025  Biso   1.000  N
  N706     1.0000 0.06113  0.92387  0.33763  Biso   1.000  N
  N707     1.0000 0.02568  0.87185  0.35075  Biso   1.000  N
  N708     1.0000 0.00119  0.84238  0.37676  Biso   1.000  N
  N709     1.0000 0.97991  0.87524  0.34897  Biso   1.000  N
  N710     1.0000 0.92169  0.84428  0.31397  Biso   1.000  N
  S141     1.0000 0.08696  0.82812  0.29463  Biso   1.000  S
  S142     1.0000 0.99784  0.79928  0.37346  Biso   1.000  S
  C1847    1.0000 0.09028  0.46989  0.85258  Biso   1.000  C
  H1137    1.0000 0.10240  0.46730  0.84440  Biso   1.000  H
  C1848    1.0000 0.07258  0.45750  0.84914  Biso   1.000  C
  C1849    1.0000 0.05477  0.46138  0.86072  Biso   1.000  C
  H1138    1.0000 0.04260  0.45300  0.85920  Biso   1.000  H
  C1850    1.0000 0.05514  0.47810  0.87482  Biso   1.000  C
  H1139    1.0000 0.04290  0.48180  0.88240  Biso   1.000  H
  C1851    1.0000 0.07314  0.48907  0.87758  Biso   1.000  C
  H1140    1.0000 0.07320  0.50010  0.88760  Biso   1.000  H
  C1852    1.0000 0.10226  0.34533  0.78338  Biso   1.000  C
  C1853    1.0000 0.13852  0.41843  0.76321  Biso   1.000  C
  H1141    1.0000 0.14940  0.41710  0.75320  Biso   1.000  H
  C1854    1.0000 0.13740  0.43666  0.77462  Biso   1.000  C
  H1142    1.0000 0.14690  0.44780  0.77200  Biso   1.000  H
  C1855    1.0000 0.12221  0.43858  0.79007  Biso   1.000  C
  H1143    1.0000 0.12160  0.45070  0.79870  Biso   1.000  H
  C1856    1.0000 0.10790  0.42226  0.79249  Biso   1.000  C
  C1857    1.0000 0.10974  0.40472  0.78001  Biso   1.000  C
  H1144    1.0000 0.09980  0.39380  0.78170  Biso   1.000  H
  C1858    1.0000 0.09132  0.42282  0.80877  Biso   1.000  C
  C1859    1.0000 0.07433  0.43970  0.83461  Biso   1.000  C
  C1860    1.0000 0.06489  0.40684  0.82589  Biso   1.000  C
  C1861    1.0000 0.03768  0.38822  0.84601  Biso   1.000  C
  H1145    1.0000 0.03630  0.40060  0.85420  Biso   1.000  H
  C1862    1.0000 0.05221  0.38815  0.82952  Biso   1.000  C
  C1863    1.0000 0.05411  0.37040  0.81735  Biso   1.000  C
  H1146    1.0000 0.06400  0.36970  0.80620  Biso   1.000  H
  C1864    1.0000 0.04109  0.35358  0.82192  Biso   1.000  C
  H1147    1.0000 0.04160  0.34130  0.81360  Biso   1.000  H
  C1865    1.0000 0.02746  0.35489  0.83860  Biso   1.000  C
  H1148    1.0000 0.01890  0.34310  0.84160  Biso   1.000  H
  C1866    1.0000 0.98237  0.38862  0.83301  Biso   1.000  C
  H1149    1.0000 0.99300  0.39890  0.83410  Biso   1.000  H
  C1867    1.0000 0.97060  0.38834  0.81540  Biso   1.000  C
  H1150    1.0000 0.97310  0.39810  0.80450  Biso   1.000  H
  C1868    1.0000 0.95470  0.37333  0.81360  Biso   1.000  C
  H1151    1.0000 0.94590  0.37290  0.80160  Biso   1.000  H
  C1869    1.0000 0.95217  0.35924  0.82984  Biso   1.000  C
  C1870    1.0000 0.96498  0.36085  0.84731  Biso   1.000  C
  H1152    1.0000 0.96300  0.35130  0.85850  Biso   1.000  H
  C1871    1.0000 0.93559  0.34302  0.82908  Biso   1.000  C
  C1872    1.0000 0.99941  0.32478  0.87611  Biso   1.000  C
  N711     1.0000 0.09096  0.48525  0.86692  Biso   1.000  N
  N712     1.0000 0.11285  0.35699  0.77446  Biso   1.000  N
  N713     1.0000 0.12503  0.40242  0.76551  Biso   1.000  N
  N714     1.0000 0.07960  0.40582  0.81091  Biso   1.000  N
  N715     1.0000 0.08966  0.44029  0.82025  Biso   1.000  N
  N716     1.0000 0.06113  0.42387  0.83763  Biso   1.000  N
  N717     1.0000 0.02568  0.37185  0.85075  Biso   1.000  N
  N718     1.0000 0.00119  0.34238  0.87676  Biso   1.000  N
  N719     1.0000 0.97991  0.37524  0.84897  Biso   1.000  N
  N720     1.0000 0.92169  0.34428  0.81397  Biso   1.000  N
  S143     1.0000 0.08696  0.32812  0.79463  Biso   1.000  S
  S144     1.0000 0.99784  0.29928  0.87346  Biso   1.000  S
  C1873    1.0000 0.09028  0.28011  0.89742  Biso   1.000  C
  H1153    1.0000 0.10240  0.28270  0.90560  Biso   1.000  H
  C1874    1.0000 0.07258  0.29250  0.90086  Biso   1.000  C
  C1875    1.0000 0.05477  0.28862  0.88928  Biso   1.000  C
  H1154    1.0000 0.04260  0.29700  0.89080  Biso   1.000  H
  C1876    1.0000 0.05514  0.27190  0.87518  Biso   1.000  C
  H1155    1.0000 0.04290  0.26820  0.86760  Biso   1.000  H
  C1877    1.0000 0.07314  0.26093  0.87242  Biso   1.000  C
  H1156    1.0000 0.07320  0.24990  0.86240  Biso   1.000  H
  C1878    1.0000 0.10226  0.40467  0.96662  Biso   1.000  C
  C1879    1.0000 0.13852  0.33157  0.98679  Biso   1.000  C
  H1157    1.0000 0.14940  0.33290  0.99680  Biso   1.000  H
  C1880    1.0000 0.13740  0.31334  0.97538  Biso   1.000  C
  H1158    1.0000 0.14690  0.30220  0.97800  Biso   1.000  H
  C1881    1.0000 0.12221  0.31142  0.95993  Biso   1.000  C
  H1159    1.0000 0.12160  0.29930  0.95130  Biso   1.000  H
  C1882    1.0000 0.10790  0.32774  0.95751  Biso   1.000  C
  C1883    1.0000 0.10974  0.34528  0.96999  Biso   1.000  C
  H1160    1.0000 0.09980  0.35620  0.96830  Biso   1.000  H
  C1884    1.0000 0.09132  0.32718  0.94123  Biso   1.000  C
  C1885    1.0000 0.07433  0.31030  0.91539  Biso   1.000  C
  C1886    1.0000 0.06489  0.34316  0.92411  Biso   1.000  C
  C1887    1.0000 0.03768  0.36178  0.90399  Biso   1.000  C
  H1161    1.0000 0.03630  0.34940  0.89580  Biso   1.000  H
  C1888    1.0000 0.05221  0.36185  0.92048  Biso   1.000  C
  C1889    1.0000 0.05411  0.37960  0.93265  Biso   1.000  C
  H1162    1.0000 0.06400  0.38030  0.94380  Biso   1.000  H
  C1890    1.0000 0.04109  0.39642  0.92808  Biso   1.000  C
  H1163    1.0000 0.04160  0.40870  0.93640  Biso   1.000  H
  C1891    1.0000 0.02746  0.39511  0.91140  Biso   1.000  C
  H1164    1.0000 0.01890  0.40690  0.90840  Biso   1.000  H
  C1892    1.0000 0.98237  0.36138  0.91699  Biso   1.000  C
  H1165    1.0000 0.99300  0.35110  0.91590  Biso   1.000  H
  C1893    1.0000 0.97060  0.36166  0.93460  Biso   1.000  C
  H1166    1.0000 0.97310  0.35190  0.94550  Biso   1.000  H
  C1894    1.0000 0.95470  0.37667  0.93640  Biso   1.000  C
  H1167    1.0000 0.94590  0.37710  0.94840  Biso   1.000  H
  C1895    1.0000 0.95217  0.39076  0.92016  Biso   1.000  C
  C1896    1.0000 0.96498  0.38915  0.90269  Biso   1.000  C
  H1168    1.0000 0.96300  0.39870  0.89150  Biso   1.000  H
  C1897    1.0000 0.93559  0.40698  0.92092  Biso   1.000  C
  C1898    1.0000 0.99941  0.42522  0.87389  Biso   1.000  C
  N721     1.0000 0.09096  0.26475  0.88308  Biso   1.000  N
  N722     1.0000 0.11285  0.39301  0.97554  Biso   1.000  N
  N723     1.0000 0.12503  0.34758  0.98449  Biso   1.000  N
  N724     1.0000 0.07960  0.34418  0.93909  Biso   1.000  N
  N725     1.0000 0.08966  0.30971  0.92975  Biso   1.000  N
  N726     1.0000 0.06113  0.32613  0.91237  Biso   1.000  N
  N727     1.0000 0.02568  0.37815  0.89925  Biso   1.000  N
  N728     1.0000 0.00119  0.40762  0.87324  Biso   1.000  N
  N729     1.0000 0.97991  0.37476  0.90103  Biso   1.000  N
  N730     1.0000 0.92169  0.40572  0.93603  Biso   1.000  N
  S145     1.0000 0.08696  0.42188  0.95537  Biso   1.000  S
  S146     1.0000 0.99784  0.45072  0.87654  Biso   1.000  S
  C1899    1.0000 0.09028  0.78011  0.39742  Biso   1.000  C
  H1169    1.0000 0.10240  0.78270  0.40560  Biso   1.000  H
  C1900    1.0000 0.07258  0.79250  0.40086  Biso   1.000  C
  C1901    1.0000 0.05477  0.78862  0.38928  Biso   1.000  C
  H1170    1.0000 0.04260  0.79700  0.39080  Biso   1.000  H
  C1902    1.0000 0.05514  0.77190  0.37518  Biso   1.000  C
  H1171    1.0000 0.04290  0.76820  0.36760  Biso   1.000  H
  C1903    1.0000 0.07314  0.76093  0.37242  Biso   1.000  C
  H1172    1.0000 0.07320  0.74990  0.36240  Biso   1.000  H
  C1904    1.0000 0.10226  0.90467  0.46662  Biso   1.000  C
  C1905    1.0000 0.13852  0.83157  0.48679  Biso   1.000  C
  H1173    1.0000 0.14940  0.83290  0.49680  Biso   1.000  H
  C1906    1.0000 0.13740  0.81334  0.47538  Biso   1.000  C
  H1174    1.0000 0.14690  0.80220  0.47800  Biso   1.000  H
  C1907    1.0000 0.12221  0.81142  0.45993  Biso   1.000  C
  H1175    1.0000 0.12160  0.79930  0.45130  Biso   1.000  H
  C1908    1.0000 0.10790  0.82774  0.45751  Biso   1.000  C
  C1909    1.0000 0.10974  0.84528  0.46999  Biso   1.000  C
  H1176    1.0000 0.09980  0.85620  0.46830  Biso   1.000  H
  C1910    1.0000 0.09132  0.82718  0.44123  Biso   1.000  C
  C1911    1.0000 0.07433  0.81030  0.41539  Biso   1.000  C
  C1912    1.0000 0.06489  0.84316  0.42411  Biso   1.000  C
  C1913    1.0000 0.03768  0.86178  0.40399  Biso   1.000  C
  H1177    1.0000 0.03630  0.84940  0.39580  Biso   1.000  H
  C1914    1.0000 0.05221  0.86185  0.42048  Biso   1.000  C
  C1915    1.0000 0.05411  0.87960  0.43265  Biso   1.000  C
  H1178    1.0000 0.06400  0.88030  0.44380  Biso   1.000  H
  C1916    1.0000 0.04109  0.89642  0.42808  Biso   1.000  C
  H1179    1.0000 0.04160  0.90870  0.43640  Biso   1.000  H
  C1917    1.0000 0.02746  0.89511  0.41140  Biso   1.000  C
  H1180    1.0000 0.01890  0.90690  0.40840  Biso   1.000  H
  C1918    1.0000 0.98237  0.86138  0.41699  Biso   1.000  C
  H1181    1.0000 0.99300  0.85110  0.41590  Biso   1.000  H
  C1919    1.0000 0.97060  0.86166  0.43460  Biso   1.000  C
  H1182    1.0000 0.97310  0.85190  0.44550  Biso   1.000  H
  C1920    1.0000 0.95470  0.87667  0.43640  Biso   1.000  C
  H1183    1.0000 0.94590  0.87710  0.44840  Biso   1.000  H
  C1921    1.0000 0.95217  0.89076  0.42016  Biso   1.000  C
  C1922    1.0000 0.96498  0.88915  0.40269  Biso   1.000  C
  H1184    1.0000 0.96300  0.89870  0.39150  Biso   1.000  H
  C1923    1.0000 0.93559  0.90698  0.42092  Biso   1.000  C
  C1924    1.0000 0.99941  0.92522  0.37389  Biso   1.000  C
  N731     1.0000 0.09096  0.76475  0.38308  Biso   1.000  N
  N732     1.0000 0.11285  0.89301  0.47554  Biso   1.000  N
  N733     1.0000 0.12503  0.84758  0.48449  Biso   1.000  N
  N734     1.0000 0.07960  0.84418  0.43909  Biso   1.000  N
  N735     1.0000 0.08966  0.80971  0.42975  Biso   1.000  N
  N736     1.0000 0.06113  0.82613  0.41237  Biso   1.000  N
  N737     1.0000 0.02568  0.87815  0.39925  Biso   1.000  N
  N738     1.0000 0.00119  0.90762  0.37324  Biso   1.000  N
  N739     1.0000 0.97991  0.87476  0.40103  Biso   1.000  N
  N740     1.0000 0.92169  0.90572  0.43603  Biso   1.000  N
  S147     1.0000 0.08696  0.92188  0.45537  Biso   1.000  S
  S148     1.0000 0.99784  0.95072  0.37654  Biso   1.000  S
  C1925    1.0000 0.59028  0.28011  0.39742  Biso   1.000  C
  H1185    1.0000 0.60240  0.28270  0.40560  Biso   1.000  H
  C1926    1.0000 0.57258  0.29250  0.40086  Biso   1.000  C
  C1927    1.0000 0.55477  0.28862  0.38928  Biso   1.000  C
  H1186    1.0000 0.54260  0.29700  0.39080  Biso   1.000  H
  C1928    1.0000 0.55514  0.27190  0.37518  Biso   1.000  C
  H1187    1.0000 0.54290  0.26820  0.36760  Biso   1.000  H
  C1929    1.0000 0.57314  0.26093  0.37242  Biso   1.000  C
  H1188    1.0000 0.57320  0.24990  0.36240  Biso   1.000  H
  C1930    1.0000 0.60226  0.40467  0.46662  Biso   1.000  C
  C1931    1.0000 0.63852  0.33157  0.48679  Biso   1.000  C
  H1189    1.0000 0.64940  0.33290  0.49680  Biso   1.000  H
  C1932    1.0000 0.63740  0.31334  0.47538  Biso   1.000  C
  H1190    1.0000 0.64690  0.30220  0.47800  Biso   1.000  H
  C1933    1.0000 0.62221  0.31142  0.45993  Biso   1.000  C
  H1191    1.0000 0.62160  0.29930  0.45130  Biso   1.000  H
  C1934    1.0000 0.60790  0.32774  0.45751  Biso   1.000  C
  C1935    1.0000 0.60974  0.34528  0.46999  Biso   1.000  C
  H1192    1.0000 0.59980  0.35620  0.46830  Biso   1.000  H
  C1936    1.0000 0.59132  0.32718  0.44123  Biso   1.000  C
  C1937    1.0000 0.57433  0.31030  0.41539  Biso   1.000  C
  C1938    1.0000 0.56489  0.34316  0.42411  Biso   1.000  C
  C1939    1.0000 0.53768  0.36178  0.40399  Biso   1.000  C
  H1193    1.0000 0.53630  0.34940  0.39580  Biso   1.000  H
  C1940    1.0000 0.55221  0.36185  0.42048  Biso   1.000  C
  C1941    1.0000 0.55411  0.37960  0.43265  Biso   1.000  C
  H1194    1.0000 0.56400  0.38030  0.44380  Biso   1.000  H
  C1942    1.0000 0.54109  0.39642  0.42808  Biso   1.000  C
  H1195    1.0000 0.54160  0.40870  0.43640  Biso   1.000  H
  C1943    1.0000 0.52746  0.39511  0.41140  Biso   1.000  C
  H1196    1.0000 0.51890  0.40690  0.40840  Biso   1.000  H
  C1944    1.0000 0.48237  0.36138  0.41699  Biso   1.000  C
  H1197    1.0000 0.49300  0.35110  0.41590  Biso   1.000  H
  C1945    1.0000 0.47060  0.36166  0.43460  Biso   1.000  C
  H1198    1.0000 0.47310  0.35190  0.44550  Biso   1.000  H
  C1946    1.0000 0.45470  0.37667  0.43640  Biso   1.000  C
  H1199    1.0000 0.44590  0.37710  0.44840  Biso   1.000  H
  C1947    1.0000 0.45217  0.39076  0.42016  Biso   1.000  C
  C1948    1.0000 0.46498  0.38915  0.40269  Biso   1.000  C
  H1200    1.0000 0.46300  0.39870  0.39150  Biso   1.000  H
  C1949    1.0000 0.43559  0.40698  0.42092  Biso   1.000  C
  C1950    1.0000 0.49941  0.42522  0.37389  Biso   1.000  C
  N741     1.0000 0.59096  0.26475  0.38308  Biso   1.000  N
  N742     1.0000 0.61285  0.39301  0.47554  Biso   1.000  N
  N743     1.0000 0.62503  0.34758  0.48449  Biso   1.000  N
  N744     1.0000 0.57960  0.34418  0.43909  Biso   1.000  N
  N745     1.0000 0.58966  0.30971  0.42975  Biso   1.000  N
  N746     1.0000 0.56113  0.32613  0.41237  Biso   1.000  N
  N747     1.0000 0.52568  0.37815  0.39925  Biso   1.000  N
  N748     1.0000 0.50119  0.40762  0.37324  Biso   1.000  N
  N749     1.0000 0.47991  0.37476  0.40103  Biso   1.000  N
  N750     1.0000 0.42169  0.40572  0.43603  Biso   1.000  N
  S149     1.0000 0.58696  0.42188  0.45537  Biso   1.000  S
  S150     1.0000 0.49784  0.45072  0.37654  Biso   1.000  S
  C1951    1.0000 0.59028  0.78011  0.89742  Biso   1.000  C
  H1201    1.0000 0.60240  0.78270  0.90560  Biso   1.000  H
  C1952    1.0000 0.57258  0.79250  0.90086  Biso   1.000  C
  C1953    1.0000 0.55477  0.78862  0.88928  Biso   1.000  C
  H1202    1.0000 0.54260  0.79700  0.89080  Biso   1.000  H
  C1954    1.0000 0.55514  0.77190  0.87518  Biso   1.000  C
  H1203    1.0000 0.54290  0.76820  0.86760  Biso   1.000  H
  C1955    1.0000 0.57314  0.76093  0.87242  Biso   1.000  C
  H1204    1.0000 0.57320  0.74990  0.86240  Biso   1.000  H
  C1956    1.0000 0.60226  0.90467  0.96662  Biso   1.000  C
  C1957    1.0000 0.63852  0.83157  0.98679  Biso   1.000  C
  H1205    1.0000 0.64940  0.83290  0.99680  Biso   1.000  H
  C1958    1.0000 0.63740  0.81334  0.97538  Biso   1.000  C
  H1206    1.0000 0.64690  0.80220  0.97800  Biso   1.000  H
  C1959    1.0000 0.62221  0.81142  0.95993  Biso   1.000  C
  H1207    1.0000 0.62160  0.79930  0.95130  Biso   1.000  H
  C1960    1.0000 0.60790  0.82774  0.95751  Biso   1.000  C
  C1961    1.0000 0.60974  0.84528  0.96999  Biso   1.000  C
  H1208    1.0000 0.59980  0.85620  0.96830  Biso   1.000  H
  C1962    1.0000 0.59132  0.82718  0.94123  Biso   1.000  C
  C1963    1.0000 0.57433  0.81030  0.91539  Biso   1.000  C
  C1964    1.0000 0.56489  0.84316  0.92411  Biso   1.000  C
  C1965    1.0000 0.53768  0.86178  0.90399  Biso   1.000  C
  H1209    1.0000 0.53630  0.84940  0.89580  Biso   1.000  H
  C1966    1.0000 0.55221  0.86185  0.92048  Biso   1.000  C
  C1967    1.0000 0.55411  0.87960  0.93265  Biso   1.000  C
  H1210    1.0000 0.56400  0.88030  0.94380  Biso   1.000  H
  C1968    1.0000 0.54109  0.89642  0.92808  Biso   1.000  C
  H1211    1.0000 0.54160  0.90870  0.93640  Biso   1.000  H
  C1969    1.0000 0.52746  0.89511  0.91140  Biso   1.000  C
  H1212    1.0000 0.51890  0.90690  0.90840  Biso   1.000  H
  C1970    1.0000 0.48237  0.86138  0.91699  Biso   1.000  C
  H1213    1.0000 0.49300  0.85110  0.91590  Biso   1.000  H
  C1971    1.0000 0.47060  0.86166  0.93460  Biso   1.000  C
  H1214    1.0000 0.47310  0.85190  0.94550  Biso   1.000  H
  C1972    1.0000 0.45470  0.87667  0.93640  Biso   1.000  C
  H1215    1.0000 0.44590  0.87710  0.94840  Biso   1.000  H
  C1973    1.0000 0.45217  0.89076  0.92016  Biso   1.000  C
  C1974    1.0000 0.46498  0.88915  0.90269  Biso   1.000  C
  H1216    1.0000 0.46300  0.89870  0.89150  Biso   1.000  H
  C1975    1.0000 0.43559  0.90698  0.92092  Biso   1.000  C
  C1976    1.0000 0.49941  0.92522  0.87389  Biso   1.000  C
  N751     1.0000 0.59096  0.76475  0.88308  Biso   1.000  N
  N752     1.0000 0.61285  0.89301  0.97554  Biso   1.000  N
  N753     1.0000 0.62503  0.84758  0.98449  Biso   1.000  N
  N754     1.0000 0.57960  0.84418  0.93909  Biso   1.000  N
  N755     1.0000 0.58966  0.80971  0.92975  Biso   1.000  N
  N756     1.0000 0.56113  0.82613  0.91237  Biso   1.000  N
  N757     1.0000 0.52568  0.87815  0.89925  Biso   1.000  N
  N758     1.0000 0.50119  0.90762  0.87324  Biso   1.000  N
  N759     1.0000 0.47991  0.87476  0.90103  Biso   1.000  N
  N760     1.0000 0.42169  0.90572  0.93603  Biso   1.000  N
  S151     1.0000 0.58696  0.92188  0.95537  Biso   1.000  S
  S152     1.0000 0.49784  0.95072  0.87654  Biso   1.000  S
  C1977    1.0000 0.65972  0.78011  0.35258  Biso   1.000  C
  H1217    1.0000 0.64760  0.78270  0.34440  Biso   1.000  H
  C1978    1.0000 0.67742  0.79250  0.34914  Biso   1.000  C
  C1979    1.0000 0.69523  0.78862  0.36072  Biso   1.000  C
  H1218    1.0000 0.70740  0.79700  0.35920  Biso   1.000  H
  C1980    1.0000 0.69486  0.77190  0.37482  Biso   1.000  C
  H1219    1.0000 0.70710  0.76820  0.38240  Biso   1.000  H
  C1981    1.0000 0.67686  0.76093  0.37758  Biso   1.000  C
  H1220    1.0000 0.67680  0.74990  0.38760  Biso   1.000  H
  C1982    1.0000 0.64774  0.90467  0.28338  Biso   1.000  C
  C1983    1.0000 0.61148  0.83157  0.26321  Biso   1.000  C
  H1221    1.0000 0.60060  0.83290  0.25320  Biso   1.000  H
  C1984    1.0000 0.61260  0.81334  0.27462  Biso   1.000  C
  H1222    1.0000 0.60310  0.80220  0.27200  Biso   1.000  H
  C1985    1.0000 0.62779  0.81142  0.29007  Biso   1.000  C
  H1223    1.0000 0.62840  0.79930  0.29870  Biso   1.000  H
  C1986    1.0000 0.64210  0.82774  0.29249  Biso   1.000  C
  C1987    1.0000 0.64026  0.84528  0.28001  Biso   1.000  C
  H1224    1.0000 0.65020  0.85620  0.28170  Biso   1.000  H
  C1988    1.0000 0.65868  0.82718  0.30877  Biso   1.000  C
  C1989    1.0000 0.67567  0.81030  0.33461  Biso   1.000  C
  C1990    1.0000 0.68511  0.84316  0.32589  Biso   1.000  C
  C1991    1.0000 0.71232  0.86178  0.34601  Biso   1.000  C
  H1225    1.0000 0.71370  0.84940  0.35420  Biso   1.000  H
  C1992    1.0000 0.69779  0.86185  0.32952  Biso   1.000  C
  C1993    1.0000 0.69589  0.87960  0.31735  Biso   1.000  C
  H1226    1.0000 0.68600  0.88030  0.30620  Biso   1.000  H
  C1994    1.0000 0.70891  0.89642  0.32192  Biso   1.000  C
  H1227    1.0000 0.70840  0.90870  0.31360  Biso   1.000  H
  C1995    1.0000 0.72254  0.89511  0.33860  Biso   1.000  C
  H1228    1.0000 0.73110  0.90690  0.34160  Biso   1.000  H
  C1996    1.0000 0.76763  0.86138  0.33301  Biso   1.000  C
  H1229    1.0000 0.75700  0.85110  0.33410  Biso   1.000  H
  C1997    1.0000 0.77940  0.86166  0.31540  Biso   1.000  C
  H1230    1.0000 0.77690  0.85190  0.30450  Biso   1.000  H
  C1998    1.0000 0.79530  0.87667  0.31360  Biso   1.000  C
  H1231    1.0000 0.80410  0.87710  0.30160  Biso   1.000  H
  C1999    1.0000 0.79783  0.89076  0.32984  Biso   1.000  C
  C2000    1.0000 0.78502  0.88915  0.34731  Biso   1.000  C
  H1232    1.0000 0.78700  0.89870  0.35850  Biso   1.000  H
  C2001    1.0000 0.81441  0.90698  0.32908  Biso   1.000  C
  C2002    1.0000 0.75059  0.92522  0.37611  Biso   1.000  C
  N761     1.0000 0.65904  0.76475  0.36692  Biso   1.000  N
  N762     1.0000 0.63715  0.89301  0.27446  Biso   1.000  N
  N763     1.0000 0.62497  0.84758  0.26551  Biso   1.000  N
  N764     1.0000 0.67040  0.84418  0.31091  Biso   1.000  N
  N765     1.0000 0.66034  0.80971  0.32025  Biso   1.000  N
  N766     1.0000 0.68887  0.82613  0.33763  Biso   1.000  N
  N767     1.0000 0.72432  0.87815  0.35075  Biso   1.000  N
  N768     1.0000 0.74881  0.90762  0.37676  Biso   1.000  N
  N769     1.0000 0.77009  0.87476  0.34897  Biso   1.000  N
  N770     1.0000 0.82831  0.90572  0.31397  Biso   1.000  N
  S153     1.0000 0.66304  0.92188  0.29463  Biso   1.000  S
  S154     1.0000 0.75216  0.95072  0.37346  Biso   1.000  S
  C2003    1.0000 0.65972  0.28011  0.85258  Biso   1.000  C
  H1233    1.0000 0.64760  0.28270  0.84440  Biso   1.000  H
  C2004    1.0000 0.67742  0.29250  0.84914  Biso   1.000  C
  C2005    1.0000 0.69523  0.28862  0.86072  Biso   1.000  C
  H1234    1.0000 0.70740  0.29700  0.85920  Biso   1.000  H
  C2006    1.0000 0.69486  0.27190  0.87482  Biso   1.000  C
  H1235    1.0000 0.70710  0.26820  0.88240  Biso   1.000  H
  C2007    1.0000 0.67686  0.26093  0.87758  Biso   1.000  C
  H1236    1.0000 0.67680  0.24990  0.88760  Biso   1.000  H
  C2008    1.0000 0.64774  0.40467  0.78338  Biso   1.000  C
  C2009    1.0000 0.61148  0.33157  0.76321  Biso   1.000  C
  H1237    1.0000 0.60060  0.33290  0.75320  Biso   1.000  H
  C2010    1.0000 0.61260  0.31334  0.77462  Biso   1.000  C
  H1238    1.0000 0.60310  0.30220  0.77200  Biso   1.000  H
  C2011    1.0000 0.62779  0.31142  0.79007  Biso   1.000  C
  H1239    1.0000 0.62840  0.29930  0.79870  Biso   1.000  H
  C2012    1.0000 0.64210  0.32774  0.79249  Biso   1.000  C
  C2013    1.0000 0.64026  0.34528  0.78001  Biso   1.000  C
  H1240    1.0000 0.65020  0.35620  0.78170  Biso   1.000  H
  C2014    1.0000 0.65868  0.32718  0.80877  Biso   1.000  C
  C2015    1.0000 0.67567  0.31030  0.83461  Biso   1.000  C
  C2016    1.0000 0.68511  0.34316  0.82589  Biso   1.000  C
  C2017    1.0000 0.71232  0.36178  0.84601  Biso   1.000  C
  H1241    1.0000 0.71370  0.34940  0.85420  Biso   1.000  H
  C2018    1.0000 0.69779  0.36185  0.82952  Biso   1.000  C
  C2019    1.0000 0.69589  0.37960  0.81735  Biso   1.000  C
  H1242    1.0000 0.68600  0.38030  0.80620  Biso   1.000  H
  C2020    1.0000 0.70891  0.39642  0.82192  Biso   1.000  C
  H1243    1.0000 0.70840  0.40870  0.81360  Biso   1.000  H
  C2021    1.0000 0.72254  0.39511  0.83860  Biso   1.000  C
  H1244    1.0000 0.73110  0.40690  0.84160  Biso   1.000  H
  C2022    1.0000 0.76763  0.36138  0.83301  Biso   1.000  C
  H1245    1.0000 0.75700  0.35110  0.83410  Biso   1.000  H
  C2023    1.0000 0.77940  0.36166  0.81540  Biso   1.000  C
  H1246    1.0000 0.77690  0.35190  0.80450  Biso   1.000  H
  C2024    1.0000 0.79530  0.37667  0.81360  Biso   1.000  C
  H1247    1.0000 0.80410  0.37710  0.80160  Biso   1.000  H
  C2025    1.0000 0.79783  0.39076  0.82984  Biso   1.000  C
  C2026    1.0000 0.78502  0.38915  0.84731  Biso   1.000  C
  H1248    1.0000 0.78700  0.39870  0.85850  Biso   1.000  H
  C2027    1.0000 0.81441  0.40698  0.82908  Biso   1.000  C
  C2028    1.0000 0.75059  0.42522  0.87611  Biso   1.000  C
  N771     1.0000 0.65904  0.26475  0.86692  Biso   1.000  N
  N772     1.0000 0.63715  0.39301  0.77446  Biso   1.000  N
  N773     1.0000 0.62497  0.34758  0.76551  Biso   1.000  N
  N774     1.0000 0.67040  0.34418  0.81091  Biso   1.000  N
  N775     1.0000 0.66034  0.30971  0.82025  Biso   1.000  N
  N776     1.0000 0.68887  0.32613  0.83763  Biso   1.000  N
  N777     1.0000 0.72432  0.37815  0.85075  Biso   1.000  N
  N778     1.0000 0.74881  0.40762  0.87676  Biso   1.000  N
  N779     1.0000 0.77009  0.37476  0.84897  Biso   1.000  N
  N780     1.0000 0.82831  0.40572  0.81397  Biso   1.000  N
  S155     1.0000 0.66304  0.42188  0.79463  Biso   1.000  S
  S156     1.0000 0.75216  0.45072  0.87346  Biso   1.000  S
  C2029    1.0000 0.15972  0.78011  0.85258  Biso   1.000  C
  H1249    1.0000 0.14760  0.78270  0.84440  Biso   1.000  H
  C2030    1.0000 0.17742  0.79250  0.84914  Biso   1.000  C
  C2031    1.0000 0.19523  0.78862  0.86072  Biso   1.000  C
  H1250    1.0000 0.20740  0.79700  0.85920  Biso   1.000  H
  C2032    1.0000 0.19486  0.77190  0.87482  Biso   1.000  C
  H1251    1.0000 0.20710  0.76820  0.88240  Biso   1.000  H
  C2033    1.0000 0.17686  0.76093  0.87758  Biso   1.000  C
  H1252    1.0000 0.17680  0.74990  0.88760  Biso   1.000  H
  C2034    1.0000 0.14774  0.90467  0.78338  Biso   1.000  C
  C2035    1.0000 0.11148  0.83157  0.76321  Biso   1.000  C
  H1253    1.0000 0.10060  0.83290  0.75320  Biso   1.000  H
  C2036    1.0000 0.11260  0.81334  0.77462  Biso   1.000  C
  H1254    1.0000 0.10310  0.80220  0.77200  Biso   1.000  H
  C2037    1.0000 0.12779  0.81142  0.79007  Biso   1.000  C
  H1255    1.0000 0.12840  0.79930  0.79870  Biso   1.000  H
  C2038    1.0000 0.14210  0.82774  0.79249  Biso   1.000  C
  C2039    1.0000 0.14026  0.84528  0.78001  Biso   1.000  C
  H1256    1.0000 0.15020  0.85620  0.78170  Biso   1.000  H
  C2040    1.0000 0.15868  0.82718  0.80877  Biso   1.000  C
  C2041    1.0000 0.17567  0.81030  0.83461  Biso   1.000  C
  C2042    1.0000 0.18511  0.84316  0.82589  Biso   1.000  C
  C2043    1.0000 0.21232  0.86178  0.84601  Biso   1.000  C
  H1257    1.0000 0.21370  0.84940  0.85420  Biso   1.000  H
  C2044    1.0000 0.19779  0.86185  0.82952  Biso   1.000  C
  C2045    1.0000 0.19589  0.87960  0.81735  Biso   1.000  C
  H1258    1.0000 0.18600  0.88030  0.80620  Biso   1.000  H
  C2046    1.0000 0.20891  0.89642  0.82192  Biso   1.000  C
  H1259    1.0000 0.20840  0.90870  0.81360  Biso   1.000  H
  C2047    1.0000 0.22254  0.89511  0.83860  Biso   1.000  C
  H1260    1.0000 0.23110  0.90690  0.84160  Biso   1.000  H
  C2048    1.0000 0.26763  0.86138  0.83301  Biso   1.000  C
  H1261    1.0000 0.25700  0.85110  0.83410  Biso   1.000  H
  C2049    1.0000 0.27940  0.86166  0.81540  Biso   1.000  C
  H1262    1.0000 0.27690  0.85190  0.80450  Biso   1.000  H
  C2050    1.0000 0.29530  0.87667  0.81360  Biso   1.000  C
  H1263    1.0000 0.30410  0.87710  0.80160  Biso   1.000  H
  C2051    1.0000 0.29783  0.89076  0.82984  Biso   1.000  C
  C2052    1.0000 0.28502  0.88915  0.84731  Biso   1.000  C
  H1264    1.0000 0.28700  0.89870  0.85850  Biso   1.000  H
  C2053    1.0000 0.31441  0.90698  0.82908  Biso   1.000  C
  C2054    1.0000 0.25059  0.92522  0.87611  Biso   1.000  C
  N781     1.0000 0.15904  0.76475  0.86692  Biso   1.000  N
  N782     1.0000 0.13715  0.89301  0.77446  Biso   1.000  N
  N783     1.0000 0.12497  0.84758  0.76551  Biso   1.000  N
  N784     1.0000 0.17040  0.84418  0.81091  Biso   1.000  N
  N785     1.0000 0.16034  0.80971  0.82025  Biso   1.000  N
  N786     1.0000 0.18887  0.82613  0.83763  Biso   1.000  N
  N787     1.0000 0.22432  0.87815  0.85075  Biso   1.000  N
  N788     1.0000 0.24881  0.90762  0.87676  Biso   1.000  N
  N789     1.0000 0.27009  0.87476  0.84897  Biso   1.000  N
  N790     1.0000 0.32831  0.90572  0.81397  Biso   1.000  N
  S157     1.0000 0.16304  0.92188  0.79463  Biso   1.000  S
  S158     1.0000 0.25216  0.95072  0.87346  Biso   1.000  S
  C2055    1.0000 0.15972  0.28011  0.35258  Biso   1.000  C
  H1265    1.0000 0.14760  0.28270  0.34440  Biso   1.000  H
  C2056    1.0000 0.17742  0.29250  0.34914  Biso   1.000  C
  C2057    1.0000 0.19523  0.28862  0.36072  Biso   1.000  C
  H1266    1.0000 0.20740  0.29700  0.35920  Biso   1.000  H
  C2058    1.0000 0.19486  0.27190  0.37482  Biso   1.000  C
  H1267    1.0000 0.20710  0.26820  0.38240  Biso   1.000  H
  C2059    1.0000 0.17686  0.26093  0.37758  Biso   1.000  C
  H1268    1.0000 0.17680  0.24990  0.38760  Biso   1.000  H
  C2060    1.0000 0.14774  0.40467  0.28338  Biso   1.000  C
  C2061    1.0000 0.11148  0.33157  0.26321  Biso   1.000  C
  H1269    1.0000 0.10060  0.33290  0.25320  Biso   1.000  H
  C2062    1.0000 0.11260  0.31334  0.27462  Biso   1.000  C
  H1270    1.0000 0.10310  0.30220  0.27200  Biso   1.000  H
  C2063    1.0000 0.12779  0.31142  0.29007  Biso   1.000  C
  H1271    1.0000 0.12840  0.29930  0.29870  Biso   1.000  H
  C2064    1.0000 0.14210  0.32774  0.29249  Biso   1.000  C
  C2065    1.0000 0.14026  0.34528  0.28001  Biso   1.000  C
  H1272    1.0000 0.15020  0.35620  0.28170  Biso   1.000  H
  C2066    1.0000 0.15868  0.32718  0.30877  Biso   1.000  C
  C2067    1.0000 0.17567  0.31030  0.33461  Biso   1.000  C
  C2068    1.0000 0.18511  0.34316  0.32589  Biso   1.000  C
  C2069    1.0000 0.21232  0.36178  0.34601  Biso   1.000  C
  H1273    1.0000 0.21370  0.34940  0.35420  Biso   1.000  H
  C2070    1.0000 0.19779  0.36185  0.32952  Biso   1.000  C
  C2071    1.0000 0.19589  0.37960  0.31735  Biso   1.000  C
  H1274    1.0000 0.18600  0.38030  0.30620  Biso   1.000  H
  C2072    1.0000 0.20891  0.39642  0.32192  Biso   1.000  C
  H1275    1.0000 0.20840  0.40870  0.31360  Biso   1.000  H
  C2073    1.0000 0.22254  0.39511  0.33860  Biso   1.000  C
  H1276    1.0000 0.23110  0.40690  0.34160  Biso   1.000  H
  C2074    1.0000 0.26763  0.36138  0.33301  Biso   1.000  C
  H1277    1.0000 0.25700  0.35110  0.33410  Biso   1.000  H
  C2075    1.0000 0.27940  0.36166  0.31540  Biso   1.000  C
  H1278    1.0000 0.27690  0.35190  0.30450  Biso   1.000  H
  C2076    1.0000 0.29530  0.37667  0.31360  Biso   1.000  C
  H1279    1.0000 0.30410  0.37710  0.30160  Biso   1.000  H
  C2077    1.0000 0.29783  0.39076  0.32984  Biso   1.000  C
  C2078    1.0000 0.28502  0.38915  0.34731  Biso   1.000  C
  H1280    1.0000 0.28700  0.39870  0.35850  Biso   1.000  H
  C2079    1.0000 0.31441  0.40698  0.32908  Biso   1.000  C
  C2080    1.0000 0.25059  0.42522  0.37611  Biso   1.000  C
  N791     1.0000 0.15904  0.26475  0.36692  Biso   1.000  N
  N792     1.0000 0.13715  0.39301  0.27446  Biso   1.000  N
  N793     1.0000 0.12497  0.34758  0.26551  Biso   1.000  N
  N794     1.0000 0.17040  0.34418  0.31091  Biso   1.000  N
  N795     1.0000 0.16034  0.30971  0.32025  Biso   1.000  N
  N796     1.0000 0.18887  0.32613  0.33763  Biso   1.000  N
  N797     1.0000 0.22432  0.37815  0.35075  Biso   1.000  N
  N798     1.0000 0.24881  0.40762  0.37676  Biso   1.000  N
  N799     1.0000 0.27009  0.37476  0.34897  Biso   1.000  N
  N800     1.0000 0.32831  0.40572  0.31397  Biso   1.000  N
  S159     1.0000 0.16304  0.42188  0.29463  Biso   1.000  S
  S160     1.0000 0.25216  0.45072  0.37346  Biso   1.000  S
  C2081    1.0000 0.96989  0.85258  0.59028  Biso   1.000  C
  H1281    1.0000 0.96730  0.84440  0.60240  Biso   1.000  H
  C2082    1.0000 0.95750  0.84914  0.57258  Biso   1.000  C
  C2083    1.0000 0.96138  0.86072  0.55477  Biso   1.000  C
  H1282    1.0000 0.95300  0.85920  0.54260  Biso   1.000  H
  C2084    1.0000 0.97810  0.87482  0.55514  Biso   1.000  C
  H1283    1.0000 0.98180  0.88240  0.54290  Biso   1.000  H
  C2085    1.0000 0.98907  0.87758  0.57314  Biso   1.000  C
  H1284    1.0000 0.00010  0.88760  0.57320  Biso   1.000  H
  C2086    1.0000 0.84533  0.78338  0.60226  Biso   1.000  C
  C2087    1.0000 0.91843  0.76321  0.63852  Biso   1.000  C
  H1285    1.0000 0.91710  0.75320  0.64940  Biso   1.000  H
  C2088    1.0000 0.93666  0.77462  0.63740  Biso   1.000  C
  H1286    1.0000 0.94780  0.77200  0.64690  Biso   1.000  H
  C2089    1.0000 0.93858  0.79007  0.62221  Biso   1.000  C
  H1287    1.0000 0.95070  0.79870  0.62160  Biso   1.000  H
  C2090    1.0000 0.92226  0.79249  0.60790  Biso   1.000  C
  C2091    1.0000 0.90472  0.78001  0.60974  Biso   1.000  C
  H1288    1.0000 0.89380  0.78170  0.59980  Biso   1.000  H
  C2092    1.0000 0.92282  0.80877  0.59132  Biso   1.000  C
  C2093    1.0000 0.93970  0.83461  0.57433  Biso   1.000  C
  C2094    1.0000 0.90684  0.82589  0.56489  Biso   1.000  C
  C2095    1.0000 0.88822  0.84601  0.53768  Biso   1.000  C
  H1289    1.0000 0.90060  0.85420  0.53630  Biso   1.000  H
  C2096    1.0000 0.88815  0.82952  0.55221  Biso   1.000  C
  C2097    1.0000 0.87040  0.81735  0.55411  Biso   1.000  C
  H1290    1.0000 0.86970  0.80620  0.56400  Biso   1.000  H
  C2098    1.0000 0.85358  0.82192  0.54109  Biso   1.000  C
  H1291    1.0000 0.84130  0.81360  0.54160  Biso   1.000  H
  C2099    1.0000 0.85489  0.83860  0.52746  Biso   1.000  C
  H1292    1.0000 0.84310  0.84160  0.51890  Biso   1.000  H
  C2100    1.0000 0.88862  0.83301  0.48237  Biso   1.000  C
  H1293    1.0000 0.89890  0.83410  0.49300  Biso   1.000  H
  C2101    1.0000 0.88834  0.81540  0.47060  Biso   1.000  C
  H1294    1.0000 0.89810  0.80450  0.47310  Biso   1.000  H
  C2102    1.0000 0.87333  0.81360  0.45470  Biso   1.000  C
  H1295    1.0000 0.87290  0.80160  0.44590  Biso   1.000  H
  C2103    1.0000 0.85924  0.82984  0.45217  Biso   1.000  C
  C2104    1.0000 0.86085  0.84731  0.46498  Biso   1.000  C
  H1296    1.0000 0.85130  0.85850  0.46300  Biso   1.000  H
  C2105    1.0000 0.84302  0.82908  0.43559  Biso   1.000  C
  C2106    1.0000 0.82478  0.87611  0.49941  Biso   1.000  C
  N801     1.0000 0.98525  0.86692  0.59096  Biso   1.000  N
  N802     1.0000 0.85699  0.77446  0.61285  Biso   1.000  N
  N803     1.0000 0.90242  0.76551  0.62503  Biso   1.000  N
  N804     1.0000 0.90582  0.81091  0.57960  Biso   1.000  N
  N805     1.0000 0.94029  0.82025  0.58966  Biso   1.000  N
  N806     1.0000 0.92387  0.83763  0.56113  Biso   1.000  N
  N807     1.0000 0.87185  0.85075  0.52568  Biso   1.000  N
  N808     1.0000 0.84238  0.87676  0.50119  Biso   1.000  N
  N809     1.0000 0.87524  0.84897  0.47991  Biso   1.000  N
  N810     1.0000 0.84428  0.81397  0.42169  Biso   1.000  N
  S161     1.0000 0.82812  0.79463  0.58696  Biso   1.000  S
  S162     1.0000 0.79928  0.87346  0.49784  Biso   1.000  S
  C2107    1.0000 0.96989  0.35258  0.09028  Biso   1.000  C
  H1297    1.0000 0.96730  0.34440  0.10240  Biso   1.000  H
  C2108    1.0000 0.95750  0.34914  0.07258  Biso   1.000  C
  C2109    1.0000 0.96138  0.36072  0.05477  Biso   1.000  C
  H1298    1.0000 0.95300  0.35920  0.04260  Biso   1.000  H
  C2110    1.0000 0.97810  0.37482  0.05514  Biso   1.000  C
  H1299    1.0000 0.98180  0.38240  0.04290  Biso   1.000  H
  C2111    1.0000 0.98907  0.37758  0.07314  Biso   1.000  C
  H1300    1.0000 0.00010  0.38760  0.07320  Biso   1.000  H
  C2112    1.0000 0.84533  0.28338  0.10226  Biso   1.000  C
  C2113    1.0000 0.91843  0.26321  0.13852  Biso   1.000  C
  H1301    1.0000 0.91710  0.25320  0.14940  Biso   1.000  H
  C2114    1.0000 0.93666  0.27462  0.13740  Biso   1.000  C
  H1302    1.0000 0.94780  0.27200  0.14690  Biso   1.000  H
  C2115    1.0000 0.93858  0.29007  0.12221  Biso   1.000  C
  H1303    1.0000 0.95070  0.29870  0.12160  Biso   1.000  H
  C2116    1.0000 0.92226  0.29249  0.10790  Biso   1.000  C
  C2117    1.0000 0.90472  0.28001  0.10974  Biso   1.000  C
  H1304    1.0000 0.89380  0.28170  0.09980  Biso   1.000  H
  C2118    1.0000 0.92282  0.30877  0.09132  Biso   1.000  C
  C2119    1.0000 0.93970  0.33461  0.07433  Biso   1.000  C
  C2120    1.0000 0.90684  0.32589  0.06489  Biso   1.000  C
  C2121    1.0000 0.88822  0.34601  0.03768  Biso   1.000  C
  H1305    1.0000 0.90060  0.35420  0.03630  Biso   1.000  H
  C2122    1.0000 0.88815  0.32952  0.05221  Biso   1.000  C
  C2123    1.0000 0.87040  0.31735  0.05411  Biso   1.000  C
  H1306    1.0000 0.86970  0.30620  0.06400  Biso   1.000  H
  C2124    1.0000 0.85358  0.32192  0.04109  Biso   1.000  C
  H1307    1.0000 0.84130  0.31360  0.04160  Biso   1.000  H
  C2125    1.0000 0.85489  0.33860  0.02746  Biso   1.000  C
  H1308    1.0000 0.84310  0.34160  0.01890  Biso   1.000  H
  C2126    1.0000 0.88862  0.33301  0.98237  Biso   1.000  C
  H1309    1.0000 0.89890  0.33410  0.99300  Biso   1.000  H
  C2127    1.0000 0.88834  0.31540  0.97060  Biso   1.000  C
  H1310    1.0000 0.89810  0.30450  0.97310  Biso   1.000  H
  C2128    1.0000 0.87333  0.31360  0.95470  Biso   1.000  C
  H1311    1.0000 0.87290  0.30160  0.94590  Biso   1.000  H
  C2129    1.0000 0.85924  0.32984  0.95217  Biso   1.000  C
  C2130    1.0000 0.86085  0.34731  0.96498  Biso   1.000  C
  H1312    1.0000 0.85130  0.35850  0.96300  Biso   1.000  H
  C2131    1.0000 0.84302  0.32908  0.93559  Biso   1.000  C
  C2132    1.0000 0.82478  0.37611  0.99941  Biso   1.000  C
  N811     1.0000 0.98525  0.36692  0.09096  Biso   1.000  N
  N812     1.0000 0.85699  0.27446  0.11285  Biso   1.000  N
  N813     1.0000 0.90242  0.26551  0.12503  Biso   1.000  N
  N814     1.0000 0.90582  0.31091  0.07960  Biso   1.000  N
  N815     1.0000 0.94029  0.32025  0.08966  Biso   1.000  N
  N816     1.0000 0.92387  0.33763  0.06113  Biso   1.000  N
  N817     1.0000 0.87185  0.35075  0.02568  Biso   1.000  N
  N818     1.0000 0.84238  0.37676  0.00119  Biso   1.000  N
  N819     1.0000 0.87524  0.34897  0.97991  Biso   1.000  N
  N820     1.0000 0.84428  0.31397  0.92169  Biso   1.000  N
  S163     1.0000 0.82812  0.29463  0.08696  Biso   1.000  S
  S164     1.0000 0.79928  0.37346  0.99784  Biso   1.000  S
  C2133    1.0000 0.46989  0.85258  0.09028  Biso   1.000  C
  H1313    1.0000 0.46730  0.84440  0.10240  Biso   1.000  H
  C2134    1.0000 0.45750  0.84914  0.07258  Biso   1.000  C
  C2135    1.0000 0.46138  0.86072  0.05477  Biso   1.000  C
  H1314    1.0000 0.45300  0.85920  0.04260  Biso   1.000  H
  C2136    1.0000 0.47810  0.87482  0.05514  Biso   1.000  C
  H1315    1.0000 0.48180  0.88240  0.04290  Biso   1.000  H
  C2137    1.0000 0.48907  0.87758  0.07314  Biso   1.000  C
  H1316    1.0000 0.50010  0.88760  0.07320  Biso   1.000  H
  C2138    1.0000 0.34533  0.78338  0.10226  Biso   1.000  C
  C2139    1.0000 0.41843  0.76321  0.13852  Biso   1.000  C
  H1317    1.0000 0.41710  0.75320  0.14940  Biso   1.000  H
  C2140    1.0000 0.43666  0.77462  0.13740  Biso   1.000  C
  H1318    1.0000 0.44780  0.77200  0.14690  Biso   1.000  H
  C2141    1.0000 0.43858  0.79007  0.12221  Biso   1.000  C
  H1319    1.0000 0.45070  0.79870  0.12160  Biso   1.000  H
  C2142    1.0000 0.42226  0.79249  0.10790  Biso   1.000  C
  C2143    1.0000 0.40472  0.78001  0.10974  Biso   1.000  C
  H1320    1.0000 0.39380  0.78170  0.09980  Biso   1.000  H
  C2144    1.0000 0.42282  0.80877  0.09132  Biso   1.000  C
  C2145    1.0000 0.43970  0.83461  0.07433  Biso   1.000  C
  C2146    1.0000 0.40684  0.82589  0.06489  Biso   1.000  C
  C2147    1.0000 0.38822  0.84601  0.03768  Biso   1.000  C
  H1321    1.0000 0.40060  0.85420  0.03630  Biso   1.000  H
  C2148    1.0000 0.38815  0.82952  0.05221  Biso   1.000  C
  C2149    1.0000 0.37040  0.81735  0.05411  Biso   1.000  C
  H1322    1.0000 0.36970  0.80620  0.06400  Biso   1.000  H
  C2150    1.0000 0.35358  0.82192  0.04109  Biso   1.000  C
  H1323    1.0000 0.34130  0.81360  0.04160  Biso   1.000  H
  C2151    1.0000 0.35489  0.83860  0.02746  Biso   1.000  C
  H1324    1.0000 0.34310  0.84160  0.01890  Biso   1.000  H
  C2152    1.0000 0.38862  0.83301  0.98237  Biso   1.000  C
  H1325    1.0000 0.39890  0.83410  0.99300  Biso   1.000  H
  C2153    1.0000 0.38834  0.81540  0.97060  Biso   1.000  C
  H1326    1.0000 0.39810  0.80450  0.97310  Biso   1.000  H
  C2154    1.0000 0.37333  0.81360  0.95470  Biso   1.000  C
  H1327    1.0000 0.37290  0.80160  0.94590  Biso   1.000  H
  C2155    1.0000 0.35924  0.82984  0.95217  Biso   1.000  C
  C2156    1.0000 0.36085  0.84731  0.96498  Biso   1.000  C
  H1328    1.0000 0.35130  0.85850  0.96300  Biso   1.000  H
  C2157    1.0000 0.34302  0.82908  0.93559  Biso   1.000  C
  C2158    1.0000 0.32478  0.87611  0.99941  Biso   1.000  C
  N821     1.0000 0.48525  0.86692  0.09096  Biso   1.000  N
  N822     1.0000 0.35699  0.77446  0.11285  Biso   1.000  N
  N823     1.0000 0.40242  0.76551  0.12503  Biso   1.000  N
  N824     1.0000 0.40582  0.81091  0.07960  Biso   1.000  N
  N825     1.0000 0.44029  0.82025  0.08966  Biso   1.000  N
  N826     1.0000 0.42387  0.83763  0.06113  Biso   1.000  N
  N827     1.0000 0.37185  0.85075  0.02568  Biso   1.000  N
  N828     1.0000 0.34238  0.87676  0.00119  Biso   1.000  N
  N829     1.0000 0.37524  0.84897  0.97991  Biso   1.000  N
  N830     1.0000 0.34428  0.81397  0.92169  Biso   1.000  N
  S165     1.0000 0.32812  0.79463  0.08696  Biso   1.000  S
  S166     1.0000 0.29928  0.87346  0.99784  Biso   1.000  S
  C2159    1.0000 0.46989  0.35258  0.59028  Biso   1.000  C
  H1329    1.0000 0.46730  0.34440  0.60240  Biso   1.000  H
  C2160    1.0000 0.45750  0.34914  0.57258  Biso   1.000  C
  C2161    1.0000 0.46138  0.36072  0.55477  Biso   1.000  C
  H1330    1.0000 0.45300  0.35920  0.54260  Biso   1.000  H
  C2162    1.0000 0.47810  0.37482  0.55514  Biso   1.000  C
  H1331    1.0000 0.48180  0.38240  0.54290  Biso   1.000  H
  C2163    1.0000 0.48907  0.37758  0.57314  Biso   1.000  C
  H1332    1.0000 0.50010  0.38760  0.57320  Biso   1.000  H
  C2164    1.0000 0.34533  0.28338  0.60226  Biso   1.000  C
  C2165    1.0000 0.41843  0.26321  0.63852  Biso   1.000  C
  H1333    1.0000 0.41710  0.25320  0.64940  Biso   1.000  H
  C2166    1.0000 0.43666  0.27462  0.63740  Biso   1.000  C
  H1334    1.0000 0.44780  0.27200  0.64690  Biso   1.000  H
  C2167    1.0000 0.43858  0.29007  0.62221  Biso   1.000  C
  H1335    1.0000 0.45070  0.29870  0.62160  Biso   1.000  H
  C2168    1.0000 0.42226  0.29249  0.60790  Biso   1.000  C
  C2169    1.0000 0.40472  0.28001  0.60974  Biso   1.000  C
  H1336    1.0000 0.39380  0.28170  0.59980  Biso   1.000  H
  C2170    1.0000 0.42282  0.30877  0.59132  Biso   1.000  C
  C2171    1.0000 0.43970  0.33461  0.57433  Biso   1.000  C
  C2172    1.0000 0.40684  0.32589  0.56489  Biso   1.000  C
  C2173    1.0000 0.38822  0.34601  0.53768  Biso   1.000  C
  H1337    1.0000 0.40060  0.35420  0.53630  Biso   1.000  H
  C2174    1.0000 0.38815  0.32952  0.55221  Biso   1.000  C
  C2175    1.0000 0.37040  0.31735  0.55411  Biso   1.000  C
  H1338    1.0000 0.36970  0.30620  0.56400  Biso   1.000  H
  C2176    1.0000 0.35358  0.32192  0.54109  Biso   1.000  C
  H1339    1.0000 0.34130  0.31360  0.54160  Biso   1.000  H
  C2177    1.0000 0.35489  0.33860  0.52746  Biso   1.000  C
  H1340    1.0000 0.34310  0.34160  0.51890  Biso   1.000  H
  C2178    1.0000 0.38862  0.33301  0.48237  Biso   1.000  C
  H1341    1.0000 0.39890  0.33410  0.49300  Biso   1.000  H
  C2179    1.0000 0.38834  0.31540  0.47060  Biso   1.000  C
  H1342    1.0000 0.39810  0.30450  0.47310  Biso   1.000  H
  C2180    1.0000 0.37333  0.31360  0.45470  Biso   1.000  C
  H1343    1.0000 0.37290  0.30160  0.44590  Biso   1.000  H
  C2181    1.0000 0.35924  0.32984  0.45217  Biso   1.000  C
  C2182    1.0000 0.36085  0.34731  0.46498  Biso   1.000  C
  H1344    1.0000 0.35130  0.35850  0.46300  Biso   1.000  H
  C2183    1.0000 0.34302  0.32908  0.43559  Biso   1.000  C
  C2184    1.0000 0.32478  0.37611  0.49941  Biso   1.000  C
  N831     1.0000 0.48525  0.36692  0.59096  Biso   1.000  N
  N832     1.0000 0.35699  0.27446  0.61285  Biso   1.000  N
  N833     1.0000 0.40242  0.26551  0.62503  Biso   1.000  N
  N834     1.0000 0.40582  0.31091  0.57960  Biso   1.000  N
  N835     1.0000 0.44029  0.32025  0.58966  Biso   1.000  N
  N836     1.0000 0.42387  0.33763  0.56113  Biso   1.000  N
  N837     1.0000 0.37185  0.35075  0.52568  Biso   1.000  N
  N838     1.0000 0.34238  0.37676  0.50119  Biso   1.000  N
  N839     1.0000 0.37524  0.34897  0.47991  Biso   1.000  N
  N840     1.0000 0.34428  0.31397  0.42169  Biso   1.000  N
  S167     1.0000 0.32812  0.29463  0.58696  Biso   1.000  S
  S168     1.0000 0.29928  0.37346  0.49784  Biso   1.000  S
  C2185    1.0000 0.46989  0.39742  0.15972  Biso   1.000  C
  H1345    1.0000 0.46730  0.40560  0.14760  Biso   1.000  H
  C2186    1.0000 0.45750  0.40086  0.17742  Biso   1.000  C
  C2187    1.0000 0.46138  0.38928  0.19523  Biso   1.000  C
  H1346    1.0000 0.45300  0.39080  0.20740  Biso   1.000  H
  C2188    1.0000 0.47810  0.37518  0.19486  Biso   1.000  C
  H1347    1.0000 0.48180  0.36760  0.20710  Biso   1.000  H
  C2189    1.0000 0.48907  0.37242  0.17686  Biso   1.000  C
  H1348    1.0000 0.50010  0.36240  0.17680  Biso   1.000  H
  C2190    1.0000 0.34533  0.46662  0.14774  Biso   1.000  C
  C2191    1.0000 0.41843  0.48679  0.11148  Biso   1.000  C
  H1349    1.0000 0.41710  0.49680  0.10060  Biso   1.000  H
  C2192    1.0000 0.43666  0.47538  0.11260  Biso   1.000  C
  H1350    1.0000 0.44780  0.47800  0.10310  Biso   1.000  H
  C2193    1.0000 0.43858  0.45993  0.12779  Biso   1.000  C
  H1351    1.0000 0.45070  0.45130  0.12840  Biso   1.000  H
  C2194    1.0000 0.42226  0.45751  0.14210  Biso   1.000  C
  C2195    1.0000 0.40472  0.46999  0.14026  Biso   1.000  C
  H1352    1.0000 0.39380  0.46830  0.15020  Biso   1.000  H
  C2196    1.0000 0.42282  0.44123  0.15868  Biso   1.000  C
  C2197    1.0000 0.43970  0.41539  0.17567  Biso   1.000  C
  C2198    1.0000 0.40684  0.42411  0.18511  Biso   1.000  C
  C2199    1.0000 0.38822  0.40399  0.21232  Biso   1.000  C
  H1353    1.0000 0.40060  0.39580  0.21370  Biso   1.000  H
  C2200    1.0000 0.38815  0.42048  0.19779  Biso   1.000  C
  C2201    1.0000 0.37040  0.43265  0.19589  Biso   1.000  C
  H1354    1.0000 0.36970  0.44380  0.18600  Biso   1.000  H
  C2202    1.0000 0.35358  0.42808  0.20891  Biso   1.000  C
  H1355    1.0000 0.34130  0.43640  0.20840  Biso   1.000  H
  C2203    1.0000 0.35489  0.41140  0.22254  Biso   1.000  C
  H1356    1.0000 0.34310  0.40840  0.23110  Biso   1.000  H
  C2204    1.0000 0.38862  0.41699  0.26763  Biso   1.000  C
  H1357    1.0000 0.39890  0.41590  0.25700  Biso   1.000  H
  C2205    1.0000 0.38834  0.43460  0.27940  Biso   1.000  C
  H1358    1.0000 0.39810  0.44550  0.27690  Biso   1.000  H
  C2206    1.0000 0.37333  0.43640  0.29530  Biso   1.000  C
  H1359    1.0000 0.37290  0.44840  0.30410  Biso   1.000  H
  C2207    1.0000 0.35924  0.42016  0.29783  Biso   1.000  C
  C2208    1.0000 0.36085  0.40269  0.28502  Biso   1.000  C
  H1360    1.0000 0.35130  0.39150  0.28700  Biso   1.000  H
  C2209    1.0000 0.34302  0.42092  0.31441  Biso   1.000  C
  C2210    1.0000 0.32478  0.37389  0.25059  Biso   1.000  C
  N841     1.0000 0.48525  0.38308  0.15904  Biso   1.000  N
  N842     1.0000 0.35699  0.47554  0.13715  Biso   1.000  N
  N843     1.0000 0.40242  0.48449  0.12497  Biso   1.000  N
  N844     1.0000 0.40582  0.43909  0.17040  Biso   1.000  N
  N845     1.0000 0.44029  0.42975  0.16034  Biso   1.000  N
  N846     1.0000 0.42387  0.41237  0.18887  Biso   1.000  N
  N847     1.0000 0.37185  0.39925  0.22432  Biso   1.000  N
  N848     1.0000 0.34238  0.37324  0.24881  Biso   1.000  N
  N849     1.0000 0.37524  0.40103  0.27009  Biso   1.000  N
  N850     1.0000 0.34428  0.43603  0.32831  Biso   1.000  N
  S169     1.0000 0.32812  0.45537  0.16304  Biso   1.000  S
  S170     1.0000 0.29928  0.37654  0.25216  Biso   1.000  S
  C2211    1.0000 0.46989  0.89742  0.65972  Biso   1.000  C
  H1361    1.0000 0.46730  0.90560  0.64760  Biso   1.000  H
  C2212    1.0000 0.45750  0.90086  0.67742  Biso   1.000  C
  C2213    1.0000 0.46138  0.88928  0.69523  Biso   1.000  C
  H1362    1.0000 0.45300  0.89080  0.70740  Biso   1.000  H
  C2214    1.0000 0.47810  0.87518  0.69486  Biso   1.000  C
  H1363    1.0000 0.48180  0.86760  0.70710  Biso   1.000  H
  C2215    1.0000 0.48907  0.87242  0.67686  Biso   1.000  C
  H1364    1.0000 0.50010  0.86240  0.67680  Biso   1.000  H
  C2216    1.0000 0.34533  0.96662  0.64774  Biso   1.000  C
  C2217    1.0000 0.41843  0.98679  0.61148  Biso   1.000  C
  H1365    1.0000 0.41710  0.99680  0.60060  Biso   1.000  H
  C2218    1.0000 0.43666  0.97538  0.61260  Biso   1.000  C
  H1366    1.0000 0.44780  0.97800  0.60310  Biso   1.000  H
  C2219    1.0000 0.43858  0.95993  0.62779  Biso   1.000  C
  H1367    1.0000 0.45070  0.95130  0.62840  Biso   1.000  H
  C2220    1.0000 0.42226  0.95751  0.64210  Biso   1.000  C
  C2221    1.0000 0.40472  0.96999  0.64026  Biso   1.000  C
  H1368    1.0000 0.39380  0.96830  0.65020  Biso   1.000  H
  C2222    1.0000 0.42282  0.94123  0.65868  Biso   1.000  C
  C2223    1.0000 0.43970  0.91539  0.67567  Biso   1.000  C
  C2224    1.0000 0.40684  0.92411  0.68511  Biso   1.000  C
  C2225    1.0000 0.38822  0.90399  0.71232  Biso   1.000  C
  H1369    1.0000 0.40060  0.89580  0.71370  Biso   1.000  H
  C2226    1.0000 0.38815  0.92048  0.69779  Biso   1.000  C
  C2227    1.0000 0.37040  0.93265  0.69589  Biso   1.000  C
  H1370    1.0000 0.36970  0.94380  0.68600  Biso   1.000  H
  C2228    1.0000 0.35358  0.92808  0.70891  Biso   1.000  C
  H1371    1.0000 0.34130  0.93640  0.70840  Biso   1.000  H
  C2229    1.0000 0.35489  0.91140  0.72254  Biso   1.000  C
  H1372    1.0000 0.34310  0.90840  0.73110  Biso   1.000  H
  C2230    1.0000 0.38862  0.91699  0.76763  Biso   1.000  C
  H1373    1.0000 0.39890  0.91590  0.75700  Biso   1.000  H
  C2231    1.0000 0.38834  0.93460  0.77940  Biso   1.000  C
  H1374    1.0000 0.39810  0.94550  0.77690  Biso   1.000  H
  C2232    1.0000 0.37333  0.93640  0.79530  Biso   1.000  C
  H1375    1.0000 0.37290  0.94840  0.80410  Biso   1.000  H
  C2233    1.0000 0.35924  0.92016  0.79783  Biso   1.000  C
  C2234    1.0000 0.36085  0.90269  0.78502  Biso   1.000  C
  H1376    1.0000 0.35130  0.89150  0.78700  Biso   1.000  H
  C2235    1.0000 0.34302  0.92092  0.81441  Biso   1.000  C
  C2236    1.0000 0.32478  0.87389  0.75059  Biso   1.000  C
  N851     1.0000 0.48525  0.88308  0.65904  Biso   1.000  N
  N852     1.0000 0.35699  0.97554  0.63715  Biso   1.000  N
  N853     1.0000 0.40242  0.98449  0.62497  Biso   1.000  N
  N854     1.0000 0.40582  0.93909  0.67040  Biso   1.000  N
  N855     1.0000 0.44029  0.92975  0.66034  Biso   1.000  N
  N856     1.0000 0.42387  0.91237  0.68887  Biso   1.000  N
  N857     1.0000 0.37185  0.89925  0.72432  Biso   1.000  N
  N858     1.0000 0.34238  0.87324  0.74881  Biso   1.000  N
  N859     1.0000 0.37524  0.90103  0.77009  Biso   1.000  N
  N860     1.0000 0.34428  0.93603  0.82831  Biso   1.000  N
  S171     1.0000 0.32812  0.95537  0.66304  Biso   1.000  S
  S172     1.0000 0.29928  0.87654  0.75216  Biso   1.000  S
  C2237    1.0000 0.96989  0.39742  0.65972  Biso   1.000  C
  H1377    1.0000 0.96730  0.40560  0.64760  Biso   1.000  H
  C2238    1.0000 0.95750  0.40086  0.67742  Biso   1.000  C
  C2239    1.0000 0.96138  0.38928  0.69523  Biso   1.000  C
  H1378    1.0000 0.95300  0.39080  0.70740  Biso   1.000  H
  C2240    1.0000 0.97810  0.37518  0.69486  Biso   1.000  C
  H1379    1.0000 0.98180  0.36760  0.70710  Biso   1.000  H
  C2241    1.0000 0.98907  0.37242  0.67686  Biso   1.000  C
  H1380    1.0000 0.00010  0.36240  0.67680  Biso   1.000  H
  C2242    1.0000 0.84533  0.46662  0.64774  Biso   1.000  C
  C2243    1.0000 0.91843  0.48679  0.61148  Biso   1.000  C
  H1381    1.0000 0.91710  0.49680  0.60060  Biso   1.000  H
  C2244    1.0000 0.93666  0.47538  0.61260  Biso   1.000  C
  H1382    1.0000 0.94780  0.47800  0.60310  Biso   1.000  H
  C2245    1.0000 0.93858  0.45993  0.62779  Biso   1.000  C
  H1383    1.0000 0.95070  0.45130  0.62840  Biso   1.000  H
  C2246    1.0000 0.92226  0.45751  0.64210  Biso   1.000  C
  C2247    1.0000 0.90472  0.46999  0.64026  Biso   1.000  C
  H1384    1.0000 0.89380  0.46830  0.65020  Biso   1.000  H
  C2248    1.0000 0.92282  0.44123  0.65868  Biso   1.000  C
  C2249    1.0000 0.93970  0.41539  0.67567  Biso   1.000  C
  C2250    1.0000 0.90684  0.42411  0.68511  Biso   1.000  C
  C2251    1.0000 0.88822  0.40399  0.71232  Biso   1.000  C
  H1385    1.0000 0.90060  0.39580  0.71370  Biso   1.000  H
  C2252    1.0000 0.88815  0.42048  0.69779  Biso   1.000  C
  C2253    1.0000 0.87040  0.43265  0.69589  Biso   1.000  C
  H1386    1.0000 0.86970  0.44380  0.68600  Biso   1.000  H
  C2254    1.0000 0.85358  0.42808  0.70891  Biso   1.000  C
  H1387    1.0000 0.84130  0.43640  0.70840  Biso   1.000  H
  C2255    1.0000 0.85489  0.41140  0.72254  Biso   1.000  C
  H1388    1.0000 0.84310  0.40840  0.73110  Biso   1.000  H
  C2256    1.0000 0.88862  0.41699  0.76763  Biso   1.000  C
  H1389    1.0000 0.89890  0.41590  0.75700  Biso   1.000  H
  C2257    1.0000 0.88834  0.43460  0.77940  Biso   1.000  C
  H1390    1.0000 0.89810  0.44550  0.77690  Biso   1.000  H
  C2258    1.0000 0.87333  0.43640  0.79530  Biso   1.000  C
  H1391    1.0000 0.87290  0.44840  0.80410  Biso   1.000  H
  C2259    1.0000 0.85924  0.42016  0.79783  Biso   1.000  C
  C2260    1.0000 0.86085  0.40269  0.78502  Biso   1.000  C
  H1392    1.0000 0.85130  0.39150  0.78700  Biso   1.000  H
  C2261    1.0000 0.84302  0.42092  0.81441  Biso   1.000  C
  C2262    1.0000 0.82478  0.37389  0.75059  Biso   1.000  C
  N861     1.0000 0.98525  0.38308  0.65904  Biso   1.000  N
  N862     1.0000 0.85699  0.47554  0.63715  Biso   1.000  N
  N863     1.0000 0.90242  0.48449  0.62497  Biso   1.000  N
  N864     1.0000 0.90582  0.43909  0.67040  Biso   1.000  N
  N865     1.0000 0.94029  0.42975  0.66034  Biso   1.000  N
  N866     1.0000 0.92387  0.41237  0.68887  Biso   1.000  N
  N867     1.0000 0.87185  0.39925  0.72432  Biso   1.000  N
  N868     1.0000 0.84238  0.37324  0.74881  Biso   1.000  N
  N869     1.0000 0.87524  0.40103  0.77009  Biso   1.000  N
  N870     1.0000 0.84428  0.43603  0.82831  Biso   1.000  N
  S173     1.0000 0.82812  0.45537  0.66304  Biso   1.000  S
  S174     1.0000 0.79928  0.37654  0.75216  Biso   1.000  S
  C2263    1.0000 0.96989  0.89742  0.15972  Biso   1.000  C
  H1393    1.0000 0.96730  0.90560  0.14760  Biso   1.000  H
  C2264    1.0000 0.95750  0.90086  0.17742  Biso   1.000  C
  C2265    1.0000 0.96138  0.88928  0.19523  Biso   1.000  C
  H1394    1.0000 0.95300  0.89080  0.20740  Biso   1.000  H
  C2266    1.0000 0.97810  0.87518  0.19486  Biso   1.000  C
  H1395    1.0000 0.98180  0.86760  0.20710  Biso   1.000  H
  C2267    1.0000 0.98907  0.87242  0.17686  Biso   1.000  C
  H1396    1.0000 0.00010  0.86240  0.17680  Biso   1.000  H
  C2268    1.0000 0.84533  0.96662  0.14774  Biso   1.000  C
  C2269    1.0000 0.91843  0.98679  0.11148  Biso   1.000  C
  H1397    1.0000 0.91710  0.99680  0.10060  Biso   1.000  H
  C2270    1.0000 0.93666  0.97538  0.11260  Biso   1.000  C
  H1398    1.0000 0.94780  0.97800  0.10310  Biso   1.000  H
  C2271    1.0000 0.93858  0.95993  0.12779  Biso   1.000  C
  H1399    1.0000 0.95070  0.95130  0.12840  Biso   1.000  H
  C2272    1.0000 0.92226  0.95751  0.14210  Biso   1.000  C
  C2273    1.0000 0.90472  0.96999  0.14026  Biso   1.000  C
  H1400    1.0000 0.89380  0.96830  0.15020  Biso   1.000  H
  C2274    1.0000 0.92282  0.94123  0.15868  Biso   1.000  C
  C2275    1.0000 0.93970  0.91539  0.17567  Biso   1.000  C
  C2276    1.0000 0.90684  0.92411  0.18511  Biso   1.000  C
  C2277    1.0000 0.88822  0.90399  0.21232  Biso   1.000  C
  H1401    1.0000 0.90060  0.89580  0.21370  Biso   1.000  H
  C2278    1.0000 0.88815  0.92048  0.19779  Biso   1.000  C
  C2279    1.0000 0.87040  0.93265  0.19589  Biso   1.000  C
  H1402    1.0000 0.86970  0.94380  0.18600  Biso   1.000  H
  C2280    1.0000 0.85358  0.92808  0.20891  Biso   1.000  C
  H1403    1.0000 0.84130  0.93640  0.20840  Biso   1.000  H
  C2281    1.0000 0.85489  0.91140  0.22254  Biso   1.000  C
  H1404    1.0000 0.84310  0.90840  0.23110  Biso   1.000  H
  C2282    1.0000 0.88862  0.91699  0.26763  Biso   1.000  C
  H1405    1.0000 0.89890  0.91590  0.25700  Biso   1.000  H
  C2283    1.0000 0.88834  0.93460  0.27940  Biso   1.000  C
  H1406    1.0000 0.89810  0.94550  0.27690  Biso   1.000  H
  C2284    1.0000 0.87333  0.93640  0.29530  Biso   1.000  C
  H1407    1.0000 0.87290  0.94840  0.30410  Biso   1.000  H
  C2285    1.0000 0.85924  0.92016  0.29783  Biso   1.000  C
  C2286    1.0000 0.86085  0.90269  0.28502  Biso   1.000  C
  H1408    1.0000 0.85130  0.89150  0.28700  Biso   1.000  H
  C2287    1.0000 0.84302  0.92092  0.31441  Biso   1.000  C
  C2288    1.0000 0.82478  0.87389  0.25059  Biso   1.000  C
  N871     1.0000 0.98525  0.88308  0.15904  Biso   1.000  N
  N872     1.0000 0.85699  0.97554  0.13715  Biso   1.000  N
  N873     1.0000 0.90242  0.98449  0.12497  Biso   1.000  N
  N874     1.0000 0.90582  0.93909  0.17040  Biso   1.000  N
  N875     1.0000 0.94029  0.92975  0.16034  Biso   1.000  N
  N876     1.0000 0.92387  0.91237  0.18887  Biso   1.000  N
  N877     1.0000 0.87185  0.89925  0.22432  Biso   1.000  N
  N878     1.0000 0.84238  0.87324  0.24881  Biso   1.000  N
  N879     1.0000 0.87524  0.90103  0.27009  Biso   1.000  N
  N880     1.0000 0.84428  0.93603  0.32831  Biso   1.000  N
  S175     1.0000 0.82812  0.95537  0.16304  Biso   1.000  S
  S176     1.0000 0.79928  0.87654  0.25216  Biso   1.000  S
  C2289    1.0000 0.78011  0.35258  0.65972  Biso   1.000  C
  H1409    1.0000 0.78270  0.34440  0.64760  Biso   1.000  H
  C2290    1.0000 0.79250  0.34914  0.67742  Biso   1.000  C
  C2291    1.0000 0.78862  0.36072  0.69523  Biso   1.000  C
  H1410    1.0000 0.79700  0.35920  0.70740  Biso   1.000  H
  C2292    1.0000 0.77190  0.37482  0.69486  Biso   1.000  C
  H1411    1.0000 0.76820  0.38240  0.70710  Biso   1.000  H
  C2293    1.0000 0.76093  0.37758  0.67686  Biso   1.000  C
  H1412    1.0000 0.74990  0.38760  0.67680  Biso   1.000  H
  C2294    1.0000 0.90467  0.28338  0.64774  Biso   1.000  C
  C2295    1.0000 0.83157  0.26321  0.61148  Biso   1.000  C
  H1413    1.0000 0.83290  0.25320  0.60060  Biso   1.000  H
  C2296    1.0000 0.81334  0.27462  0.61260  Biso   1.000  C
  H1414    1.0000 0.80220  0.27200  0.60310  Biso   1.000  H
  C2297    1.0000 0.81142  0.29007  0.62779  Biso   1.000  C
  H1415    1.0000 0.79930  0.29870  0.62840  Biso   1.000  H
  C2298    1.0000 0.82774  0.29249  0.64210  Biso   1.000  C
  C2299    1.0000 0.84528  0.28001  0.64026  Biso   1.000  C
  H1416    1.0000 0.85620  0.28170  0.65020  Biso   1.000  H
  C2300    1.0000 0.82718  0.30877  0.65868  Biso   1.000  C
  C2301    1.0000 0.81030  0.33461  0.67567  Biso   1.000  C
  C2302    1.0000 0.84316  0.32589  0.68511  Biso   1.000  C
  C2303    1.0000 0.86178  0.34601  0.71232  Biso   1.000  C
  H1417    1.0000 0.84940  0.35420  0.71370  Biso   1.000  H
  C2304    1.0000 0.86185  0.32952  0.69779  Biso   1.000  C
  C2305    1.0000 0.87960  0.31735  0.69589  Biso   1.000  C
  H1418    1.0000 0.88030  0.30620  0.68600  Biso   1.000  H
  C2306    1.0000 0.89642  0.32192  0.70891  Biso   1.000  C
  H1419    1.0000 0.90870  0.31360  0.70840  Biso   1.000  H
  C2307    1.0000 0.89511  0.33860  0.72254  Biso   1.000  C
  H1420    1.0000 0.90690  0.34160  0.73110  Biso   1.000  H
  C2308    1.0000 0.86138  0.33301  0.76763  Biso   1.000  C
  H1421    1.0000 0.85110  0.33410  0.75700  Biso   1.000  H
  C2309    1.0000 0.86166  0.31540  0.77940  Biso   1.000  C
  H1422    1.0000 0.85190  0.30450  0.77690  Biso   1.000  H
  C2310    1.0000 0.87667  0.31360  0.79530  Biso   1.000  C
  H1423    1.0000 0.87710  0.30160  0.80410  Biso   1.000  H
  C2311    1.0000 0.89076  0.32984  0.79783  Biso   1.000  C
  C2312    1.0000 0.88915  0.34731  0.78502  Biso   1.000  C
  H1424    1.0000 0.89870  0.35850  0.78700  Biso   1.000  H
  C2313    1.0000 0.90698  0.32908  0.81441  Biso   1.000  C
  C2314    1.0000 0.92522  0.37611  0.75059  Biso   1.000  C
  N881     1.0000 0.76475  0.36692  0.65904  Biso   1.000  N
  N882     1.0000 0.89301  0.27446  0.63715  Biso   1.000  N
  N883     1.0000 0.84758  0.26551  0.62497  Biso   1.000  N
  N884     1.0000 0.84418  0.31091  0.67040  Biso   1.000  N
  N885     1.0000 0.80971  0.32025  0.66034  Biso   1.000  N
  N886     1.0000 0.82613  0.33763  0.68887  Biso   1.000  N
  N887     1.0000 0.87815  0.35075  0.72432  Biso   1.000  N
  N888     1.0000 0.90762  0.37676  0.74881  Biso   1.000  N
  N889     1.0000 0.87476  0.34897  0.77009  Biso   1.000  N
  N890     1.0000 0.90572  0.31397  0.82831  Biso   1.000  N
  S177     1.0000 0.92188  0.29463  0.66304  Biso   1.000  S
  S178     1.0000 0.95072  0.37346  0.75216  Biso   1.000  S
  C2315    1.0000 0.78011  0.85258  0.15972  Biso   1.000  C
  H1425    1.0000 0.78270  0.84440  0.14760  Biso   1.000  H
  C2316    1.0000 0.79250  0.84914  0.17742  Biso   1.000  C
  C2317    1.0000 0.78862  0.86072  0.19523  Biso   1.000  C
  H1426    1.0000 0.79700  0.85920  0.20740  Biso   1.000  H
  C2318    1.0000 0.77190  0.87482  0.19486  Biso   1.000  C
  H1427    1.0000 0.76820  0.88240  0.20710  Biso   1.000  H
  C2319    1.0000 0.76093  0.87758  0.17686  Biso   1.000  C
  H1428    1.0000 0.74990  0.88760  0.17680  Biso   1.000  H
  C2320    1.0000 0.90467  0.78338  0.14774  Biso   1.000  C
  C2321    1.0000 0.83157  0.76321  0.11148  Biso   1.000  C
  H1429    1.0000 0.83290  0.75320  0.10060  Biso   1.000  H
  C2322    1.0000 0.81334  0.77462  0.11260  Biso   1.000  C
  H1430    1.0000 0.80220  0.77200  0.10310  Biso   1.000  H
  C2323    1.0000 0.81142  0.79007  0.12779  Biso   1.000  C
  H1431    1.0000 0.79930  0.79870  0.12840  Biso   1.000  H
  C2324    1.0000 0.82774  0.79249  0.14210  Biso   1.000  C
  C2325    1.0000 0.84528  0.78001  0.14026  Biso   1.000  C
  H1432    1.0000 0.85620  0.78170  0.15020  Biso   1.000  H
  C2326    1.0000 0.82718  0.80877  0.15868  Biso   1.000  C
  C2327    1.0000 0.81030  0.83461  0.17567  Biso   1.000  C
  C2328    1.0000 0.84316  0.82589  0.18511  Biso   1.000  C
  C2329    1.0000 0.86178  0.84601  0.21232  Biso   1.000  C
  H1433    1.0000 0.84940  0.85420  0.21370  Biso   1.000  H
  C2330    1.0000 0.86185  0.82952  0.19779  Biso   1.000  C
  C2331    1.0000 0.87960  0.81735  0.19589  Biso   1.000  C
  H1434    1.0000 0.88030  0.80620  0.18600  Biso   1.000  H
  C2332    1.0000 0.89642  0.82192  0.20891  Biso   1.000  C
  H1435    1.0000 0.90870  0.81360  0.20840  Biso   1.000  H
  C2333    1.0000 0.89511  0.83860  0.22254  Biso   1.000  C
  H1436    1.0000 0.90690  0.84160  0.23110  Biso   1.000  H
  C2334    1.0000 0.86138  0.83301  0.26763  Biso   1.000  C
  H1437    1.0000 0.85110  0.83410  0.25700  Biso   1.000  H
  C2335    1.0000 0.86166  0.81540  0.27940  Biso   1.000  C
  H1438    1.0000 0.85190  0.80450  0.27690  Biso   1.000  H
  C2336    1.0000 0.87667  0.81360  0.29530  Biso   1.000  C
  H1439    1.0000 0.87710  0.80160  0.30410  Biso   1.000  H
  C2337    1.0000 0.89076  0.82984  0.29783  Biso   1.000  C
  C2338    1.0000 0.88915  0.84731  0.28502  Biso   1.000  C
  H1440    1.0000 0.89870  0.85850  0.28700  Biso   1.000  H
  C2339    1.0000 0.90698  0.82908  0.31441  Biso   1.000  C
  C2340    1.0000 0.92522  0.87611  0.25059  Biso   1.000  C
  N891     1.0000 0.76475  0.86692  0.15904  Biso   1.000  N
  N892     1.0000 0.89301  0.77446  0.13715  Biso   1.000  N
  N893     1.0000 0.84758  0.76551  0.12497  Biso   1.000  N
  N894     1.0000 0.84418  0.81091  0.17040  Biso   1.000  N
  N895     1.0000 0.80971  0.82025  0.16034  Biso   1.000  N
  N896     1.0000 0.82613  0.83763  0.18887  Biso   1.000  N
  N897     1.0000 0.87815  0.85075  0.22432  Biso   1.000  N
  N898     1.0000 0.90762  0.87676  0.24881  Biso   1.000  N
  N899     1.0000 0.87476  0.84897  0.27009  Biso   1.000  N
  N900     1.0000 0.90572  0.81397  0.32831  Biso   1.000  N
  S179     1.0000 0.92188  0.79463  0.16304  Biso   1.000  S
  S180     1.0000 0.95072  0.87346  0.25216  Biso   1.000  S
  C2341    1.0000 0.28011  0.35258  0.15972  Biso   1.000  C
  H1441    1.0000 0.28270  0.34440  0.14760  Biso   1.000  H
  C2342    1.0000 0.29250  0.34914  0.17742  Biso   1.000  C
  C2343    1.0000 0.28862  0.36072  0.19523  Biso   1.000  C
  H1442    1.0000 0.29700  0.35920  0.20740  Biso   1.000  H
  C2344    1.0000 0.27190  0.37482  0.19486  Biso   1.000  C
  H1443    1.0000 0.26820  0.38240  0.20710  Biso   1.000  H
  C2345    1.0000 0.26093  0.37758  0.17686  Biso   1.000  C
  H1444    1.0000 0.24990  0.38760  0.17680  Biso   1.000  H
  C2346    1.0000 0.40467  0.28338  0.14774  Biso   1.000  C
  C2347    1.0000 0.33157  0.26321  0.11148  Biso   1.000  C
  H1445    1.0000 0.33290  0.25320  0.10060  Biso   1.000  H
  C2348    1.0000 0.31334  0.27462  0.11260  Biso   1.000  C
  H1446    1.0000 0.30220  0.27200  0.10310  Biso   1.000  H
  C2349    1.0000 0.31142  0.29007  0.12779  Biso   1.000  C
  H1447    1.0000 0.29930  0.29870  0.12840  Biso   1.000  H
  C2350    1.0000 0.32774  0.29249  0.14210  Biso   1.000  C
  C2351    1.0000 0.34528  0.28001  0.14026  Biso   1.000  C
  H1448    1.0000 0.35620  0.28170  0.15020  Biso   1.000  H
  C2352    1.0000 0.32718  0.30877  0.15868  Biso   1.000  C
  C2353    1.0000 0.31030  0.33461  0.17567  Biso   1.000  C
  C2354    1.0000 0.34316  0.32589  0.18511  Biso   1.000  C
  C2355    1.0000 0.36178  0.34601  0.21232  Biso   1.000  C
  H1449    1.0000 0.34940  0.35420  0.21370  Biso   1.000  H
  C2356    1.0000 0.36185  0.32952  0.19779  Biso   1.000  C
  C2357    1.0000 0.37960  0.31735  0.19589  Biso   1.000  C
  H1450    1.0000 0.38030  0.30620  0.18600  Biso   1.000  H
  C2358    1.0000 0.39642  0.32192  0.20891  Biso   1.000  C
  H1451    1.0000 0.40870  0.31360  0.20840  Biso   1.000  H
  C2359    1.0000 0.39511  0.33860  0.22254  Biso   1.000  C
  H1452    1.0000 0.40690  0.34160  0.23110  Biso   1.000  H
  C2360    1.0000 0.36138  0.33301  0.26763  Biso   1.000  C
  H1453    1.0000 0.35110  0.33410  0.25700  Biso   1.000  H
  C2361    1.0000 0.36166  0.31540  0.27940  Biso   1.000  C
  H1454    1.0000 0.35190  0.30450  0.27690  Biso   1.000  H
  C2362    1.0000 0.37667  0.31360  0.29530  Biso   1.000  C
  H1455    1.0000 0.37710  0.30160  0.30410  Biso   1.000  H
  C2363    1.0000 0.39076  0.32984  0.29783  Biso   1.000  C
  C2364    1.0000 0.38915  0.34731  0.28502  Biso   1.000  C
  H1456    1.0000 0.39870  0.35850  0.28700  Biso   1.000  H
  C2365    1.0000 0.40698  0.32908  0.31441  Biso   1.000  C
  C2366    1.0000 0.42522  0.37611  0.25059  Biso   1.000  C
  N901     1.0000 0.26475  0.36692  0.15904  Biso   1.000  N
  N902     1.0000 0.39301  0.27446  0.13715  Biso   1.000  N
  N903     1.0000 0.34758  0.26551  0.12497  Biso   1.000  N
  N904     1.0000 0.34418  0.31091  0.17040  Biso   1.000  N
  N905     1.0000 0.30971  0.32025  0.16034  Biso   1.000  N
  N906     1.0000 0.32613  0.33763  0.18887  Biso   1.000  N
  N907     1.0000 0.37815  0.35075  0.22432  Biso   1.000  N
  N908     1.0000 0.40762  0.37676  0.24881  Biso   1.000  N
  N909     1.0000 0.37476  0.34897  0.27009  Biso   1.000  N
  N910     1.0000 0.40572  0.31397  0.32831  Biso   1.000  N
  S181     1.0000 0.42188  0.29463  0.16304  Biso   1.000  S
  S182     1.0000 0.45072  0.37346  0.25216  Biso   1.000  S
  C2367    1.0000 0.28011  0.85258  0.65972  Biso   1.000  C
  H1457    1.0000 0.28270  0.84440  0.64760  Biso   1.000  H
  C2368    1.0000 0.29250  0.84914  0.67742  Biso   1.000  C
  C2369    1.0000 0.28862  0.86072  0.69523  Biso   1.000  C
  H1458    1.0000 0.29700  0.85920  0.70740  Biso   1.000  H
  C2370    1.0000 0.27190  0.87482  0.69486  Biso   1.000  C
  H1459    1.0000 0.26820  0.88240  0.70710  Biso   1.000  H
  C2371    1.0000 0.26093  0.87758  0.67686  Biso   1.000  C
  H1460    1.0000 0.24990  0.88760  0.67680  Biso   1.000  H
  C2372    1.0000 0.40467  0.78338  0.64774  Biso   1.000  C
  C2373    1.0000 0.33157  0.76321  0.61148  Biso   1.000  C
  H1461    1.0000 0.33290  0.75320  0.60060  Biso   1.000  H
  C2374    1.0000 0.31334  0.77462  0.61260  Biso   1.000  C
  H1462    1.0000 0.30220  0.77200  0.60310  Biso   1.000  H
  C2375    1.0000 0.31142  0.79007  0.62779  Biso   1.000  C
  H1463    1.0000 0.29930  0.79870  0.62840  Biso   1.000  H
  C2376    1.0000 0.32774  0.79249  0.64210  Biso   1.000  C
  C2377    1.0000 0.34528  0.78001  0.64026  Biso   1.000  C
  H1464    1.0000 0.35620  0.78170  0.65020  Biso   1.000  H
  C2378    1.0000 0.32718  0.80877  0.65868  Biso   1.000  C
  C2379    1.0000 0.31030  0.83461  0.67567  Biso   1.000  C
  C2380    1.0000 0.34316  0.82589  0.68511  Biso   1.000  C
  C2381    1.0000 0.36178  0.84601  0.71232  Biso   1.000  C
  H1465    1.0000 0.34940  0.85420  0.71370  Biso   1.000  H
  C2382    1.0000 0.36185  0.82952  0.69779  Biso   1.000  C
  C2383    1.0000 0.37960  0.81735  0.69589  Biso   1.000  C
  H1466    1.0000 0.38030  0.80620  0.68600  Biso   1.000  H
  C2384    1.0000 0.39642  0.82192  0.70891  Biso   1.000  C
  H1467    1.0000 0.40870  0.81360  0.70840  Biso   1.000  H
  C2385    1.0000 0.39511  0.83860  0.72254  Biso   1.000  C
  H1468    1.0000 0.40690  0.84160  0.73110  Biso   1.000  H
  C2386    1.0000 0.36138  0.83301  0.76763  Biso   1.000  C
  H1469    1.0000 0.35110  0.83410  0.75700  Biso   1.000  H
  C2387    1.0000 0.36166  0.81540  0.77940  Biso   1.000  C
  H1470    1.0000 0.35190  0.80450  0.77690  Biso   1.000  H
  C2388    1.0000 0.37667  0.81360  0.79530  Biso   1.000  C
  H1471    1.0000 0.37710  0.80160  0.80410  Biso   1.000  H
  C2389    1.0000 0.39076  0.82984  0.79783  Biso   1.000  C
  C2390    1.0000 0.38915  0.84731  0.78502  Biso   1.000  C
  H1472    1.0000 0.39870  0.85850  0.78700  Biso   1.000  H
  C2391    1.0000 0.40698  0.82908  0.81441  Biso   1.000  C
  C2392    1.0000 0.42522  0.87611  0.75059  Biso   1.000  C
  N911     1.0000 0.26475  0.86692  0.65904  Biso   1.000  N
  N912     1.0000 0.39301  0.77446  0.63715  Biso   1.000  N
  N913     1.0000 0.34758  0.76551  0.62497  Biso   1.000  N
  N914     1.0000 0.34418  0.81091  0.67040  Biso   1.000  N
  N915     1.0000 0.30971  0.82025  0.66034  Biso   1.000  N
  N916     1.0000 0.32613  0.83763  0.68887  Biso   1.000  N
  N917     1.0000 0.37815  0.85075  0.72432  Biso   1.000  N
  N918     1.0000 0.40762  0.87676  0.74881  Biso   1.000  N
  N919     1.0000 0.37476  0.84897  0.77009  Biso   1.000  N
  N920     1.0000 0.40572  0.81397  0.82831  Biso   1.000  N
  S183     1.0000 0.42188  0.79463  0.66304  Biso   1.000  S
  S184     1.0000 0.45072  0.87346  0.75216  Biso   1.000  S
  C2393    1.0000 0.28011  0.89742  0.09028  Biso   1.000  C
  H1473    1.0000 0.28270  0.90560  0.10240  Biso   1.000  H
  C2394    1.0000 0.29250  0.90086  0.07258  Biso   1.000  C
  C2395    1.0000 0.28862  0.88928  0.05477  Biso   1.000  C
  H1474    1.0000 0.29700  0.89080  0.04260  Biso   1.000  H
  C2396    1.0000 0.27190  0.87518  0.05514  Biso   1.000  C
  H1475    1.0000 0.26820  0.86760  0.04290  Biso   1.000  H
  C2397    1.0000 0.26093  0.87242  0.07314  Biso   1.000  C
  H1476    1.0000 0.24990  0.86240  0.07320  Biso   1.000  H
  C2398    1.0000 0.40467  0.96662  0.10226  Biso   1.000  C
  C2399    1.0000 0.33157  0.98679  0.13852  Biso   1.000  C
  H1477    1.0000 0.33290  0.99680  0.14940  Biso   1.000  H
  C2400    1.0000 0.31334  0.97538  0.13740  Biso   1.000  C
  H1478    1.0000 0.30220  0.97800  0.14690  Biso   1.000  H
  C2401    1.0000 0.31142  0.95993  0.12221  Biso   1.000  C
  H1479    1.0000 0.29930  0.95130  0.12160  Biso   1.000  H
  C2402    1.0000 0.32774  0.95751  0.10790  Biso   1.000  C
  C2403    1.0000 0.34528  0.96999  0.10974  Biso   1.000  C
  H1480    1.0000 0.35620  0.96830  0.09980  Biso   1.000  H
  C2404    1.0000 0.32718  0.94123  0.09132  Biso   1.000  C
  C2405    1.0000 0.31030  0.91539  0.07433  Biso   1.000  C
  C2406    1.0000 0.34316  0.92411  0.06489  Biso   1.000  C
  C2407    1.0000 0.36178  0.90399  0.03768  Biso   1.000  C
  H1481    1.0000 0.34940  0.89580  0.03630  Biso   1.000  H
  C2408    1.0000 0.36185  0.92048  0.05221  Biso   1.000  C
  C2409    1.0000 0.37960  0.93265  0.05411  Biso   1.000  C
  H1482    1.0000 0.38030  0.94380  0.06400  Biso   1.000  H
  C2410    1.0000 0.39642  0.92808  0.04109  Biso   1.000  C
  H1483    1.0000 0.40870  0.93640  0.04160  Biso   1.000  H
  C2411    1.0000 0.39511  0.91140  0.02746  Biso   1.000  C
  H1484    1.0000 0.40690  0.90840  0.01890  Biso   1.000  H
  C2412    1.0000 0.36138  0.91699  0.98237  Biso   1.000  C
  H1485    1.0000 0.35110  0.91590  0.99300  Biso   1.000  H
  C2413    1.0000 0.36166  0.93460  0.97060  Biso   1.000  C
  H1486    1.0000 0.35190  0.94550  0.97310  Biso   1.000  H
  C2414    1.0000 0.37667  0.93640  0.95470  Biso   1.000  C
  H1487    1.0000 0.37710  0.94840  0.94590  Biso   1.000  H
  C2415    1.0000 0.39076  0.92016  0.95217  Biso   1.000  C
  C2416    1.0000 0.38915  0.90269  0.96498  Biso   1.000  C
  H1488    1.0000 0.39870  0.89150  0.96300  Biso   1.000  H
  C2417    1.0000 0.40698  0.92092  0.93559  Biso   1.000  C
  C2418    1.0000 0.42522  0.87389  0.99941  Biso   1.000  C
  N921     1.0000 0.26475  0.88308  0.09096  Biso   1.000  N
  N922     1.0000 0.39301  0.97554  0.11285  Biso   1.000  N
  N923     1.0000 0.34758  0.98449  0.12503  Biso   1.000  N
  N924     1.0000 0.34418  0.93909  0.07960  Biso   1.000  N
  N925     1.0000 0.30971  0.92975  0.08966  Biso   1.000  N
  N926     1.0000 0.32613  0.91237  0.06113  Biso   1.000  N
  N927     1.0000 0.37815  0.89925  0.02568  Biso   1.000  N
  N928     1.0000 0.40762  0.87324  0.00119  Biso   1.000  N
  N929     1.0000 0.37476  0.90103  0.97991  Biso   1.000  N
  N930     1.0000 0.40572  0.93603  0.92169  Biso   1.000  N
  S185     1.0000 0.42188  0.95537  0.08696  Biso   1.000  S
  S186     1.0000 0.45072  0.87654  0.99784  Biso   1.000  S
  C2419    1.0000 0.28011  0.39742  0.59028  Biso   1.000  C
  H1489    1.0000 0.28270  0.40560  0.60240  Biso   1.000  H
  C2420    1.0000 0.29250  0.40086  0.57258  Biso   1.000  C
  C2421    1.0000 0.28862  0.38928  0.55477  Biso   1.000  C
  H1490    1.0000 0.29700  0.39080  0.54260  Biso   1.000  H
  C2422    1.0000 0.27190  0.37518  0.55514  Biso   1.000  C
  H1491    1.0000 0.26820  0.36760  0.54290  Biso   1.000  H
  C2423    1.0000 0.26093  0.37242  0.57314  Biso   1.000  C
  H1492    1.0000 0.24990  0.36240  0.57320  Biso   1.000  H
  C2424    1.0000 0.40467  0.46662  0.60226  Biso   1.000  C
  C2425    1.0000 0.33157  0.48679  0.63852  Biso   1.000  C
  H1493    1.0000 0.33290  0.49680  0.64940  Biso   1.000  H
  C2426    1.0000 0.31334  0.47538  0.63740  Biso   1.000  C
  H1494    1.0000 0.30220  0.47800  0.64690  Biso   1.000  H
  C2427    1.0000 0.31142  0.45993  0.62221  Biso   1.000  C
  H1495    1.0000 0.29930  0.45130  0.62160  Biso   1.000  H
  C2428    1.0000 0.32774  0.45751  0.60790  Biso   1.000  C
  C2429    1.0000 0.34528  0.46999  0.60974  Biso   1.000  C
  H1496    1.0000 0.35620  0.46830  0.59980  Biso   1.000  H
  C2430    1.0000 0.32718  0.44123  0.59132  Biso   1.000  C
  C2431    1.0000 0.31030  0.41539  0.57433  Biso   1.000  C
  C2432    1.0000 0.34316  0.42411  0.56489  Biso   1.000  C
  C2433    1.0000 0.36178  0.40399  0.53768  Biso   1.000  C
  H1497    1.0000 0.34940  0.39580  0.53630  Biso   1.000  H
  C2434    1.0000 0.36185  0.42048  0.55221  Biso   1.000  C
  C2435    1.0000 0.37960  0.43265  0.55411  Biso   1.000  C
  H1498    1.0000 0.38030  0.44380  0.56400  Biso   1.000  H
  C2436    1.0000 0.39642  0.42808  0.54109  Biso   1.000  C
  H1499    1.0000 0.40870  0.43640  0.54160  Biso   1.000  H
  C2437    1.0000 0.39511  0.41140  0.52746  Biso   1.000  C
  H1500    1.0000 0.40690  0.40840  0.51890  Biso   1.000  H
  C2438    1.0000 0.36138  0.41699  0.48237  Biso   1.000  C
  H1501    1.0000 0.35110  0.41590  0.49300  Biso   1.000  H
  C2439    1.0000 0.36166  0.43460  0.47060  Biso   1.000  C
  H1502    1.0000 0.35190  0.44550  0.47310  Biso   1.000  H
  C2440    1.0000 0.37667  0.43640  0.45470  Biso   1.000  C
  H1503    1.0000 0.37710  0.44840  0.44590  Biso   1.000  H
  C2441    1.0000 0.39076  0.42016  0.45217  Biso   1.000  C
  C2442    1.0000 0.38915  0.40269  0.46498  Biso   1.000  C
  H1504    1.0000 0.39870  0.39150  0.46300  Biso   1.000  H
  C2443    1.0000 0.40698  0.42092  0.43559  Biso   1.000  C
  C2444    1.0000 0.42522  0.37389  0.49941  Biso   1.000  C
  N931     1.0000 0.26475  0.38308  0.59096  Biso   1.000  N
  N932     1.0000 0.39301  0.47554  0.61285  Biso   1.000  N
  N933     1.0000 0.34758  0.48449  0.62503  Biso   1.000  N
  N934     1.0000 0.34418  0.43909  0.57960  Biso   1.000  N
  N935     1.0000 0.30971  0.42975  0.58966  Biso   1.000  N
  N936     1.0000 0.32613  0.41237  0.56113  Biso   1.000  N
  N937     1.0000 0.37815  0.39925  0.52568  Biso   1.000  N
  N938     1.0000 0.40762  0.37324  0.50119  Biso   1.000  N
  N939     1.0000 0.37476  0.40103  0.47991  Biso   1.000  N
  N940     1.0000 0.40572  0.43603  0.42169  Biso   1.000  N
  S187     1.0000 0.42188  0.45537  0.58696  Biso   1.000  S
  S188     1.0000 0.45072  0.37654  0.49784  Biso   1.000  S
  C2445    1.0000 0.78011  0.89742  0.59028  Biso   1.000  C
  H1505    1.0000 0.78270  0.90560  0.60240  Biso   1.000  H
  C2446    1.0000 0.79250  0.90086  0.57258  Biso   1.000  C
  C2447    1.0000 0.78862  0.88928  0.55477  Biso   1.000  C
  H1506    1.0000 0.79700  0.89080  0.54260  Biso   1.000  H
  C2448    1.0000 0.77190  0.87518  0.55514  Biso   1.000  C
  H1507    1.0000 0.76820  0.86760  0.54290  Biso   1.000  H
  C2449    1.0000 0.76093  0.87242  0.57314  Biso   1.000  C
  H1508    1.0000 0.74990  0.86240  0.57320  Biso   1.000  H
  C2450    1.0000 0.90467  0.96662  0.60226  Biso   1.000  C
  C2451    1.0000 0.83157  0.98679  0.63852  Biso   1.000  C
  H1509    1.0000 0.83290  0.99680  0.64940  Biso   1.000  H
  C2452    1.0000 0.81334  0.97538  0.63740  Biso   1.000  C
  H1510    1.0000 0.80220  0.97800  0.64690  Biso   1.000  H
  C2453    1.0000 0.81142  0.95993  0.62221  Biso   1.000  C
  H1511    1.0000 0.79930  0.95130  0.62160  Biso   1.000  H
  C2454    1.0000 0.82774  0.95751  0.60790  Biso   1.000  C
  C2455    1.0000 0.84528  0.96999  0.60974  Biso   1.000  C
  H1512    1.0000 0.85620  0.96830  0.59980  Biso   1.000  H
  C2456    1.0000 0.82718  0.94123  0.59132  Biso   1.000  C
  C2457    1.0000 0.81030  0.91539  0.57433  Biso   1.000  C
  C2458    1.0000 0.84316  0.92411  0.56489  Biso   1.000  C
  C2459    1.0000 0.86178  0.90399  0.53768  Biso   1.000  C
  H1513    1.0000 0.84940  0.89580  0.53630  Biso   1.000  H
  C2460    1.0000 0.86185  0.92048  0.55221  Biso   1.000  C
  C2461    1.0000 0.87960  0.93265  0.55411  Biso   1.000  C
  H1514    1.0000 0.88030  0.94380  0.56400  Biso   1.000  H
  C2462    1.0000 0.89642  0.92808  0.54109  Biso   1.000  C
  H1515    1.0000 0.90870  0.93640  0.54160  Biso   1.000  H
  C2463    1.0000 0.89511  0.91140  0.52746  Biso   1.000  C
  H1516    1.0000 0.90690  0.90840  0.51890  Biso   1.000  H
  C2464    1.0000 0.86138  0.91699  0.48237  Biso   1.000  C
  H1517    1.0000 0.85110  0.91590  0.49300  Biso   1.000  H
  C2465    1.0000 0.86166  0.93460  0.47060  Biso   1.000  C
  H1518    1.0000 0.85190  0.94550  0.47310  Biso   1.000  H
  C2466    1.0000 0.87667  0.93640  0.45470  Biso   1.000  C
  H1519    1.0000 0.87710  0.94840  0.44590  Biso   1.000  H
  C2467    1.0000 0.89076  0.92016  0.45217  Biso   1.000  C
  C2468    1.0000 0.88915  0.90269  0.46498  Biso   1.000  C
  H1520    1.0000 0.89870  0.89150  0.46300  Biso   1.000  H
  C2469    1.0000 0.90698  0.92092  0.43559  Biso   1.000  C
  C2470    1.0000 0.92522  0.87389  0.49941  Biso   1.000  C
  N941     1.0000 0.76475  0.88308  0.59096  Biso   1.000  N
  N942     1.0000 0.89301  0.97554  0.61285  Biso   1.000  N
  N943     1.0000 0.84758  0.98449  0.62503  Biso   1.000  N
  N944     1.0000 0.84418  0.93909  0.57960  Biso   1.000  N
  N945     1.0000 0.80971  0.92975  0.58966  Biso   1.000  N
  N946     1.0000 0.82613  0.91237  0.56113  Biso   1.000  N
  N947     1.0000 0.87815  0.89925  0.52568  Biso   1.000  N
  N948     1.0000 0.90762  0.87324  0.50119  Biso   1.000  N
  N949     1.0000 0.87476  0.90103  0.47991  Biso   1.000  N
  N950     1.0000 0.90572  0.93603  0.42169  Biso   1.000  N
  S189     1.0000 0.92188  0.95537  0.58696  Biso   1.000  S
  S190     1.0000 0.95072  0.87654  0.49784  Biso   1.000  S
  C2471    1.0000 0.78011  0.39742  0.09028  Biso   1.000  C
  H1521    1.0000 0.78270  0.40560  0.10240  Biso   1.000  H
  C2472    1.0000 0.79250  0.40086  0.07258  Biso   1.000  C
  C2473    1.0000 0.78862  0.38928  0.05477  Biso   1.000  C
  H1522    1.0000 0.79700  0.39080  0.04260  Biso   1.000  H
  C2474    1.0000 0.77190  0.37518  0.05514  Biso   1.000  C
  H1523    1.0000 0.76820  0.36760  0.04290  Biso   1.000  H
  C2475    1.0000 0.76093  0.37242  0.07314  Biso   1.000  C
  H1524    1.0000 0.74990  0.36240  0.07320  Biso   1.000  H
  C2476    1.0000 0.90467  0.46662  0.10226  Biso   1.000  C
  C2477    1.0000 0.83157  0.48679  0.13852  Biso   1.000  C
  H1525    1.0000 0.83290  0.49680  0.14940  Biso   1.000  H
  C2478    1.0000 0.81334  0.47538  0.13740  Biso   1.000  C
  H1526    1.0000 0.80220  0.47800  0.14690  Biso   1.000  H
  C2479    1.0000 0.81142  0.45993  0.12221  Biso   1.000  C
  H1527    1.0000 0.79930  0.45130  0.12160  Biso   1.000  H
  C2480    1.0000 0.82774  0.45751  0.10790  Biso   1.000  C
  C2481    1.0000 0.84528  0.46999  0.10974  Biso   1.000  C
  H1528    1.0000 0.85620  0.46830  0.09980  Biso   1.000  H
  C2482    1.0000 0.82718  0.44123  0.09132  Biso   1.000  C
  C2483    1.0000 0.81030  0.41539  0.07433  Biso   1.000  C
  C2484    1.0000 0.84316  0.42411  0.06489  Biso   1.000  C
  C2485    1.0000 0.86178  0.40399  0.03768  Biso   1.000  C
  H1529    1.0000 0.84940  0.39580  0.03630  Biso   1.000  H
  C2486    1.0000 0.86185  0.42048  0.05221  Biso   1.000  C
  C2487    1.0000 0.87960  0.43265  0.05411  Biso   1.000  C
  H1530    1.0000 0.88030  0.44380  0.06400  Biso   1.000  H
  C2488    1.0000 0.89642  0.42808  0.04109  Biso   1.000  C
  H1531    1.0000 0.90870  0.43640  0.04160  Biso   1.000  H
  C2489    1.0000 0.89511  0.41140  0.02746  Biso   1.000  C
  H1532    1.0000 0.90690  0.40840  0.01890  Biso   1.000  H
  C2490    1.0000 0.86138  0.41699  0.98237  Biso   1.000  C
  H1533    1.0000 0.85110  0.41590  0.99300  Biso   1.000  H
  C2491    1.0000 0.86166  0.43460  0.97060  Biso   1.000  C
  H1534    1.0000 0.85190  0.44550  0.97310  Biso   1.000  H
  C2492    1.0000 0.87667  0.43640  0.95470  Biso   1.000  C
  H1535    1.0000 0.87710  0.44840  0.94590  Biso   1.000  H
  C2493    1.0000 0.89076  0.42016  0.95217  Biso   1.000  C
  C2494    1.0000 0.88915  0.40269  0.96498  Biso   1.000  C
  H1536    1.0000 0.89870  0.39150  0.96300  Biso   1.000  H
  C2495    1.0000 0.90698  0.42092  0.93559  Biso   1.000  C
  C2496    1.0000 0.92522  0.37389  0.99941  Biso   1.000  C
  N951     1.0000 0.76475  0.38308  0.09096  Biso   1.000  N
  N952     1.0000 0.89301  0.47554  0.11285  Biso   1.000  N
  N953     1.0000 0.84758  0.48449  0.12503  Biso   1.000  N
  N954     1.0000 0.84418  0.43909  0.07960  Biso   1.000  N
  N955     1.0000 0.80971  0.42975  0.08966  Biso   1.000  N
  N956     1.0000 0.82613  0.41237  0.06113  Biso   1.000  N
  N957     1.0000 0.87815  0.39925  0.02568  Biso   1.000  N
  N958     1.0000 0.90762  0.37324  0.00119  Biso   1.000  N
  N959     1.0000 0.87476  0.40103  0.97991  Biso   1.000  N
  N960     1.0000 0.90572  0.43603  0.92169  Biso   1.000  N
  S191     1.0000 0.92188  0.45537  0.08696  Biso   1.000  S
  S192     1.0000 0.95072  0.37654  0.99784  Biso   1.000  S
  C2497    1.0000 0.59028  0.39742  0.78011  Biso   1.000  C
  H1537    1.0000 0.60240  0.40560  0.78270  Biso   1.000  H
  C2498    1.0000 0.57258  0.40086  0.79250  Biso   1.000  C
  C2499    1.0000 0.55477  0.38928  0.78862  Biso   1.000  C
  H1538    1.0000 0.54260  0.39080  0.79700  Biso   1.000  H
  C2500    1.0000 0.55514  0.37518  0.77190  Biso   1.000  C
  H1539    1.0000 0.54290  0.36760  0.76820  Biso   1.000  H
  C2501    1.0000 0.57314  0.37242  0.76093  Biso   1.000  C
  H1540    1.0000 0.57320  0.36240  0.74990  Biso   1.000  H
  C2502    1.0000 0.60226  0.46662  0.90467  Biso   1.000  C
  C2503    1.0000 0.63852  0.48679  0.83157  Biso   1.000  C
  H1541    1.0000 0.64940  0.49680  0.83290  Biso   1.000  H
  C2504    1.0000 0.63740  0.47538  0.81334  Biso   1.000  C
  H1542    1.0000 0.64690  0.47800  0.80220  Biso   1.000  H
  C2505    1.0000 0.62221  0.45993  0.81142  Biso   1.000  C
  H1543    1.0000 0.62160  0.45130  0.79930  Biso   1.000  H
  C2506    1.0000 0.60790  0.45751  0.82774  Biso   1.000  C
  C2507    1.0000 0.60974  0.46999  0.84528  Biso   1.000  C
  H1544    1.0000 0.59980  0.46830  0.85620  Biso   1.000  H
  C2508    1.0000 0.59132  0.44123  0.82718  Biso   1.000  C
  C2509    1.0000 0.57433  0.41539  0.81030  Biso   1.000  C
  C2510    1.0000 0.56489  0.42411  0.84316  Biso   1.000  C
  C2511    1.0000 0.53768  0.40399  0.86178  Biso   1.000  C
  H1545    1.0000 0.53630  0.39580  0.84940  Biso   1.000  H
  C2512    1.0000 0.55221  0.42048  0.86185  Biso   1.000  C
  C2513    1.0000 0.55411  0.43265  0.87960  Biso   1.000  C
  H1546    1.0000 0.56400  0.44380  0.88030  Biso   1.000  H
  C2514    1.0000 0.54109  0.42808  0.89642  Biso   1.000  C
  H1547    1.0000 0.54160  0.43640  0.90870  Biso   1.000  H
  C2515    1.0000 0.52746  0.41140  0.89511  Biso   1.000  C
  H1548    1.0000 0.51890  0.40840  0.90690  Biso   1.000  H
  C2516    1.0000 0.48237  0.41699  0.86138  Biso   1.000  C
  H1549    1.0000 0.49300  0.41590  0.85110  Biso   1.000  H
  C2517    1.0000 0.47060  0.43460  0.86166  Biso   1.000  C
  H1550    1.0000 0.47310  0.44550  0.85190  Biso   1.000  H
  C2518    1.0000 0.45470  0.43640  0.87667  Biso   1.000  C
  H1551    1.0000 0.44590  0.44840  0.87710  Biso   1.000  H
  C2519    1.0000 0.45217  0.42016  0.89076  Biso   1.000  C
  C2520    1.0000 0.46498  0.40269  0.88915  Biso   1.000  C
  H1552    1.0000 0.46300  0.39150  0.89870  Biso   1.000  H
  C2521    1.0000 0.43559  0.42092  0.90698  Biso   1.000  C
  C2522    1.0000 0.49941  0.37389  0.92522  Biso   1.000  C
  N961     1.0000 0.59096  0.38308  0.76475  Biso   1.000  N
  N962     1.0000 0.61285  0.47554  0.89301  Biso   1.000  N
  N963     1.0000 0.62503  0.48449  0.84758  Biso   1.000  N
  N964     1.0000 0.57960  0.43909  0.84418  Biso   1.000  N
  N965     1.0000 0.58966  0.42975  0.80971  Biso   1.000  N
  N966     1.0000 0.56113  0.41237  0.82613  Biso   1.000  N
  N967     1.0000 0.52568  0.39925  0.87815  Biso   1.000  N
  N968     1.0000 0.50119  0.37324  0.90762  Biso   1.000  N
  N969     1.0000 0.47991  0.40103  0.87476  Biso   1.000  N
  N970     1.0000 0.42169  0.43603  0.90572  Biso   1.000  N
  S193     1.0000 0.58696  0.45537  0.92188  Biso   1.000  S
  S194     1.0000 0.49784  0.37654  0.95072  Biso   1.000  S
  C2523    1.0000 0.59028  0.89742  0.28011  Biso   1.000  C
  H1553    1.0000 0.60240  0.90560  0.28270  Biso   1.000  H
  C2524    1.0000 0.57258  0.90086  0.29250  Biso   1.000  C
  C2525    1.0000 0.55477  0.88928  0.28862  Biso   1.000  C
  H1554    1.0000 0.54260  0.89080  0.29700  Biso   1.000  H
  C2526    1.0000 0.55514  0.87518  0.27190  Biso   1.000  C
  H1555    1.0000 0.54290  0.86760  0.26820  Biso   1.000  H
  C2527    1.0000 0.57314  0.87242  0.26093  Biso   1.000  C
  H1556    1.0000 0.57320  0.86240  0.24990  Biso   1.000  H
  C2528    1.0000 0.60226  0.96662  0.40467  Biso   1.000  C
  C2529    1.0000 0.63852  0.98679  0.33157  Biso   1.000  C
  H1557    1.0000 0.64940  0.99680  0.33290  Biso   1.000  H
  C2530    1.0000 0.63740  0.97538  0.31334  Biso   1.000  C
  H1558    1.0000 0.64690  0.97800  0.30220  Biso   1.000  H
  C2531    1.0000 0.62221  0.95993  0.31142  Biso   1.000  C
  H1559    1.0000 0.62160  0.95130  0.29930  Biso   1.000  H
  C2532    1.0000 0.60790  0.95751  0.32774  Biso   1.000  C
  C2533    1.0000 0.60974  0.96999  0.34528  Biso   1.000  C
  H1560    1.0000 0.59980  0.96830  0.35620  Biso   1.000  H
  C2534    1.0000 0.59132  0.94123  0.32718  Biso   1.000  C
  C2535    1.0000 0.57433  0.91539  0.31030  Biso   1.000  C
  C2536    1.0000 0.56489  0.92411  0.34316  Biso   1.000  C
  C2537    1.0000 0.53768  0.90399  0.36178  Biso   1.000  C
  H1561    1.0000 0.53630  0.89580  0.34940  Biso   1.000  H
  C2538    1.0000 0.55221  0.92048  0.36185  Biso   1.000  C
  C2539    1.0000 0.55411  0.93265  0.37960  Biso   1.000  C
  H1562    1.0000 0.56400  0.94380  0.38030  Biso   1.000  H
  C2540    1.0000 0.54109  0.92808  0.39642  Biso   1.000  C
  H1563    1.0000 0.54160  0.93640  0.40870  Biso   1.000  H
  C2541    1.0000 0.52746  0.91140  0.39511  Biso   1.000  C
  H1564    1.0000 0.51890  0.90840  0.40690  Biso   1.000  H
  C2542    1.0000 0.48237  0.91699  0.36138  Biso   1.000  C
  H1565    1.0000 0.49300  0.91590  0.35110  Biso   1.000  H
  C2543    1.0000 0.47060  0.93460  0.36166  Biso   1.000  C
  H1566    1.0000 0.47310  0.94550  0.35190  Biso   1.000  H
  C2544    1.0000 0.45470  0.93640  0.37667  Biso   1.000  C
  H1567    1.0000 0.44590  0.94840  0.37710  Biso   1.000  H
  C2545    1.0000 0.45217  0.92016  0.39076  Biso   1.000  C
  C2546    1.0000 0.46498  0.90269  0.38915  Biso   1.000  C
  H1568    1.0000 0.46300  0.89150  0.39870  Biso   1.000  H
  C2547    1.0000 0.43559  0.92092  0.40698  Biso   1.000  C
  C2548    1.0000 0.49941  0.87389  0.42522  Biso   1.000  C
  N971     1.0000 0.59096  0.88308  0.26475  Biso   1.000  N
  N972     1.0000 0.61285  0.97554  0.39301  Biso   1.000  N
  N973     1.0000 0.62503  0.98449  0.34758  Biso   1.000  N
  N974     1.0000 0.57960  0.93909  0.34418  Biso   1.000  N
  N975     1.0000 0.58966  0.92975  0.30971  Biso   1.000  N
  N976     1.0000 0.56113  0.91237  0.32613  Biso   1.000  N
  N977     1.0000 0.52568  0.89925  0.37815  Biso   1.000  N
  N978     1.0000 0.50119  0.87324  0.40762  Biso   1.000  N
  N979     1.0000 0.47991  0.90103  0.37476  Biso   1.000  N
  N980     1.0000 0.42169  0.93603  0.40572  Biso   1.000  N
  S195     1.0000 0.58696  0.95537  0.42188  Biso   1.000  S
  S196     1.0000 0.49784  0.87654  0.45072  Biso   1.000  S
  C2549    1.0000 0.09028  0.39742  0.28011  Biso   1.000  C
  H1569    1.0000 0.10240  0.40560  0.28270  Biso   1.000  H
  C2550    1.0000 0.07258  0.40086  0.29250  Biso   1.000  C
  C2551    1.0000 0.05477  0.38928  0.28862  Biso   1.000  C
  H1570    1.0000 0.04260  0.39080  0.29700  Biso   1.000  H
  C2552    1.0000 0.05514  0.37518  0.27190  Biso   1.000  C
  H1571    1.0000 0.04290  0.36760  0.26820  Biso   1.000  H
  C2553    1.0000 0.07314  0.37242  0.26093  Biso   1.000  C
  H1572    1.0000 0.07320  0.36240  0.24990  Biso   1.000  H
  C2554    1.0000 0.10226  0.46662  0.40467  Biso   1.000  C
  C2555    1.0000 0.13852  0.48679  0.33157  Biso   1.000  C
  H1573    1.0000 0.14940  0.49680  0.33290  Biso   1.000  H
  C2556    1.0000 0.13740  0.47538  0.31334  Biso   1.000  C
  H1574    1.0000 0.14690  0.47800  0.30220  Biso   1.000  H
  C2557    1.0000 0.12221  0.45993  0.31142  Biso   1.000  C
  H1575    1.0000 0.12160  0.45130  0.29930  Biso   1.000  H
  C2558    1.0000 0.10790  0.45751  0.32774  Biso   1.000  C
  C2559    1.0000 0.10974  0.46999  0.34528  Biso   1.000  C
  H1576    1.0000 0.09980  0.46830  0.35620  Biso   1.000  H
  C2560    1.0000 0.09132  0.44123  0.32718  Biso   1.000  C
  C2561    1.0000 0.07433  0.41539  0.31030  Biso   1.000  C
  C2562    1.0000 0.06489  0.42411  0.34316  Biso   1.000  C
  C2563    1.0000 0.03768  0.40399  0.36178  Biso   1.000  C
  H1577    1.0000 0.03630  0.39580  0.34940  Biso   1.000  H
  C2564    1.0000 0.05221  0.42048  0.36185  Biso   1.000  C
  C2565    1.0000 0.05411  0.43265  0.37960  Biso   1.000  C
  H1578    1.0000 0.06400  0.44380  0.38030  Biso   1.000  H
  C2566    1.0000 0.04109  0.42808  0.39642  Biso   1.000  C
  H1579    1.0000 0.04160  0.43640  0.40870  Biso   1.000  H
  C2567    1.0000 0.02746  0.41140  0.39511  Biso   1.000  C
  H1580    1.0000 0.01890  0.40840  0.40690  Biso   1.000  H
  C2568    1.0000 0.98237  0.41699  0.36138  Biso   1.000  C
  H1581    1.0000 0.99300  0.41590  0.35110  Biso   1.000  H
  C2569    1.0000 0.97060  0.43460  0.36166  Biso   1.000  C
  H1582    1.0000 0.97310  0.44550  0.35190  Biso   1.000  H
  C2570    1.0000 0.95470  0.43640  0.37667  Biso   1.000  C
  H1583    1.0000 0.94590  0.44840  0.37710  Biso   1.000  H
  C2571    1.0000 0.95217  0.42016  0.39076  Biso   1.000  C
  C2572    1.0000 0.96498  0.40269  0.38915  Biso   1.000  C
  H1584    1.0000 0.96300  0.39150  0.39870  Biso   1.000  H
  C2573    1.0000 0.93559  0.42092  0.40698  Biso   1.000  C
  C2574    1.0000 0.99941  0.37389  0.42522  Biso   1.000  C
  N981     1.0000 0.09096  0.38308  0.26475  Biso   1.000  N
  N982     1.0000 0.11285  0.47554  0.39301  Biso   1.000  N
  N983     1.0000 0.12503  0.48449  0.34758  Biso   1.000  N
  N984     1.0000 0.07960  0.43909  0.34418  Biso   1.000  N
  N985     1.0000 0.08966  0.42975  0.30971  Biso   1.000  N
  N986     1.0000 0.06113  0.41237  0.32613  Biso   1.000  N
  N987     1.0000 0.02568  0.39925  0.37815  Biso   1.000  N
  N988     1.0000 0.00119  0.37324  0.40762  Biso   1.000  N
  N989     1.0000 0.97991  0.40103  0.37476  Biso   1.000  N
  N990     1.0000 0.92169  0.43603  0.40572  Biso   1.000  N
  S197     1.0000 0.08696  0.45537  0.42188  Biso   1.000  S
  S198     1.0000 0.99784  0.37654  0.45072  Biso   1.000  S
  C2575    1.0000 0.09028  0.89742  0.78011  Biso   1.000  C
  H1585    1.0000 0.10240  0.90560  0.78270  Biso   1.000  H
  C2576    1.0000 0.07258  0.90086  0.79250  Biso   1.000  C
  C2577    1.0000 0.05477  0.88928  0.78862  Biso   1.000  C
  H1586    1.0000 0.04260  0.89080  0.79700  Biso   1.000  H
  C2578    1.0000 0.05514  0.87518  0.77190  Biso   1.000  C
  H1587    1.0000 0.04290  0.86760  0.76820  Biso   1.000  H
  C2579    1.0000 0.07314  0.87242  0.76093  Biso   1.000  C
  H1588    1.0000 0.07320  0.86240  0.74990  Biso   1.000  H
  C2580    1.0000 0.10226  0.96662  0.90467  Biso   1.000  C
  C2581    1.0000 0.13852  0.98679  0.83157  Biso   1.000  C
  H1589    1.0000 0.14940  0.99680  0.83290  Biso   1.000  H
  C2582    1.0000 0.13740  0.97538  0.81334  Biso   1.000  C
  H1590    1.0000 0.14690  0.97800  0.80220  Biso   1.000  H
  C2583    1.0000 0.12221  0.95993  0.81142  Biso   1.000  C
  H1591    1.0000 0.12160  0.95130  0.79930  Biso   1.000  H
  C2584    1.0000 0.10790  0.95751  0.82774  Biso   1.000  C
  C2585    1.0000 0.10974  0.96999  0.84528  Biso   1.000  C
  H1592    1.0000 0.09980  0.96830  0.85620  Biso   1.000  H
  C2586    1.0000 0.09132  0.94123  0.82718  Biso   1.000  C
  C2587    1.0000 0.07433  0.91539  0.81030  Biso   1.000  C
  C2588    1.0000 0.06489  0.92411  0.84316  Biso   1.000  C
  C2589    1.0000 0.03768  0.90399  0.86178  Biso   1.000  C
  H1593    1.0000 0.03630  0.89580  0.84940  Biso   1.000  H
  C2590    1.0000 0.05221  0.92048  0.86185  Biso   1.000  C
  C2591    1.0000 0.05411  0.93265  0.87960  Biso   1.000  C
  H1594    1.0000 0.06400  0.94380  0.88030  Biso   1.000  H
  C2592    1.0000 0.04109  0.92808  0.89642  Biso   1.000  C
  H1595    1.0000 0.04160  0.93640  0.90870  Biso   1.000  H
  C2593    1.0000 0.02746  0.91140  0.89511  Biso   1.000  C
  H1596    1.0000 0.01890  0.90840  0.90690  Biso   1.000  H
  C2594    1.0000 0.98237  0.91699  0.86138  Biso   1.000  C
  H1597    1.0000 0.99300  0.91590  0.85110  Biso   1.000  H
  C2595    1.0000 0.97060  0.93460  0.86166  Biso   1.000  C
  H1598    1.0000 0.97310  0.94550  0.85190  Biso   1.000  H
  C2596    1.0000 0.95470  0.93640  0.87667  Biso   1.000  C
  H1599    1.0000 0.94590  0.94840  0.87710  Biso   1.000  H
  C2597    1.0000 0.95217  0.92016  0.89076  Biso   1.000  C
  C2598    1.0000 0.96498  0.90269  0.88915  Biso   1.000  C
  H1600    1.0000 0.96300  0.89150  0.89870  Biso   1.000  H
  C2599    1.0000 0.93559  0.92092  0.90698  Biso   1.000  C
  C2600    1.0000 0.99941  0.87389  0.92522  Biso   1.000  C
  N991     1.0000 0.09096  0.88308  0.76475  Biso   1.000  N
  N992     1.0000 0.11285  0.97554  0.89301  Biso   1.000  N
  N993     1.0000 0.12503  0.98449  0.84758  Biso   1.000  N
  N994     1.0000 0.07960  0.93909  0.84418  Biso   1.000  N
  N995     1.0000 0.08966  0.92975  0.80971  Biso   1.000  N
  N996     1.0000 0.06113  0.91237  0.82613  Biso   1.000  N
  N997     1.0000 0.02568  0.89925  0.87815  Biso   1.000  N
  N998     1.0000 0.00119  0.87324  0.90762  Biso   1.000  N
  N999     1.0000 0.97991  0.90103  0.87476  Biso   1.000  N
  N1000    1.0000 0.92169  0.93603  0.90572  Biso   1.000  N
  S199     1.0000 0.08696  0.95537  0.92188  Biso   1.000  S
  S200     1.0000 0.99784  0.87654  0.95072  Biso   1.000  S
  C2601    1.0000 0.15972  0.85258  0.28011  Biso   1.000  C
  H1601    1.0000 0.14760  0.84440  0.28270  Biso   1.000  H
  C2602    1.0000 0.17742  0.84914  0.29250  Biso   1.000  C
  C2603    1.0000 0.19523  0.86072  0.28862  Biso   1.000  C
  H1602    1.0000 0.20740  0.85920  0.29700  Biso   1.000  H
  C2604    1.0000 0.19486  0.87482  0.27190  Biso   1.000  C
  H1603    1.0000 0.20710  0.88240  0.26820  Biso   1.000  H
  C2605    1.0000 0.17686  0.87758  0.26093  Biso   1.000  C
  H1604    1.0000 0.17680  0.88760  0.24990  Biso   1.000  H
  C2606    1.0000 0.14774  0.78338  0.40467  Biso   1.000  C
  C2607    1.0000 0.11148  0.76321  0.33157  Biso   1.000  C
  H1605    1.0000 0.10060  0.75320  0.33290  Biso   1.000  H
  C2608    1.0000 0.11260  0.77462  0.31334  Biso   1.000  C
  H1606    1.0000 0.10310  0.77200  0.30220  Biso   1.000  H
  C2609    1.0000 0.12779  0.79007  0.31142  Biso   1.000  C
  H1607    1.0000 0.12840  0.79870  0.29930  Biso   1.000  H
  C2610    1.0000 0.14210  0.79249  0.32774  Biso   1.000  C
  C2611    1.0000 0.14026  0.78001  0.34528  Biso   1.000  C
  H1608    1.0000 0.15020  0.78170  0.35620  Biso   1.000  H
  C2612    1.0000 0.15868  0.80877  0.32718  Biso   1.000  C
  C2613    1.0000 0.17567  0.83461  0.31030  Biso   1.000  C
  C2614    1.0000 0.18511  0.82589  0.34316  Biso   1.000  C
  C2615    1.0000 0.21232  0.84601  0.36178  Biso   1.000  C
  H1609    1.0000 0.21370  0.85420  0.34940  Biso   1.000  H
  C2616    1.0000 0.19779  0.82952  0.36185  Biso   1.000  C
  C2617    1.0000 0.19589  0.81735  0.37960  Biso   1.000  C
  H1610    1.0000 0.18600  0.80620  0.38030  Biso   1.000  H
  C2618    1.0000 0.20891  0.82192  0.39642  Biso   1.000  C
  H1611    1.0000 0.20840  0.81360  0.40870  Biso   1.000  H
  C2619    1.0000 0.22254  0.83860  0.39511  Biso   1.000  C
  H1612    1.0000 0.23110  0.84160  0.40690  Biso   1.000  H
  C2620    1.0000 0.26763  0.83301  0.36138  Biso   1.000  C
  H1613    1.0000 0.25700  0.83410  0.35110  Biso   1.000  H
  C2621    1.0000 0.27940  0.81540  0.36166  Biso   1.000  C
  H1614    1.0000 0.27690  0.80450  0.35190  Biso   1.000  H
  C2622    1.0000 0.29530  0.81360  0.37667  Biso   1.000  C
  H1615    1.0000 0.30410  0.80160  0.37710  Biso   1.000  H
  C2623    1.0000 0.29783  0.82984  0.39076  Biso   1.000  C
  C2624    1.0000 0.28502  0.84731  0.38915  Biso   1.000  C
  H1616    1.0000 0.28700  0.85850  0.39870  Biso   1.000  H
  C2625    1.0000 0.31441  0.82908  0.40698  Biso   1.000  C
  C2626    1.0000 0.25059  0.87611  0.42522  Biso   1.000  C
  N1001    1.0000 0.15904  0.86692  0.26475  Biso   1.000  N
  N1002    1.0000 0.13715  0.77446  0.39301  Biso   1.000  N
  N1003    1.0000 0.12497  0.76551  0.34758  Biso   1.000  N
  N1004    1.0000 0.17040  0.81091  0.34418  Biso   1.000  N
  N1005    1.0000 0.16034  0.82025  0.30971  Biso   1.000  N
  N1006    1.0000 0.18887  0.83763  0.32613  Biso   1.000  N
  N1007    1.0000 0.22432  0.85075  0.37815  Biso   1.000  N
  N1008    1.0000 0.24881  0.87676  0.40762  Biso   1.000  N
  N1009    1.0000 0.27009  0.84897  0.37476  Biso   1.000  N
  N1010    1.0000 0.32831  0.81397  0.40572  Biso   1.000  N
  S201     1.0000 0.16304  0.79463  0.42188  Biso   1.000  S
  S202     1.0000 0.25216  0.87346  0.45072  Biso   1.000  S
  C2627    1.0000 0.15972  0.35258  0.78011  Biso   1.000  C
  H1617    1.0000 0.14760  0.34440  0.78270  Biso   1.000  H
  C2628    1.0000 0.17742  0.34914  0.79250  Biso   1.000  C
  C2629    1.0000 0.19523  0.36072  0.78862  Biso   1.000  C
  H1618    1.0000 0.20740  0.35920  0.79700  Biso   1.000  H
  C2630    1.0000 0.19486  0.37482  0.77190  Biso   1.000  C
  H1619    1.0000 0.20710  0.38240  0.76820  Biso   1.000  H
  C2631    1.0000 0.17686  0.37758  0.76093  Biso   1.000  C
  H1620    1.0000 0.17680  0.38760  0.74990  Biso   1.000  H
  C2632    1.0000 0.14774  0.28338  0.90467  Biso   1.000  C
  C2633    1.0000 0.11148  0.26321  0.83157  Biso   1.000  C
  H1621    1.0000 0.10060  0.25320  0.83290  Biso   1.000  H
  C2634    1.0000 0.11260  0.27462  0.81334  Biso   1.000  C
  H1622    1.0000 0.10310  0.27200  0.80220  Biso   1.000  H
  C2635    1.0000 0.12779  0.29007  0.81142  Biso   1.000  C
  H1623    1.0000 0.12840  0.29870  0.79930  Biso   1.000  H
  C2636    1.0000 0.14210  0.29249  0.82774  Biso   1.000  C
  C2637    1.0000 0.14026  0.28001  0.84528  Biso   1.000  C
  H1624    1.0000 0.15020  0.28170  0.85620  Biso   1.000  H
  C2638    1.0000 0.15868  0.30877  0.82718  Biso   1.000  C
  C2639    1.0000 0.17567  0.33461  0.81030  Biso   1.000  C
  C2640    1.0000 0.18511  0.32589  0.84316  Biso   1.000  C
  C2641    1.0000 0.21232  0.34601  0.86178  Biso   1.000  C
  H1625    1.0000 0.21370  0.35420  0.84940  Biso   1.000  H
  C2642    1.0000 0.19779  0.32952  0.86185  Biso   1.000  C
  C2643    1.0000 0.19589  0.31735  0.87960  Biso   1.000  C
  H1626    1.0000 0.18600  0.30620  0.88030  Biso   1.000  H
  C2644    1.0000 0.20891  0.32192  0.89642  Biso   1.000  C
  H1627    1.0000 0.20840  0.31360  0.90870  Biso   1.000  H
  C2645    1.0000 0.22254  0.33860  0.89511  Biso   1.000  C
  H1628    1.0000 0.23110  0.34160  0.90690  Biso   1.000  H
  C2646    1.0000 0.26763  0.33301  0.86138  Biso   1.000  C
  H1629    1.0000 0.25700  0.33410  0.85110  Biso   1.000  H
  C2647    1.0000 0.27940  0.31540  0.86166  Biso   1.000  C
  H1630    1.0000 0.27690  0.30450  0.85190  Biso   1.000  H
  C2648    1.0000 0.29530  0.31360  0.87667  Biso   1.000  C
  H1631    1.0000 0.30410  0.30160  0.87710  Biso   1.000  H
  C2649    1.0000 0.29783  0.32984  0.89076  Biso   1.000  C
  C2650    1.0000 0.28502  0.34731  0.88915  Biso   1.000  C
  H1632    1.0000 0.28700  0.35850  0.89870  Biso   1.000  H
  C2651    1.0000 0.31441  0.32908  0.90698  Biso   1.000  C
  C2652    1.0000 0.25059  0.37611  0.92522  Biso   1.000  C
  N1011    1.0000 0.15904  0.36692  0.76475  Biso   1.000  N
  N1012    1.0000 0.13715  0.27446  0.89301  Biso   1.000  N
  N1013    1.0000 0.12497  0.26551  0.84758  Biso   1.000  N
  N1014    1.0000 0.17040  0.31091  0.84418  Biso   1.000  N
  N1015    1.0000 0.16034  0.32025  0.80971  Biso   1.000  N
  N1016    1.0000 0.18887  0.33763  0.82613  Biso   1.000  N
  N1017    1.0000 0.22432  0.35075  0.87815  Biso   1.000  N
  N1018    1.0000 0.24881  0.37676  0.90762  Biso   1.000  N
  N1019    1.0000 0.27009  0.34897  0.87476  Biso   1.000  N
  N1020    1.0000 0.32831  0.31397  0.90572  Biso   1.000  N
  S203     1.0000 0.16304  0.29463  0.92188  Biso   1.000  S
  S204     1.0000 0.25216  0.37346  0.95072  Biso   1.000  S
  C2653    1.0000 0.65972  0.85258  0.78011  Biso   1.000  C
  H1633    1.0000 0.64760  0.84440  0.78270  Biso   1.000  H
  C2654    1.0000 0.67742  0.84914  0.79250  Biso   1.000  C
  C2655    1.0000 0.69523  0.86072  0.78862  Biso   1.000  C
  H1634    1.0000 0.70740  0.85920  0.79700  Biso   1.000  H
  C2656    1.0000 0.69486  0.87482  0.77190  Biso   1.000  C
  H1635    1.0000 0.70710  0.88240  0.76820  Biso   1.000  H
  C2657    1.0000 0.67686  0.87758  0.76093  Biso   1.000  C
  H1636    1.0000 0.67680  0.88760  0.74990  Biso   1.000  H
  C2658    1.0000 0.64774  0.78338  0.90467  Biso   1.000  C
  C2659    1.0000 0.61148  0.76321  0.83157  Biso   1.000  C
  H1637    1.0000 0.60060  0.75320  0.83290  Biso   1.000  H
  C2660    1.0000 0.61260  0.77462  0.81334  Biso   1.000  C
  H1638    1.0000 0.60310  0.77200  0.80220  Biso   1.000  H
  C2661    1.0000 0.62779  0.79007  0.81142  Biso   1.000  C
  H1639    1.0000 0.62840  0.79870  0.79930  Biso   1.000  H
  C2662    1.0000 0.64210  0.79249  0.82774  Biso   1.000  C
  C2663    1.0000 0.64026  0.78001  0.84528  Biso   1.000  C
  H1640    1.0000 0.65020  0.78170  0.85620  Biso   1.000  H
  C2664    1.0000 0.65868  0.80877  0.82718  Biso   1.000  C
  C2665    1.0000 0.67567  0.83461  0.81030  Biso   1.000  C
  C2666    1.0000 0.68511  0.82589  0.84316  Biso   1.000  C
  C2667    1.0000 0.71232  0.84601  0.86178  Biso   1.000  C
  H1641    1.0000 0.71370  0.85420  0.84940  Biso   1.000  H
  C2668    1.0000 0.69779  0.82952  0.86185  Biso   1.000  C
  C2669    1.0000 0.69589  0.81735  0.87960  Biso   1.000  C
  H1642    1.0000 0.68600  0.80620  0.88030  Biso   1.000  H
  C2670    1.0000 0.70891  0.82192  0.89642  Biso   1.000  C
  H1643    1.0000 0.70840  0.81360  0.90870  Biso   1.000  H
  C2671    1.0000 0.72254  0.83860  0.89511  Biso   1.000  C
  H1644    1.0000 0.73110  0.84160  0.90690  Biso   1.000  H
  C2672    1.0000 0.76763  0.83301  0.86138  Biso   1.000  C
  H1645    1.0000 0.75700  0.83410  0.85110  Biso   1.000  H
  C2673    1.0000 0.77940  0.81540  0.86166  Biso   1.000  C
  H1646    1.0000 0.77690  0.80450  0.85190  Biso   1.000  H
  C2674    1.0000 0.79530  0.81360  0.87667  Biso   1.000  C
  H1647    1.0000 0.80410  0.80160  0.87710  Biso   1.000  H
  C2675    1.0000 0.79783  0.82984  0.89076  Biso   1.000  C
  C2676    1.0000 0.78502  0.84731  0.88915  Biso   1.000  C
  H1648    1.0000 0.78700  0.85850  0.89870  Biso   1.000  H
  C2677    1.0000 0.81441  0.82908  0.90698  Biso   1.000  C
  C2678    1.0000 0.75059  0.87611  0.92522  Biso   1.000  C
  N1021    1.0000 0.65904  0.86692  0.76475  Biso   1.000  N
  N1022    1.0000 0.63715  0.77446  0.89301  Biso   1.000  N
  N1023    1.0000 0.62497  0.76551  0.84758  Biso   1.000  N
  N1024    1.0000 0.67040  0.81091  0.84418  Biso   1.000  N
  N1025    1.0000 0.66034  0.82025  0.80971  Biso   1.000  N
  N1026    1.0000 0.68887  0.83763  0.82613  Biso   1.000  N
  N1027    1.0000 0.72432  0.85075  0.87815  Biso   1.000  N
  N1028    1.0000 0.74881  0.87676  0.90762  Biso   1.000  N
  N1029    1.0000 0.77009  0.84897  0.87476  Biso   1.000  N
  N1030    1.0000 0.82831  0.81397  0.90572  Biso   1.000  N
  S205     1.0000 0.66304  0.79463  0.92188  Biso   1.000  S
  S206     1.0000 0.75216  0.87346  0.95072  Biso   1.000  S
  C2679    1.0000 0.65972  0.35258  0.28011  Biso   1.000  C
  H1649    1.0000 0.64760  0.34440  0.28270  Biso   1.000  H
  C2680    1.0000 0.67742  0.34914  0.29250  Biso   1.000  C
  C2681    1.0000 0.69523  0.36072  0.28862  Biso   1.000  C
  H1650    1.0000 0.70740  0.35920  0.29700  Biso   1.000  H
  C2682    1.0000 0.69486  0.37482  0.27190  Biso   1.000  C
  H1651    1.0000 0.70710  0.38240  0.26820  Biso   1.000  H
  C2683    1.0000 0.67686  0.37758  0.26093  Biso   1.000  C
  H1652    1.0000 0.67680  0.38760  0.24990  Biso   1.000  H
  C2684    1.0000 0.64774  0.28338  0.40467  Biso   1.000  C
  C2685    1.0000 0.61148  0.26321  0.33157  Biso   1.000  C
  H1653    1.0000 0.60060  0.25320  0.33290  Biso   1.000  H
  C2686    1.0000 0.61260  0.27462  0.31334  Biso   1.000  C
  H1654    1.0000 0.60310  0.27200  0.30220  Biso   1.000  H
  C2687    1.0000 0.62779  0.29007  0.31142  Biso   1.000  C
  H1655    1.0000 0.62840  0.29870  0.29930  Biso   1.000  H
  C2688    1.0000 0.64210  0.29249  0.32774  Biso   1.000  C
  C2689    1.0000 0.64026  0.28001  0.34528  Biso   1.000  C
  H1656    1.0000 0.65020  0.28170  0.35620  Biso   1.000  H
  C2690    1.0000 0.65868  0.30877  0.32718  Biso   1.000  C
  C2691    1.0000 0.67567  0.33461  0.31030  Biso   1.000  C
  C2692    1.0000 0.68511  0.32589  0.34316  Biso   1.000  C
  C2693    1.0000 0.71232  0.34601  0.36178  Biso   1.000  C
  H1657    1.0000 0.71370  0.35420  0.34940  Biso   1.000  H
  C2694    1.0000 0.69779  0.32952  0.36185  Biso   1.000  C
  C2695    1.0000 0.69589  0.31735  0.37960  Biso   1.000  C
  H1658    1.0000 0.68600  0.30620  0.38030  Biso   1.000  H
  C2696    1.0000 0.70891  0.32192  0.39642  Biso   1.000  C
  H1659    1.0000 0.70840  0.31360  0.40870  Biso   1.000  H
  C2697    1.0000 0.72254  0.33860  0.39511  Biso   1.000  C
  H1660    1.0000 0.73110  0.34160  0.40690  Biso   1.000  H
  C2698    1.0000 0.76763  0.33301  0.36138  Biso   1.000  C
  H1661    1.0000 0.75700  0.33410  0.35110  Biso   1.000  H
  C2699    1.0000 0.77940  0.31540  0.36166  Biso   1.000  C
  H1662    1.0000 0.77690  0.30450  0.35190  Biso   1.000  H
  C2700    1.0000 0.79530  0.31360  0.37667  Biso   1.000  C
  H1663    1.0000 0.80410  0.30160  0.37710  Biso   1.000  H
  C2701    1.0000 0.79783  0.32984  0.39076  Biso   1.000  C
  C2702    1.0000 0.78502  0.34731  0.38915  Biso   1.000  C
  H1664    1.0000 0.78700  0.35850  0.39870  Biso   1.000  H
  C2703    1.0000 0.81441  0.32908  0.40698  Biso   1.000  C
  C2704    1.0000 0.75059  0.37611  0.42522  Biso   1.000  C
  N1031    1.0000 0.65904  0.36692  0.26475  Biso   1.000  N
  N1032    1.0000 0.63715  0.27446  0.39301  Biso   1.000  N
  N1033    1.0000 0.62497  0.26551  0.34758  Biso   1.000  N
  N1034    1.0000 0.67040  0.31091  0.34418  Biso   1.000  N
  N1035    1.0000 0.66034  0.32025  0.30971  Biso   1.000  N
  N1036    1.0000 0.68887  0.33763  0.32613  Biso   1.000  N
  N1037    1.0000 0.72432  0.35075  0.37815  Biso   1.000  N
  N1038    1.0000 0.74881  0.37676  0.40762  Biso   1.000  N
  N1039    1.0000 0.77009  0.34897  0.37476  Biso   1.000  N
  N1040    1.0000 0.82831  0.31397  0.40572  Biso   1.000  N
  S207     1.0000 0.66304  0.29463  0.42188  Biso   1.000  S
  S208     1.0000 0.75216  0.37346  0.45072  Biso   1.000  S
  C2705    1.0000 0.65972  0.89742  0.96989  Biso   1.000  C
  H1665    1.0000 0.64760  0.90560  0.96730  Biso   1.000  H
  C2706    1.0000 0.67742  0.90086  0.95750  Biso   1.000  C
  C2707    1.0000 0.69523  0.88928  0.96138  Biso   1.000  C
  H1666    1.0000 0.70740  0.89080  0.95300  Biso   1.000  H
  C2708    1.0000 0.69486  0.87518  0.97810  Biso   1.000  C
  H1667    1.0000 0.70710  0.86760  0.98180  Biso   1.000  H
  C2709    1.0000 0.67686  0.87242  0.98907  Biso   1.000  C
  H1668    1.0000 0.67680  0.86240  0.00010  Biso   1.000  H
  C2710    1.0000 0.64774  0.96662  0.84533  Biso   1.000  C
  C2711    1.0000 0.61148  0.98679  0.91843  Biso   1.000  C
  H1669    1.0000 0.60060  0.99680  0.91710  Biso   1.000  H
  C2712    1.0000 0.61260  0.97538  0.93666  Biso   1.000  C
  H1670    1.0000 0.60310  0.97800  0.94780  Biso   1.000  H
  C2713    1.0000 0.62779  0.95993  0.93858  Biso   1.000  C
  H1671    1.0000 0.62840  0.95130  0.95070  Biso   1.000  H
  C2714    1.0000 0.64210  0.95751  0.92226  Biso   1.000  C
  C2715    1.0000 0.64026  0.96999  0.90472  Biso   1.000  C
  H1672    1.0000 0.65020  0.96830  0.89380  Biso   1.000  H
  C2716    1.0000 0.65868  0.94123  0.92282  Biso   1.000  C
  C2717    1.0000 0.67567  0.91539  0.93970  Biso   1.000  C
  C2718    1.0000 0.68511  0.92411  0.90684  Biso   1.000  C
  C2719    1.0000 0.71232  0.90399  0.88822  Biso   1.000  C
  H1673    1.0000 0.71370  0.89580  0.90060  Biso   1.000  H
  C2720    1.0000 0.69779  0.92048  0.88815  Biso   1.000  C
  C2721    1.0000 0.69589  0.93265  0.87040  Biso   1.000  C
  H1674    1.0000 0.68600  0.94380  0.86970  Biso   1.000  H
  C2722    1.0000 0.70891  0.92808  0.85358  Biso   1.000  C
  H1675    1.0000 0.70840  0.93640  0.84130  Biso   1.000  H
  C2723    1.0000 0.72254  0.91140  0.85489  Biso   1.000  C
  H1676    1.0000 0.73110  0.90840  0.84310  Biso   1.000  H
  C2724    1.0000 0.76763  0.91699  0.88862  Biso   1.000  C
  H1677    1.0000 0.75700  0.91590  0.89890  Biso   1.000  H
  C2725    1.0000 0.77940  0.93460  0.88834  Biso   1.000  C
  H1678    1.0000 0.77690  0.94550  0.89810  Biso   1.000  H
  C2726    1.0000 0.79530  0.93640  0.87333  Biso   1.000  C
  H1679    1.0000 0.80410  0.94840  0.87290  Biso   1.000  H
  C2727    1.0000 0.79783  0.92016  0.85924  Biso   1.000  C
  C2728    1.0000 0.78502  0.90269  0.86085  Biso   1.000  C
  H1680    1.0000 0.78700  0.89150  0.85130  Biso   1.000  H
  C2729    1.0000 0.81441  0.92092  0.84302  Biso   1.000  C
  C2730    1.0000 0.75059  0.87389  0.82478  Biso   1.000  C
  N1041    1.0000 0.65904  0.88308  0.98525  Biso   1.000  N
  N1042    1.0000 0.63715  0.97554  0.85699  Biso   1.000  N
  N1043    1.0000 0.62497  0.98449  0.90242  Biso   1.000  N
  N1044    1.0000 0.67040  0.93909  0.90582  Biso   1.000  N
  N1045    1.0000 0.66034  0.92975  0.94029  Biso   1.000  N
  N1046    1.0000 0.68887  0.91237  0.92387  Biso   1.000  N
  N1047    1.0000 0.72432  0.89925  0.87185  Biso   1.000  N
  N1048    1.0000 0.74881  0.87324  0.84238  Biso   1.000  N
  N1049    1.0000 0.77009  0.90103  0.87524  Biso   1.000  N
  N1050    1.0000 0.82831  0.93603  0.84428  Biso   1.000  N
  S209     1.0000 0.66304  0.95537  0.82812  Biso   1.000  S
  S210     1.0000 0.75216  0.87654  0.79928  Biso   1.000  S
  C2731    1.0000 0.65972  0.39742  0.46989  Biso   1.000  C
  H1681    1.0000 0.64760  0.40560  0.46730  Biso   1.000  H
  C2732    1.0000 0.67742  0.40086  0.45750  Biso   1.000  C
  C2733    1.0000 0.69523  0.38928  0.46138  Biso   1.000  C
  H1682    1.0000 0.70740  0.39080  0.45300  Biso   1.000  H
  C2734    1.0000 0.69486  0.37518  0.47810  Biso   1.000  C
  H1683    1.0000 0.70710  0.36760  0.48180  Biso   1.000  H
  C2735    1.0000 0.67686  0.37242  0.48907  Biso   1.000  C
  H1684    1.0000 0.67680  0.36240  0.50010  Biso   1.000  H
  C2736    1.0000 0.64774  0.46662  0.34533  Biso   1.000  C
  C2737    1.0000 0.61148  0.48679  0.41843  Biso   1.000  C
  H1685    1.0000 0.60060  0.49680  0.41710  Biso   1.000  H
  C2738    1.0000 0.61260  0.47538  0.43666  Biso   1.000  C
  H1686    1.0000 0.60310  0.47800  0.44780  Biso   1.000  H
  C2739    1.0000 0.62779  0.45993  0.43858  Biso   1.000  C
  H1687    1.0000 0.62840  0.45130  0.45070  Biso   1.000  H
  C2740    1.0000 0.64210  0.45751  0.42226  Biso   1.000  C
  C2741    1.0000 0.64026  0.46999  0.40472  Biso   1.000  C
  H1688    1.0000 0.65020  0.46830  0.39380  Biso   1.000  H
  C2742    1.0000 0.65868  0.44123  0.42282  Biso   1.000  C
  C2743    1.0000 0.67567  0.41539  0.43970  Biso   1.000  C
  C2744    1.0000 0.68511  0.42411  0.40684  Biso   1.000  C
  C2745    1.0000 0.71232  0.40399  0.38822  Biso   1.000  C
  H1689    1.0000 0.71370  0.39580  0.40060  Biso   1.000  H
  C2746    1.0000 0.69779  0.42048  0.38815  Biso   1.000  C
  C2747    1.0000 0.69589  0.43265  0.37040  Biso   1.000  C
  H1690    1.0000 0.68600  0.44380  0.36970  Biso   1.000  H
  C2748    1.0000 0.70891  0.42808  0.35358  Biso   1.000  C
  H1691    1.0000 0.70840  0.43640  0.34130  Biso   1.000  H
  C2749    1.0000 0.72254  0.41140  0.35489  Biso   1.000  C
  H1692    1.0000 0.73110  0.40840  0.34310  Biso   1.000  H
  C2750    1.0000 0.76763  0.41699  0.38862  Biso   1.000  C
  H1693    1.0000 0.75700  0.41590  0.39890  Biso   1.000  H
  C2751    1.0000 0.77940  0.43460  0.38834  Biso   1.000  C
  H1694    1.0000 0.77690  0.44550  0.39810  Biso   1.000  H
  C2752    1.0000 0.79530  0.43640  0.37333  Biso   1.000  C
  H1695    1.0000 0.80410  0.44840  0.37290  Biso   1.000  H
  C2753    1.0000 0.79783  0.42016  0.35924  Biso   1.000  C
  C2754    1.0000 0.78502  0.40269  0.36085  Biso   1.000  C
  H1696    1.0000 0.78700  0.39150  0.35130  Biso   1.000  H
  C2755    1.0000 0.81441  0.42092  0.34302  Biso   1.000  C
  C2756    1.0000 0.75059  0.37389  0.32478  Biso   1.000  C
  N1051    1.0000 0.65904  0.38308  0.48525  Biso   1.000  N
  N1052    1.0000 0.63715  0.47554  0.35699  Biso   1.000  N
  N1053    1.0000 0.62497  0.48449  0.40242  Biso   1.000  N
  N1054    1.0000 0.67040  0.43909  0.40582  Biso   1.000  N
  N1055    1.0000 0.66034  0.42975  0.44029  Biso   1.000  N
  N1056    1.0000 0.68887  0.41237  0.42387  Biso   1.000  N
  N1057    1.0000 0.72432  0.39925  0.37185  Biso   1.000  N
  N1058    1.0000 0.74881  0.37324  0.34238  Biso   1.000  N
  N1059    1.0000 0.77009  0.40103  0.37524  Biso   1.000  N
  N1060    1.0000 0.82831  0.43603  0.34428  Biso   1.000  N
  S211     1.0000 0.66304  0.45537  0.32812  Biso   1.000  S
  S212     1.0000 0.75216  0.37654  0.29928  Biso   1.000  S
  C2757    1.0000 0.15972  0.89742  0.46989  Biso   1.000  C
  H1697    1.0000 0.14760  0.90560  0.46730  Biso   1.000  H
  C2758    1.0000 0.17742  0.90086  0.45750  Biso   1.000  C
  C2759    1.0000 0.19523  0.88928  0.46138  Biso   1.000  C
  H1698    1.0000 0.20740  0.89080  0.45300  Biso   1.000  H
  C2760    1.0000 0.19486  0.87518  0.47810  Biso   1.000  C
  H1699    1.0000 0.20710  0.86760  0.48180  Biso   1.000  H
  C2761    1.0000 0.17686  0.87242  0.48907  Biso   1.000  C
  H1700    1.0000 0.17680  0.86240  0.50010  Biso   1.000  H
  C2762    1.0000 0.14774  0.96662  0.34533  Biso   1.000  C
  C2763    1.0000 0.11148  0.98679  0.41843  Biso   1.000  C
  H1701    1.0000 0.10060  0.99680  0.41710  Biso   1.000  H
  C2764    1.0000 0.11260  0.97538  0.43666  Biso   1.000  C
  H1702    1.0000 0.10310  0.97800  0.44780  Biso   1.000  H
  C2765    1.0000 0.12779  0.95993  0.43858  Biso   1.000  C
  H1703    1.0000 0.12840  0.95130  0.45070  Biso   1.000  H
  C2766    1.0000 0.14210  0.95751  0.42226  Biso   1.000  C
  C2767    1.0000 0.14026  0.96999  0.40472  Biso   1.000  C
  H1704    1.0000 0.15020  0.96830  0.39380  Biso   1.000  H
  C2768    1.0000 0.15868  0.94123  0.42282  Biso   1.000  C
  C2769    1.0000 0.17567  0.91539  0.43970  Biso   1.000  C
  C2770    1.0000 0.18511  0.92411  0.40684  Biso   1.000  C
  C2771    1.0000 0.21232  0.90399  0.38822  Biso   1.000  C
  H1705    1.0000 0.21370  0.89580  0.40060  Biso   1.000  H
  C2772    1.0000 0.19779  0.92048  0.38815  Biso   1.000  C
  C2773    1.0000 0.19589  0.93265  0.37040  Biso   1.000  C
  H1706    1.0000 0.18600  0.94380  0.36970  Biso   1.000  H
  C2774    1.0000 0.20891  0.92808  0.35358  Biso   1.000  C
  H1707    1.0000 0.20840  0.93640  0.34130  Biso   1.000  H
  C2775    1.0000 0.22254  0.91140  0.35489  Biso   1.000  C
  H1708    1.0000 0.23110  0.90840  0.34310  Biso   1.000  H
  C2776    1.0000 0.26763  0.91699  0.38862  Biso   1.000  C
  H1709    1.0000 0.25700  0.91590  0.39890  Biso   1.000  H
  C2777    1.0000 0.27940  0.93460  0.38834  Biso   1.000  C
  H1710    1.0000 0.27690  0.94550  0.39810  Biso   1.000  H
  C2778    1.0000 0.29530  0.93640  0.37333  Biso   1.000  C
  H1711    1.0000 0.30410  0.94840  0.37290  Biso   1.000  H
  C2779    1.0000 0.29783  0.92016  0.35924  Biso   1.000  C
  C2780    1.0000 0.28502  0.90269  0.36085  Biso   1.000  C
  H1712    1.0000 0.28700  0.89150  0.35130  Biso   1.000  H
  C2781    1.0000 0.31441  0.92092  0.34302  Biso   1.000  C
  C2782    1.0000 0.25059  0.87389  0.32478  Biso   1.000  C
  N1061    1.0000 0.15904  0.88308  0.48525  Biso   1.000  N
  N1062    1.0000 0.13715  0.97554  0.35699  Biso   1.000  N
  N1063    1.0000 0.12497  0.98449  0.40242  Biso   1.000  N
  N1064    1.0000 0.17040  0.93909  0.40582  Biso   1.000  N
  N1065    1.0000 0.16034  0.92975  0.44029  Biso   1.000  N
  N1066    1.0000 0.18887  0.91237  0.42387  Biso   1.000  N
  N1067    1.0000 0.22432  0.89925  0.37185  Biso   1.000  N
  N1068    1.0000 0.24881  0.87324  0.34238  Biso   1.000  N
  N1069    1.0000 0.27009  0.90103  0.37524  Biso   1.000  N
  N1070    1.0000 0.32831  0.93603  0.34428  Biso   1.000  N
  S213     1.0000 0.16304  0.95537  0.32812  Biso   1.000  S
  S214     1.0000 0.25216  0.87654  0.29928  Biso   1.000  S
  C2783    1.0000 0.15972  0.39742  0.96989  Biso   1.000  C
  H1713    1.0000 0.14760  0.40560  0.96730  Biso   1.000  H
  C2784    1.0000 0.17742  0.40086  0.95750  Biso   1.000  C
  C2785    1.0000 0.19523  0.38928  0.96138  Biso   1.000  C
  H1714    1.0000 0.20740  0.39080  0.95300  Biso   1.000  H
  C2786    1.0000 0.19486  0.37518  0.97810  Biso   1.000  C
  H1715    1.0000 0.20710  0.36760  0.98180  Biso   1.000  H
  C2787    1.0000 0.17686  0.37242  0.98907  Biso   1.000  C
  H1716    1.0000 0.17680  0.36240  0.00010  Biso   1.000  H
  C2788    1.0000 0.14774  0.46662  0.84533  Biso   1.000  C
  C2789    1.0000 0.11148  0.48679  0.91843  Biso   1.000  C
  H1717    1.0000 0.10060  0.49680  0.91710  Biso   1.000  H
  C2790    1.0000 0.11260  0.47538  0.93666  Biso   1.000  C
  H1718    1.0000 0.10310  0.47800  0.94780  Biso   1.000  H
  C2791    1.0000 0.12779  0.45993  0.93858  Biso   1.000  C
  H1719    1.0000 0.12840  0.45130  0.95070  Biso   1.000  H
  C2792    1.0000 0.14210  0.45751  0.92226  Biso   1.000  C
  C2793    1.0000 0.14026  0.46999  0.90472  Biso   1.000  C
  H1720    1.0000 0.15020  0.46830  0.89380  Biso   1.000  H
  C2794    1.0000 0.15868  0.44123  0.92282  Biso   1.000  C
  C2795    1.0000 0.17567  0.41539  0.93970  Biso   1.000  C
  C2796    1.0000 0.18511  0.42411  0.90684  Biso   1.000  C
  C2797    1.0000 0.21232  0.40399  0.88822  Biso   1.000  C
  H1721    1.0000 0.21370  0.39580  0.90060  Biso   1.000  H
  C2798    1.0000 0.19779  0.42048  0.88815  Biso   1.000  C
  C2799    1.0000 0.19589  0.43265  0.87040  Biso   1.000  C
  H1722    1.0000 0.18600  0.44380  0.86970  Biso   1.000  H
  C2800    1.0000 0.20891  0.42808  0.85358  Biso   1.000  C
  H1723    1.0000 0.20840  0.43640  0.84130  Biso   1.000  H
  C2801    1.0000 0.22254  0.41140  0.85489  Biso   1.000  C
  H1724    1.0000 0.23110  0.40840  0.84310  Biso   1.000  H
  C2802    1.0000 0.26763  0.41699  0.88862  Biso   1.000  C
  H1725    1.0000 0.25700  0.41590  0.89890  Biso   1.000  H
  C2803    1.0000 0.27940  0.43460  0.88834  Biso   1.000  C
  H1726    1.0000 0.27690  0.44550  0.89810  Biso   1.000  H
  C2804    1.0000 0.29530  0.43640  0.87333  Biso   1.000  C
  H1727    1.0000 0.30410  0.44840  0.87290  Biso   1.000  H
  C2805    1.0000 0.29783  0.42016  0.85924  Biso   1.000  C
  C2806    1.0000 0.28502  0.40269  0.86085  Biso   1.000  C
  H1728    1.0000 0.28700  0.39150  0.85130  Biso   1.000  H
  C2807    1.0000 0.31441  0.42092  0.84302  Biso   1.000  C
  C2808    1.0000 0.25059  0.37389  0.82478  Biso   1.000  C
  N1071    1.0000 0.15904  0.38308  0.98525  Biso   1.000  N
  N1072    1.0000 0.13715  0.47554  0.85699  Biso   1.000  N
  N1073    1.0000 0.12497  0.48449  0.90242  Biso   1.000  N
  N1074    1.0000 0.17040  0.43909  0.90582  Biso   1.000  N
  N1075    1.0000 0.16034  0.42975  0.94029  Biso   1.000  N
  N1076    1.0000 0.18887  0.41237  0.92387  Biso   1.000  N
  N1077    1.0000 0.22432  0.39925  0.87185  Biso   1.000  N
  N1078    1.0000 0.24881  0.37324  0.84238  Biso   1.000  N
  N1079    1.0000 0.27009  0.40103  0.87524  Biso   1.000  N
  N1080    1.0000 0.32831  0.43603  0.84428  Biso   1.000  N
  S215     1.0000 0.16304  0.45537  0.82812  Biso   1.000  S
  S216     1.0000 0.25216  0.37654  0.79928  Biso   1.000  S
  C2809    1.0000 0.09028  0.35258  0.46989  Biso   1.000  C
  H1729    1.0000 0.10240  0.34440  0.46730  Biso   1.000  H
  C2810    1.0000 0.07258  0.34914  0.45750  Biso   1.000  C
  C2811    1.0000 0.05477  0.36072  0.46138  Biso   1.000  C
  H1730    1.0000 0.04260  0.35920  0.45300  Biso   1.000  H
  C2812    1.0000 0.05514  0.37482  0.47810  Biso   1.000  C
  H1731    1.0000 0.04290  0.38240  0.48180  Biso   1.000  H
  C2813    1.0000 0.07314  0.37758  0.48907  Biso   1.000  C
  H1732    1.0000 0.07320  0.38760  0.50010  Biso   1.000  H
  C2814    1.0000 0.10226  0.28338  0.34533  Biso   1.000  C
  C2815    1.0000 0.13852  0.26321  0.41843  Biso   1.000  C
  H1733    1.0000 0.14940  0.25320  0.41710  Biso   1.000  H
  C2816    1.0000 0.13740  0.27462  0.43666  Biso   1.000  C
  H1734    1.0000 0.14690  0.27200  0.44780  Biso   1.000  H
  C2817    1.0000 0.12221  0.29007  0.43858  Biso   1.000  C
  H1735    1.0000 0.12160  0.29870  0.45070  Biso   1.000  H
  C2818    1.0000 0.10790  0.29249  0.42226  Biso   1.000  C
  C2819    1.0000 0.10974  0.28001  0.40472  Biso   1.000  C
  H1736    1.0000 0.09980  0.28170  0.39380  Biso   1.000  H
  C2820    1.0000 0.09132  0.30877  0.42282  Biso   1.000  C
  C2821    1.0000 0.07433  0.33461  0.43970  Biso   1.000  C
  C2822    1.0000 0.06489  0.32589  0.40684  Biso   1.000  C
  C2823    1.0000 0.03768  0.34601  0.38822  Biso   1.000  C
  H1737    1.0000 0.03630  0.35420  0.40060  Biso   1.000  H
  C2824    1.0000 0.05221  0.32952  0.38815  Biso   1.000  C
  C2825    1.0000 0.05411  0.31735  0.37040  Biso   1.000  C
  H1738    1.0000 0.06400  0.30620  0.36970  Biso   1.000  H
  C2826    1.0000 0.04109  0.32192  0.35358  Biso   1.000  C
  H1739    1.0000 0.04160  0.31360  0.34130  Biso   1.000  H
  C2827    1.0000 0.02746  0.33860  0.35489  Biso   1.000  C
  H1740    1.0000 0.01890  0.34160  0.34310  Biso   1.000  H
  C2828    1.0000 0.98237  0.33301  0.38862  Biso   1.000  C
  H1741    1.0000 0.99300  0.33410  0.39890  Biso   1.000  H
  C2829    1.0000 0.97060  0.31540  0.38834  Biso   1.000  C
  H1742    1.0000 0.97310  0.30450  0.39810  Biso   1.000  H
  C2830    1.0000 0.95470  0.31360  0.37333  Biso   1.000  C
  H1743    1.0000 0.94590  0.30160  0.37290  Biso   1.000  H
  C2831    1.0000 0.95217  0.32984  0.35924  Biso   1.000  C
  C2832    1.0000 0.96498  0.34731  0.36085  Biso   1.000  C
  H1744    1.0000 0.96300  0.35850  0.35130  Biso   1.000  H
  C2833    1.0000 0.93559  0.32908  0.34302  Biso   1.000  C
  C2834    1.0000 0.99941  0.37611  0.32478  Biso   1.000  C
  N1081    1.0000 0.09096  0.36692  0.48525  Biso   1.000  N
  N1082    1.0000 0.11285  0.27446  0.35699  Biso   1.000  N
  N1083    1.0000 0.12503  0.26551  0.40242  Biso   1.000  N
  N1084    1.0000 0.07960  0.31091  0.40582  Biso   1.000  N
  N1085    1.0000 0.08966  0.32025  0.44029  Biso   1.000  N
  N1086    1.0000 0.06113  0.33763  0.42387  Biso   1.000  N
  N1087    1.0000 0.02568  0.35075  0.37185  Biso   1.000  N
  N1088    1.0000 0.00119  0.37676  0.34238  Biso   1.000  N
  N1089    1.0000 0.97991  0.34897  0.37524  Biso   1.000  N
  N1090    1.0000 0.92169  0.31397  0.34428  Biso   1.000  N
  S217     1.0000 0.08696  0.29463  0.32812  Biso   1.000  S
  S218     1.0000 0.99784  0.37346  0.29928  Biso   1.000  S
  C2835    1.0000 0.09028  0.85258  0.96989  Biso   1.000  C
  H1745    1.0000 0.10240  0.84440  0.96730  Biso   1.000  H
  C2836    1.0000 0.07258  0.84914  0.95750  Biso   1.000  C
  C2837    1.0000 0.05477  0.86072  0.96138  Biso   1.000  C
  H1746    1.0000 0.04260  0.85920  0.95300  Biso   1.000  H
  C2838    1.0000 0.05514  0.87482  0.97810  Biso   1.000  C
  H1747    1.0000 0.04290  0.88240  0.98180  Biso   1.000  H
  C2839    1.0000 0.07314  0.87758  0.98907  Biso   1.000  C
  H1748    1.0000 0.07320  0.88760  0.00010  Biso   1.000  H
  C2840    1.0000 0.10226  0.78338  0.84533  Biso   1.000  C
  C2841    1.0000 0.13852  0.76321  0.91843  Biso   1.000  C
  H1749    1.0000 0.14940  0.75320  0.91710  Biso   1.000  H
  C2842    1.0000 0.13740  0.77462  0.93666  Biso   1.000  C
  H1750    1.0000 0.14690  0.77200  0.94780  Biso   1.000  H
  C2843    1.0000 0.12221  0.79007  0.93858  Biso   1.000  C
  H1751    1.0000 0.12160  0.79870  0.95070  Biso   1.000  H
  C2844    1.0000 0.10790  0.79249  0.92226  Biso   1.000  C
  C2845    1.0000 0.10974  0.78001  0.90472  Biso   1.000  C
  H1752    1.0000 0.09980  0.78170  0.89380  Biso   1.000  H
  C2846    1.0000 0.09132  0.80877  0.92282  Biso   1.000  C
  C2847    1.0000 0.07433  0.83461  0.93970  Biso   1.000  C
  C2848    1.0000 0.06489  0.82589  0.90684  Biso   1.000  C
  C2849    1.0000 0.03768  0.84601  0.88822  Biso   1.000  C
  H1753    1.0000 0.03630  0.85420  0.90060  Biso   1.000  H
  C2850    1.0000 0.05221  0.82952  0.88815  Biso   1.000  C
  C2851    1.0000 0.05411  0.81735  0.87040  Biso   1.000  C
  H1754    1.0000 0.06400  0.80620  0.86970  Biso   1.000  H
  C2852    1.0000 0.04109  0.82192  0.85358  Biso   1.000  C
  H1755    1.0000 0.04160  0.81360  0.84130  Biso   1.000  H
  C2853    1.0000 0.02746  0.83860  0.85489  Biso   1.000  C
  H1756    1.0000 0.01890  0.84160  0.84310  Biso   1.000  H
  C2854    1.0000 0.98237  0.83301  0.88862  Biso   1.000  C
  H1757    1.0000 0.99300  0.83410  0.89890  Biso   1.000  H
  C2855    1.0000 0.97060  0.81540  0.88834  Biso   1.000  C
  H1758    1.0000 0.97310  0.80450  0.89810  Biso   1.000  H
  C2856    1.0000 0.95470  0.81360  0.87333  Biso   1.000  C
  H1759    1.0000 0.94590  0.80160  0.87290  Biso   1.000  H
  C2857    1.0000 0.95217  0.82984  0.85924  Biso   1.000  C
  C2858    1.0000 0.96498  0.84731  0.86085  Biso   1.000  C
  H1760    1.0000 0.96300  0.85850  0.85130  Biso   1.000  H
  C2859    1.0000 0.93559  0.82908  0.84302  Biso   1.000  C
  C2860    1.0000 0.99941  0.87611  0.82478  Biso   1.000  C
  N1091    1.0000 0.09096  0.86692  0.98525  Biso   1.000  N
  N1092    1.0000 0.11285  0.77446  0.85699  Biso   1.000  N
  N1093    1.0000 0.12503  0.76551  0.90242  Biso   1.000  N
  N1094    1.0000 0.07960  0.81091  0.90582  Biso   1.000  N
  N1095    1.0000 0.08966  0.82025  0.94029  Biso   1.000  N
  N1096    1.0000 0.06113  0.83763  0.92387  Biso   1.000  N
  N1097    1.0000 0.02568  0.85075  0.87185  Biso   1.000  N
  N1098    1.0000 0.00119  0.87676  0.84238  Biso   1.000  N
  N1099    1.0000 0.97991  0.84897  0.87524  Biso   1.000  N
  N1100    1.0000 0.92169  0.81397  0.84428  Biso   1.000  N
  S219     1.0000 0.08696  0.79463  0.82812  Biso   1.000  S
  S220     1.0000 0.99784  0.87346  0.79928  Biso   1.000  S
  C2861    1.0000 0.59028  0.35258  0.96989  Biso   1.000  C
  H1761    1.0000 0.60240  0.34440  0.96730  Biso   1.000  H
  C2862    1.0000 0.57258  0.34914  0.95750  Biso   1.000  C
  C2863    1.0000 0.55477  0.36072  0.96138  Biso   1.000  C
  H1762    1.0000 0.54260  0.35920  0.95300  Biso   1.000  H
  C2864    1.0000 0.55514  0.37482  0.97810  Biso   1.000  C
  H1763    1.0000 0.54290  0.38240  0.98180  Biso   1.000  H
  C2865    1.0000 0.57314  0.37758  0.98907  Biso   1.000  C
  H1764    1.0000 0.57320  0.38760  0.00010  Biso   1.000  H
  C2866    1.0000 0.60226  0.28338  0.84533  Biso   1.000  C
  C2867    1.0000 0.63852  0.26321  0.91843  Biso   1.000  C
  H1765    1.0000 0.64940  0.25320  0.91710  Biso   1.000  H
  C2868    1.0000 0.63740  0.27462  0.93666  Biso   1.000  C
  H1766    1.0000 0.64690  0.27200  0.94780  Biso   1.000  H
  C2869    1.0000 0.62221  0.29007  0.93858  Biso   1.000  C
  H1767    1.0000 0.62160  0.29870  0.95070  Biso   1.000  H
  C2870    1.0000 0.60790  0.29249  0.92226  Biso   1.000  C
  C2871    1.0000 0.60974  0.28001  0.90472  Biso   1.000  C
  H1768    1.0000 0.59980  0.28170  0.89380  Biso   1.000  H
  C2872    1.0000 0.59132  0.30877  0.92282  Biso   1.000  C
  C2873    1.0000 0.57433  0.33461  0.93970  Biso   1.000  C
  C2874    1.0000 0.56489  0.32589  0.90684  Biso   1.000  C
  C2875    1.0000 0.53768  0.34601  0.88822  Biso   1.000  C
  H1769    1.0000 0.53630  0.35420  0.90060  Biso   1.000  H
  C2876    1.0000 0.55221  0.32952  0.88815  Biso   1.000  C
  C2877    1.0000 0.55411  0.31735  0.87040  Biso   1.000  C
  H1770    1.0000 0.56400  0.30620  0.86970  Biso   1.000  H
  C2878    1.0000 0.54109  0.32192  0.85358  Biso   1.000  C
  H1771    1.0000 0.54160  0.31360  0.84130  Biso   1.000  H
  C2879    1.0000 0.52746  0.33860  0.85489  Biso   1.000  C
  H1772    1.0000 0.51890  0.34160  0.84310  Biso   1.000  H
  C2880    1.0000 0.48237  0.33301  0.88862  Biso   1.000  C
  H1773    1.0000 0.49300  0.33410  0.89890  Biso   1.000  H
  C2881    1.0000 0.47060  0.31540  0.88834  Biso   1.000  C
  H1774    1.0000 0.47310  0.30450  0.89810  Biso   1.000  H
  C2882    1.0000 0.45470  0.31360  0.87333  Biso   1.000  C
  H1775    1.0000 0.44590  0.30160  0.87290  Biso   1.000  H
  C2883    1.0000 0.45217  0.32984  0.85924  Biso   1.000  C
  C2884    1.0000 0.46498  0.34731  0.86085  Biso   1.000  C
  H1776    1.0000 0.46300  0.35850  0.85130  Biso   1.000  H
  C2885    1.0000 0.43559  0.32908  0.84302  Biso   1.000  C
  C2886    1.0000 0.49941  0.37611  0.82478  Biso   1.000  C
  N1101    1.0000 0.59096  0.36692  0.98525  Biso   1.000  N
  N1102    1.0000 0.61285  0.27446  0.85699  Biso   1.000  N
  N1103    1.0000 0.62503  0.26551  0.90242  Biso   1.000  N
  N1104    1.0000 0.57960  0.31091  0.90582  Biso   1.000  N
  N1105    1.0000 0.58966  0.32025  0.94029  Biso   1.000  N
  N1106    1.0000 0.56113  0.33763  0.92387  Biso   1.000  N
  N1107    1.0000 0.52568  0.35075  0.87185  Biso   1.000  N
  N1108    1.0000 0.50119  0.37676  0.84238  Biso   1.000  N
  N1109    1.0000 0.47991  0.34897  0.87524  Biso   1.000  N
  N1110    1.0000 0.42169  0.31397  0.84428  Biso   1.000  N
  S221     1.0000 0.58696  0.29463  0.82812  Biso   1.000  S
  S222     1.0000 0.49784  0.37346  0.79928  Biso   1.000  S
  C2887    1.0000 0.59028  0.85258  0.46989  Biso   1.000  C
  H1777    1.0000 0.60240  0.84440  0.46730  Biso   1.000  H
  C2888    1.0000 0.57258  0.84914  0.45750  Biso   1.000  C
  C2889    1.0000 0.55477  0.86072  0.46138  Biso   1.000  C
  H1778    1.0000 0.54260  0.85920  0.45300  Biso   1.000  H
  C2890    1.0000 0.55514  0.87482  0.47810  Biso   1.000  C
  H1779    1.0000 0.54290  0.88240  0.48180  Biso   1.000  H
  C2891    1.0000 0.57314  0.87758  0.48907  Biso   1.000  C
  H1780    1.0000 0.57320  0.88760  0.50010  Biso   1.000  H
  C2892    1.0000 0.60226  0.78338  0.34533  Biso   1.000  C
  C2893    1.0000 0.63852  0.76321  0.41843  Biso   1.000  C
  H1781    1.0000 0.64940  0.75320  0.41710  Biso   1.000  H
  C2894    1.0000 0.63740  0.77462  0.43666  Biso   1.000  C
  H1782    1.0000 0.64690  0.77200  0.44780  Biso   1.000  H
  C2895    1.0000 0.62221  0.79007  0.43858  Biso   1.000  C
  H1783    1.0000 0.62160  0.79870  0.45070  Biso   1.000  H
  C2896    1.0000 0.60790  0.79249  0.42226  Biso   1.000  C
  C2897    1.0000 0.60974  0.78001  0.40472  Biso   1.000  C
  H1784    1.0000 0.59980  0.78170  0.39380  Biso   1.000  H
  C2898    1.0000 0.59132  0.80877  0.42282  Biso   1.000  C
  C2899    1.0000 0.57433  0.83461  0.43970  Biso   1.000  C
  C2900    1.0000 0.56489  0.82589  0.40684  Biso   1.000  C
  C2901    1.0000 0.53768  0.84601  0.38822  Biso   1.000  C
  H1785    1.0000 0.53630  0.85420  0.40060  Biso   1.000  H
  C2902    1.0000 0.55221  0.82952  0.38815  Biso   1.000  C
  C2903    1.0000 0.55411  0.81735  0.37040  Biso   1.000  C
  H1786    1.0000 0.56400  0.80620  0.36970  Biso   1.000  H
  C2904    1.0000 0.54109  0.82192  0.35358  Biso   1.000  C
  H1787    1.0000 0.54160  0.81360  0.34130  Biso   1.000  H
  C2905    1.0000 0.52746  0.83860  0.35489  Biso   1.000  C
  H1788    1.0000 0.51890  0.84160  0.34310  Biso   1.000  H
  C2906    1.0000 0.48237  0.83301  0.38862  Biso   1.000  C
  H1789    1.0000 0.49300  0.83410  0.39890  Biso   1.000  H
  C2907    1.0000 0.47060  0.81540  0.38834  Biso   1.000  C
  H1790    1.0000 0.47310  0.80450  0.39810  Biso   1.000  H
  C2908    1.0000 0.45470  0.81360  0.37333  Biso   1.000  C
  H1791    1.0000 0.44590  0.80160  0.37290  Biso   1.000  H
  C2909    1.0000 0.45217  0.82984  0.35924  Biso   1.000  C
  C2910    1.0000 0.46498  0.84731  0.36085  Biso   1.000  C
  H1792    1.0000 0.46300  0.85850  0.35130  Biso   1.000  H
  C2911    1.0000 0.43559  0.82908  0.34302  Biso   1.000  C
  C2912    1.0000 0.49941  0.87611  0.32478  Biso   1.000  C
  N1111    1.0000 0.59096  0.86692  0.48525  Biso   1.000  N
  N1112    1.0000 0.61285  0.77446  0.35699  Biso   1.000  N
  N1113    1.0000 0.62503  0.76551  0.40242  Biso   1.000  N
  N1114    1.0000 0.57960  0.81091  0.40582  Biso   1.000  N
  N1115    1.0000 0.58966  0.82025  0.44029  Biso   1.000  N
  N1116    1.0000 0.56113  0.83763  0.42387  Biso   1.000  N
  N1117    1.0000 0.52568  0.85075  0.37185  Biso   1.000  N
  N1118    1.0000 0.50119  0.87676  0.34238  Biso   1.000  N
  N1119    1.0000 0.47991  0.84897  0.37524  Biso   1.000  N
  N1120    1.0000 0.42169  0.81397  0.34428  Biso   1.000  N
  S223     1.0000 0.58696  0.79463  0.32812  Biso   1.000  S
  S224     1.0000 0.49784  0.87346  0.29928  Biso   1.000  S
  C2913    1.0000 0.78011  0.59028  0.39742  Biso   1.000  C
  H1793    1.0000 0.78270  0.60240  0.40560  Biso   1.000  H
  C2914    1.0000 0.79250  0.57258  0.40086  Biso   1.000  C
  C2915    1.0000 0.78862  0.55477  0.38928  Biso   1.000  C
  H1794    1.0000 0.79700  0.54260  0.39080  Biso   1.000  H
  C2916    1.0000 0.77190  0.55514  0.37518  Biso   1.000  C
  H1795    1.0000 0.76820  0.54290  0.36760  Biso   1.000  H
  C2917    1.0000 0.76093  0.57314  0.37242  Biso   1.000  C
  H1796    1.0000 0.74990  0.57320  0.36240  Biso   1.000  H
  C2918    1.0000 0.90467  0.60226  0.46662  Biso   1.000  C
  C2919    1.0000 0.83157  0.63852  0.48679  Biso   1.000  C
  H1797    1.0000 0.83290  0.64940  0.49680  Biso   1.000  H
  C2920    1.0000 0.81334  0.63740  0.47538  Biso   1.000  C
  H1798    1.0000 0.80220  0.64690  0.47800  Biso   1.000  H
  C2921    1.0000 0.81142  0.62221  0.45993  Biso   1.000  C
  H1799    1.0000 0.79930  0.62160  0.45130  Biso   1.000  H
  C2922    1.0000 0.82774  0.60790  0.45751  Biso   1.000  C
  C2923    1.0000 0.84528  0.60974  0.46999  Biso   1.000  C
  H1800    1.0000 0.85620  0.59980  0.46830  Biso   1.000  H
  C2924    1.0000 0.82718  0.59132  0.44123  Biso   1.000  C
  C2925    1.0000 0.81030  0.57433  0.41539  Biso   1.000  C
  C2926    1.0000 0.84316  0.56489  0.42411  Biso   1.000  C
  C2927    1.0000 0.86178  0.53768  0.40399  Biso   1.000  C
  H1801    1.0000 0.84940  0.53630  0.39580  Biso   1.000  H
  C2928    1.0000 0.86185  0.55221  0.42048  Biso   1.000  C
  C2929    1.0000 0.87960  0.55411  0.43265  Biso   1.000  C
  H1802    1.0000 0.88030  0.56400  0.44380  Biso   1.000  H
  C2930    1.0000 0.89642  0.54109  0.42808  Biso   1.000  C
  H1803    1.0000 0.90870  0.54160  0.43640  Biso   1.000  H
  C2931    1.0000 0.89511  0.52746  0.41140  Biso   1.000  C
  H1804    1.0000 0.90690  0.51890  0.40840  Biso   1.000  H
  C2932    1.0000 0.86138  0.48237  0.41699  Biso   1.000  C
  H1805    1.0000 0.85110  0.49300  0.41590  Biso   1.000  H
  C2933    1.0000 0.86166  0.47060  0.43460  Biso   1.000  C
  H1806    1.0000 0.85190  0.47310  0.44550  Biso   1.000  H
  C2934    1.0000 0.87667  0.45470  0.43640  Biso   1.000  C
  H1807    1.0000 0.87710  0.44590  0.44840  Biso   1.000  H
  C2935    1.0000 0.89076  0.45217  0.42016  Biso   1.000  C
  C2936    1.0000 0.88915  0.46498  0.40269  Biso   1.000  C
  H1808    1.0000 0.89870  0.46300  0.39150  Biso   1.000  H
  C2937    1.0000 0.90698  0.43559  0.42092  Biso   1.000  C
  C2938    1.0000 0.92522  0.49941  0.37389  Biso   1.000  C
  N1121    1.0000 0.76475  0.59096  0.38308  Biso   1.000  N
  N1122    1.0000 0.89301  0.61285  0.47554  Biso   1.000  N
  N1123    1.0000 0.84758  0.62503  0.48449  Biso   1.000  N
  N1124    1.0000 0.84418  0.57960  0.43909  Biso   1.000  N
  N1125    1.0000 0.80971  0.58966  0.42975  Biso   1.000  N
  N1126    1.0000 0.82613  0.56113  0.41237  Biso   1.000  N
  N1127    1.0000 0.87815  0.52568  0.39925  Biso   1.000  N
  N1128    1.0000 0.90762  0.50119  0.37324  Biso   1.000  N
  N1129    1.0000 0.87476  0.47991  0.40103  Biso   1.000  N
  N1130    1.0000 0.90572  0.42169  0.43603  Biso   1.000  N
  S225     1.0000 0.92188  0.58696  0.45537  Biso   1.000  S
  S226     1.0000 0.95072  0.49784  0.37654  Biso   1.000  S
  C2939    1.0000 0.78011  0.09028  0.89742  Biso   1.000  C
  H1809    1.0000 0.78270  0.10240  0.90560  Biso   1.000  H
  C2940    1.0000 0.79250  0.07258  0.90086  Biso   1.000  C
  C2941    1.0000 0.78862  0.05477  0.88928  Biso   1.000  C
  H1810    1.0000 0.79700  0.04260  0.89080  Biso   1.000  H
  C2942    1.0000 0.77190  0.05514  0.87518  Biso   1.000  C
  H1811    1.0000 0.76820  0.04290  0.86760  Biso   1.000  H
  C2943    1.0000 0.76093  0.07314  0.87242  Biso   1.000  C
  H1812    1.0000 0.74990  0.07320  0.86240  Biso   1.000  H
  C2944    1.0000 0.90467  0.10226  0.96662  Biso   1.000  C
  C2945    1.0000 0.83157  0.13852  0.98679  Biso   1.000  C
  H1813    1.0000 0.83290  0.14940  0.99680  Biso   1.000  H
  C2946    1.0000 0.81334  0.13740  0.97538  Biso   1.000  C
  H1814    1.0000 0.80220  0.14690  0.97800  Biso   1.000  H
  C2947    1.0000 0.81142  0.12221  0.95993  Biso   1.000  C
  H1815    1.0000 0.79930  0.12160  0.95130  Biso   1.000  H
  C2948    1.0000 0.82774  0.10790  0.95751  Biso   1.000  C
  C2949    1.0000 0.84528  0.10974  0.96999  Biso   1.000  C
  H1816    1.0000 0.85620  0.09980  0.96830  Biso   1.000  H
  C2950    1.0000 0.82718  0.09132  0.94123  Biso   1.000  C
  C2951    1.0000 0.81030  0.07433  0.91539  Biso   1.000  C
  C2952    1.0000 0.84316  0.06489  0.92411  Biso   1.000  C
  C2953    1.0000 0.86178  0.03768  0.90399  Biso   1.000  C
  H1817    1.0000 0.84940  0.03630  0.89580  Biso   1.000  H
  C2954    1.0000 0.86185  0.05221  0.92048  Biso   1.000  C
  C2955    1.0000 0.87960  0.05411  0.93265  Biso   1.000  C
  H1818    1.0000 0.88030  0.06400  0.94380  Biso   1.000  H
  C2956    1.0000 0.89642  0.04109  0.92808  Biso   1.000  C
  H1819    1.0000 0.90870  0.04160  0.93640  Biso   1.000  H
  C2957    1.0000 0.89511  0.02746  0.91140  Biso   1.000  C
  H1820    1.0000 0.90690  0.01890  0.90840  Biso   1.000  H
  C2958    1.0000 0.86138  0.98237  0.91699  Biso   1.000  C
  H1821    1.0000 0.85110  0.99300  0.91590  Biso   1.000  H
  C2959    1.0000 0.86166  0.97060  0.93460  Biso   1.000  C
  H1822    1.0000 0.85190  0.97310  0.94550  Biso   1.000  H
  C2960    1.0000 0.87667  0.95470  0.93640  Biso   1.000  C
  H1823    1.0000 0.87710  0.94590  0.94840  Biso   1.000  H
  C2961    1.0000 0.89076  0.95217  0.92016  Biso   1.000  C
  C2962    1.0000 0.88915  0.96498  0.90269  Biso   1.000  C
  H1824    1.0000 0.89870  0.96300  0.89150  Biso   1.000  H
  C2963    1.0000 0.90698  0.93559  0.92092  Biso   1.000  C
  C2964    1.0000 0.92522  0.99941  0.87389  Biso   1.000  C
  N1131    1.0000 0.76475  0.09096  0.88308  Biso   1.000  N
  N1132    1.0000 0.89301  0.11285  0.97554  Biso   1.000  N
  N1133    1.0000 0.84758  0.12503  0.98449  Biso   1.000  N
  N1134    1.0000 0.84418  0.07960  0.93909  Biso   1.000  N
  N1135    1.0000 0.80971  0.08966  0.92975  Biso   1.000  N
  N1136    1.0000 0.82613  0.06113  0.91237  Biso   1.000  N
  N1137    1.0000 0.87815  0.02568  0.89925  Biso   1.000  N
  N1138    1.0000 0.90762  0.00119  0.87324  Biso   1.000  N
  N1139    1.0000 0.87476  0.97991  0.90103  Biso   1.000  N
  N1140    1.0000 0.90572  0.92169  0.93603  Biso   1.000  N
  S227     1.0000 0.92188  0.08696  0.95537  Biso   1.000  S
  S228     1.0000 0.95072  0.99784  0.87654  Biso   1.000  S
  C2965    1.0000 0.28011  0.59028  0.89742  Biso   1.000  C
  H1825    1.0000 0.28270  0.60240  0.90560  Biso   1.000  H
  C2966    1.0000 0.29250  0.57258  0.90086  Biso   1.000  C
  C2967    1.0000 0.28862  0.55477  0.88928  Biso   1.000  C
  H1826    1.0000 0.29700  0.54260  0.89080  Biso   1.000  H
  C2968    1.0000 0.27190  0.55514  0.87518  Biso   1.000  C
  H1827    1.0000 0.26820  0.54290  0.86760  Biso   1.000  H
  C2969    1.0000 0.26093  0.57314  0.87242  Biso   1.000  C
  H1828    1.0000 0.24990  0.57320  0.86240  Biso   1.000  H
  C2970    1.0000 0.40467  0.60226  0.96662  Biso   1.000  C
  C2971    1.0000 0.33157  0.63852  0.98679  Biso   1.000  C
  H1829    1.0000 0.33290  0.64940  0.99680  Biso   1.000  H
  C2972    1.0000 0.31334  0.63740  0.97538  Biso   1.000  C
  H1830    1.0000 0.30220  0.64690  0.97800  Biso   1.000  H
  C2973    1.0000 0.31142  0.62221  0.95993  Biso   1.000  C
  H1831    1.0000 0.29930  0.62160  0.95130  Biso   1.000  H
  C2974    1.0000 0.32774  0.60790  0.95751  Biso   1.000  C
  C2975    1.0000 0.34528  0.60974  0.96999  Biso   1.000  C
  H1832    1.0000 0.35620  0.59980  0.96830  Biso   1.000  H
  C2976    1.0000 0.32718  0.59132  0.94123  Biso   1.000  C
  C2977    1.0000 0.31030  0.57433  0.91539  Biso   1.000  C
  C2978    1.0000 0.34316  0.56489  0.92411  Biso   1.000  C
  C2979    1.0000 0.36178  0.53768  0.90399  Biso   1.000  C
  H1833    1.0000 0.34940  0.53630  0.89580  Biso   1.000  H
  C2980    1.0000 0.36185  0.55221  0.92048  Biso   1.000  C
  C2981    1.0000 0.37960  0.55411  0.93265  Biso   1.000  C
  H1834    1.0000 0.38030  0.56400  0.94380  Biso   1.000  H
  C2982    1.0000 0.39642  0.54109  0.92808  Biso   1.000  C
  H1835    1.0000 0.40870  0.54160  0.93640  Biso   1.000  H
  C2983    1.0000 0.39511  0.52746  0.91140  Biso   1.000  C
  H1836    1.0000 0.40690  0.51890  0.90840  Biso   1.000  H
  C2984    1.0000 0.36138  0.48237  0.91699  Biso   1.000  C
  H1837    1.0000 0.35110  0.49300  0.91590  Biso   1.000  H
  C2985    1.0000 0.36166  0.47060  0.93460  Biso   1.000  C
  H1838    1.0000 0.35190  0.47310  0.94550  Biso   1.000  H
  C2986    1.0000 0.37667  0.45470  0.93640  Biso   1.000  C
  H1839    1.0000 0.37710  0.44590  0.94840  Biso   1.000  H
  C2987    1.0000 0.39076  0.45217  0.92016  Biso   1.000  C
  C2988    1.0000 0.38915  0.46498  0.90269  Biso   1.000  C
  H1840    1.0000 0.39870  0.46300  0.89150  Biso   1.000  H
  C2989    1.0000 0.40698  0.43559  0.92092  Biso   1.000  C
  C2990    1.0000 0.42522  0.49941  0.87389  Biso   1.000  C
  N1141    1.0000 0.26475  0.59096  0.88308  Biso   1.000  N
  N1142    1.0000 0.39301  0.61285  0.97554  Biso   1.000  N
  N1143    1.0000 0.34758  0.62503  0.98449  Biso   1.000  N
  N1144    1.0000 0.34418  0.57960  0.93909  Biso   1.000  N
  N1145    1.0000 0.30971  0.58966  0.92975  Biso   1.000  N
  N1146    1.0000 0.32613  0.56113  0.91237  Biso   1.000  N
  N1147    1.0000 0.37815  0.52568  0.89925  Biso   1.000  N
  N1148    1.0000 0.40762  0.50119  0.87324  Biso   1.000  N
  N1149    1.0000 0.37476  0.47991  0.90103  Biso   1.000  N
  N1150    1.0000 0.40572  0.42169  0.93603  Biso   1.000  N
  S229     1.0000 0.42188  0.58696  0.95537  Biso   1.000  S
  S230     1.0000 0.45072  0.49784  0.87654  Biso   1.000  S
  C2991    1.0000 0.28011  0.09028  0.39742  Biso   1.000  C
  H1841    1.0000 0.28270  0.10240  0.40560  Biso   1.000  H
  C2992    1.0000 0.29250  0.07258  0.40086  Biso   1.000  C
  C2993    1.0000 0.28862  0.05477  0.38928  Biso   1.000  C
  H1842    1.0000 0.29700  0.04260  0.39080  Biso   1.000  H
  C2994    1.0000 0.27190  0.05514  0.37518  Biso   1.000  C
  H1843    1.0000 0.26820  0.04290  0.36760  Biso   1.000  H
  C2995    1.0000 0.26093  0.07314  0.37242  Biso   1.000  C
  H1844    1.0000 0.24990  0.07320  0.36240  Biso   1.000  H
  C2996    1.0000 0.40467  0.10226  0.46662  Biso   1.000  C
  C2997    1.0000 0.33157  0.13852  0.48679  Biso   1.000  C
  H1845    1.0000 0.33290  0.14940  0.49680  Biso   1.000  H
  C2998    1.0000 0.31334  0.13740  0.47538  Biso   1.000  C
  H1846    1.0000 0.30220  0.14690  0.47800  Biso   1.000  H
  C2999    1.0000 0.31142  0.12221  0.45993  Biso   1.000  C
  H1847    1.0000 0.29930  0.12160  0.45130  Biso   1.000  H
  C3000    1.0000 0.32774  0.10790  0.45751  Biso   1.000  C
  C3001    1.0000 0.34528  0.10974  0.46999  Biso   1.000  C
  H1848    1.0000 0.35620  0.09980  0.46830  Biso   1.000  H
  C3002    1.0000 0.32718  0.09132  0.44123  Biso   1.000  C
  C3003    1.0000 0.31030  0.07433  0.41539  Biso   1.000  C
  C3004    1.0000 0.34316  0.06489  0.42411  Biso   1.000  C
  C3005    1.0000 0.36178  0.03768  0.40399  Biso   1.000  C
  H1849    1.0000 0.34940  0.03630  0.39580  Biso   1.000  H
  C3006    1.0000 0.36185  0.05221  0.42048  Biso   1.000  C
  C3007    1.0000 0.37960  0.05411  0.43265  Biso   1.000  C
  H1850    1.0000 0.38030  0.06400  0.44380  Biso   1.000  H
  C3008    1.0000 0.39642  0.04109  0.42808  Biso   1.000  C
  H1851    1.0000 0.40870  0.04160  0.43640  Biso   1.000  H
  C3009    1.0000 0.39511  0.02746  0.41140  Biso   1.000  C
  H1852    1.0000 0.40690  0.01890  0.40840  Biso   1.000  H
  C3010    1.0000 0.36138  0.98237  0.41699  Biso   1.000  C
  H1853    1.0000 0.35110  0.99300  0.41590  Biso   1.000  H
  C3011    1.0000 0.36166  0.97060  0.43460  Biso   1.000  C
  H1854    1.0000 0.35190  0.97310  0.44550  Biso   1.000  H
  C3012    1.0000 0.37667  0.95470  0.43640  Biso   1.000  C
  H1855    1.0000 0.37710  0.94590  0.44840  Biso   1.000  H
  C3013    1.0000 0.39076  0.95217  0.42016  Biso   1.000  C
  C3014    1.0000 0.38915  0.96498  0.40269  Biso   1.000  C
  H1856    1.0000 0.39870  0.96300  0.39150  Biso   1.000  H
  C3015    1.0000 0.40698  0.93559  0.42092  Biso   1.000  C
  C3016    1.0000 0.42522  0.99941  0.37389  Biso   1.000  C
  N1151    1.0000 0.26475  0.09096  0.38308  Biso   1.000  N
  N1152    1.0000 0.39301  0.11285  0.47554  Biso   1.000  N
  N1153    1.0000 0.34758  0.12503  0.48449  Biso   1.000  N
  N1154    1.0000 0.34418  0.07960  0.43909  Biso   1.000  N
  N1155    1.0000 0.30971  0.08966  0.42975  Biso   1.000  N
  N1156    1.0000 0.32613  0.06113  0.41237  Biso   1.000  N
  N1157    1.0000 0.37815  0.02568  0.39925  Biso   1.000  N
  N1158    1.0000 0.40762  0.00119  0.37324  Biso   1.000  N
  N1159    1.0000 0.37476  0.97991  0.40103  Biso   1.000  N
  N1160    1.0000 0.40572  0.92169  0.43603  Biso   1.000  N
  S231     1.0000 0.42188  0.08696  0.45537  Biso   1.000  S
  S232     1.0000 0.45072  0.99784  0.37654  Biso   1.000  S
  C3017    1.0000 0.28011  0.15972  0.85258  Biso   1.000  C
  H1857    1.0000 0.28270  0.14760  0.84440  Biso   1.000  H
  C3018    1.0000 0.29250  0.17742  0.84914  Biso   1.000  C
  C3019    1.0000 0.28862  0.19523  0.86072  Biso   1.000  C
  H1858    1.0000 0.29700  0.20740  0.85920  Biso   1.000  H
  C3020    1.0000 0.27190  0.19486  0.87482  Biso   1.000  C
  H1859    1.0000 0.26820  0.20710  0.88240  Biso   1.000  H
  C3021    1.0000 0.26093  0.17686  0.87758  Biso   1.000  C
  H1860    1.0000 0.24990  0.17680  0.88760  Biso   1.000  H
  C3022    1.0000 0.40467  0.14774  0.78338  Biso   1.000  C
  C3023    1.0000 0.33157  0.11148  0.76321  Biso   1.000  C
  H1861    1.0000 0.33290  0.10060  0.75320  Biso   1.000  H
  C3024    1.0000 0.31334  0.11260  0.77462  Biso   1.000  C
  H1862    1.0000 0.30220  0.10310  0.77200  Biso   1.000  H
  C3025    1.0000 0.31142  0.12779  0.79007  Biso   1.000  C
  H1863    1.0000 0.29930  0.12840  0.79870  Biso   1.000  H
  C3026    1.0000 0.32774  0.14210  0.79249  Biso   1.000  C
  C3027    1.0000 0.34528  0.14026  0.78001  Biso   1.000  C
  H1864    1.0000 0.35620  0.15020  0.78170  Biso   1.000  H
  C3028    1.0000 0.32718  0.15868  0.80877  Biso   1.000  C
  C3029    1.0000 0.31030  0.17567  0.83461  Biso   1.000  C
  C3030    1.0000 0.34316  0.18511  0.82589  Biso   1.000  C
  C3031    1.0000 0.36178  0.21232  0.84601  Biso   1.000  C
  H1865    1.0000 0.34940  0.21370  0.85420  Biso   1.000  H
  C3032    1.0000 0.36185  0.19779  0.82952  Biso   1.000  C
  C3033    1.0000 0.37960  0.19589  0.81735  Biso   1.000  C
  H1866    1.0000 0.38030  0.18600  0.80620  Biso   1.000  H
  C3034    1.0000 0.39642  0.20891  0.82192  Biso   1.000  C
  H1867    1.0000 0.40870  0.20840  0.81360  Biso   1.000  H
  C3035    1.0000 0.39511  0.22254  0.83860  Biso   1.000  C
  H1868    1.0000 0.40690  0.23110  0.84160  Biso   1.000  H
  C3036    1.0000 0.36138  0.26763  0.83301  Biso   1.000  C
  H1869    1.0000 0.35110  0.25700  0.83410  Biso   1.000  H
  C3037    1.0000 0.36166  0.27940  0.81540  Biso   1.000  C
  H1870    1.0000 0.35190  0.27690  0.80450  Biso   1.000  H
  C3038    1.0000 0.37667  0.29530  0.81360  Biso   1.000  C
  H1871    1.0000 0.37710  0.30410  0.80160  Biso   1.000  H
  C3039    1.0000 0.39076  0.29783  0.82984  Biso   1.000  C
  C3040    1.0000 0.38915  0.28502  0.84731  Biso   1.000  C
  H1872    1.0000 0.39870  0.28700  0.85850  Biso   1.000  H
  C3041    1.0000 0.40698  0.31441  0.82908  Biso   1.000  C
  C3042    1.0000 0.42522  0.25059  0.87611  Biso   1.000  C
  N1161    1.0000 0.26475  0.15904  0.86692  Biso   1.000  N
  N1162    1.0000 0.39301  0.13715  0.77446  Biso   1.000  N
  N1163    1.0000 0.34758  0.12497  0.76551  Biso   1.000  N
  N1164    1.0000 0.34418  0.17040  0.81091  Biso   1.000  N
  N1165    1.0000 0.30971  0.16034  0.82025  Biso   1.000  N
  N1166    1.0000 0.32613  0.18887  0.83763  Biso   1.000  N
  N1167    1.0000 0.37815  0.22432  0.85075  Biso   1.000  N
  N1168    1.0000 0.40762  0.24881  0.87676  Biso   1.000  N
  N1169    1.0000 0.37476  0.27009  0.84897  Biso   1.000  N
  N1170    1.0000 0.40572  0.32831  0.81397  Biso   1.000  N
  S233     1.0000 0.42188  0.16304  0.79463  Biso   1.000  S
  S234     1.0000 0.45072  0.25216  0.87346  Biso   1.000  S
  C3043    1.0000 0.28011  0.65972  0.35258  Biso   1.000  C
  H1873    1.0000 0.28270  0.64760  0.34440  Biso   1.000  H
  C3044    1.0000 0.29250  0.67742  0.34914  Biso   1.000  C
  C3045    1.0000 0.28862  0.69523  0.36072  Biso   1.000  C
  H1874    1.0000 0.29700  0.70740  0.35920  Biso   1.000  H
  C3046    1.0000 0.27190  0.69486  0.37482  Biso   1.000  C
  H1875    1.0000 0.26820  0.70710  0.38240  Biso   1.000  H
  C3047    1.0000 0.26093  0.67686  0.37758  Biso   1.000  C
  H1876    1.0000 0.24990  0.67680  0.38760  Biso   1.000  H
  C3048    1.0000 0.40467  0.64774  0.28338  Biso   1.000  C
  C3049    1.0000 0.33157  0.61148  0.26321  Biso   1.000  C
  H1877    1.0000 0.33290  0.60060  0.25320  Biso   1.000  H
  C3050    1.0000 0.31334  0.61260  0.27462  Biso   1.000  C
  H1878    1.0000 0.30220  0.60310  0.27200  Biso   1.000  H
  C3051    1.0000 0.31142  0.62779  0.29007  Biso   1.000  C
  H1879    1.0000 0.29930  0.62840  0.29870  Biso   1.000  H
  C3052    1.0000 0.32774  0.64210  0.29249  Biso   1.000  C
  C3053    1.0000 0.34528  0.64026  0.28001  Biso   1.000  C
  H1880    1.0000 0.35620  0.65020  0.28170  Biso   1.000  H
  C3054    1.0000 0.32718  0.65868  0.30877  Biso   1.000  C
  C3055    1.0000 0.31030  0.67567  0.33461  Biso   1.000  C
  C3056    1.0000 0.34316  0.68511  0.32589  Biso   1.000  C
  C3057    1.0000 0.36178  0.71232  0.34601  Biso   1.000  C
  H1881    1.0000 0.34940  0.71370  0.35420  Biso   1.000  H
  C3058    1.0000 0.36185  0.69779  0.32952  Biso   1.000  C
  C3059    1.0000 0.37960  0.69589  0.31735  Biso   1.000  C
  H1882    1.0000 0.38030  0.68600  0.30620  Biso   1.000  H
  C3060    1.0000 0.39642  0.70891  0.32192  Biso   1.000  C
  H1883    1.0000 0.40870  0.70840  0.31360  Biso   1.000  H
  C3061    1.0000 0.39511  0.72254  0.33860  Biso   1.000  C
  H1884    1.0000 0.40690  0.73110  0.34160  Biso   1.000  H
  C3062    1.0000 0.36138  0.76763  0.33301  Biso   1.000  C
  H1885    1.0000 0.35110  0.75700  0.33410  Biso   1.000  H
  C3063    1.0000 0.36166  0.77940  0.31540  Biso   1.000  C
  H1886    1.0000 0.35190  0.77690  0.30450  Biso   1.000  H
  C3064    1.0000 0.37667  0.79530  0.31360  Biso   1.000  C
  H1887    1.0000 0.37710  0.80410  0.30160  Biso   1.000  H
  C3065    1.0000 0.39076  0.79783  0.32984  Biso   1.000  C
  C3066    1.0000 0.38915  0.78502  0.34731  Biso   1.000  C
  H1888    1.0000 0.39870  0.78700  0.35850  Biso   1.000  H
  C3067    1.0000 0.40698  0.81441  0.32908  Biso   1.000  C
  C3068    1.0000 0.42522  0.75059  0.37611  Biso   1.000  C
  N1171    1.0000 0.26475  0.65904  0.36692  Biso   1.000  N
  N1172    1.0000 0.39301  0.63715  0.27446  Biso   1.000  N
  N1173    1.0000 0.34758  0.62497  0.26551  Biso   1.000  N
  N1174    1.0000 0.34418  0.67040  0.31091  Biso   1.000  N
  N1175    1.0000 0.30971  0.66034  0.32025  Biso   1.000  N
  N1176    1.0000 0.32613  0.68887  0.33763  Biso   1.000  N
  N1177    1.0000 0.37815  0.72432  0.35075  Biso   1.000  N
  N1178    1.0000 0.40762  0.74881  0.37676  Biso   1.000  N
  N1179    1.0000 0.37476  0.77009  0.34897  Biso   1.000  N
  N1180    1.0000 0.40572  0.82831  0.31397  Biso   1.000  N
  S235     1.0000 0.42188  0.66304  0.29463  Biso   1.000  S
  S236     1.0000 0.45072  0.75216  0.37346  Biso   1.000  S
  C3069    1.0000 0.78011  0.15972  0.35258  Biso   1.000  C
  H1889    1.0000 0.78270  0.14760  0.34440  Biso   1.000  H
  C3070    1.0000 0.79250  0.17742  0.34914  Biso   1.000  C
  C3071    1.0000 0.78862  0.19523  0.36072  Biso   1.000  C
  H1890    1.0000 0.79700  0.20740  0.35920  Biso   1.000  H
  C3072    1.0000 0.77190  0.19486  0.37482  Biso   1.000  C
  H1891    1.0000 0.76820  0.20710  0.38240  Biso   1.000  H
  C3073    1.0000 0.76093  0.17686  0.37758  Biso   1.000  C
  H1892    1.0000 0.74990  0.17680  0.38760  Biso   1.000  H
  C3074    1.0000 0.90467  0.14774  0.28338  Biso   1.000  C
  C3075    1.0000 0.83157  0.11148  0.26321  Biso   1.000  C
  H1893    1.0000 0.83290  0.10060  0.25320  Biso   1.000  H
  C3076    1.0000 0.81334  0.11260  0.27462  Biso   1.000  C
  H1894    1.0000 0.80220  0.10310  0.27200  Biso   1.000  H
  C3077    1.0000 0.81142  0.12779  0.29007  Biso   1.000  C
  H1895    1.0000 0.79930  0.12840  0.29870  Biso   1.000  H
  C3078    1.0000 0.82774  0.14210  0.29249  Biso   1.000  C
  C3079    1.0000 0.84528  0.14026  0.28001  Biso   1.000  C
  H1896    1.0000 0.85620  0.15020  0.28170  Biso   1.000  H
  C3080    1.0000 0.82718  0.15868  0.30877  Biso   1.000  C
  C3081    1.0000 0.81030  0.17567  0.33461  Biso   1.000  C
  C3082    1.0000 0.84316  0.18511  0.32589  Biso   1.000  C
  C3083    1.0000 0.86178  0.21232  0.34601  Biso   1.000  C
  H1897    1.0000 0.84940  0.21370  0.35420  Biso   1.000  H
  C3084    1.0000 0.86185  0.19779  0.32952  Biso   1.000  C
  C3085    1.0000 0.87960  0.19589  0.31735  Biso   1.000  C
  H1898    1.0000 0.88030  0.18600  0.30620  Biso   1.000  H
  C3086    1.0000 0.89642  0.20891  0.32192  Biso   1.000  C
  H1899    1.0000 0.90870  0.20840  0.31360  Biso   1.000  H
  C3087    1.0000 0.89511  0.22254  0.33860  Biso   1.000  C
  H1900    1.0000 0.90690  0.23110  0.34160  Biso   1.000  H
  C3088    1.0000 0.86138  0.26763  0.33301  Biso   1.000  C
  H1901    1.0000 0.85110  0.25700  0.33410  Biso   1.000  H
  C3089    1.0000 0.86166  0.27940  0.31540  Biso   1.000  C
  H1902    1.0000 0.85190  0.27690  0.30450  Biso   1.000  H
  C3090    1.0000 0.87667  0.29530  0.31360  Biso   1.000  C
  H1903    1.0000 0.87710  0.30410  0.30160  Biso   1.000  H
  C3091    1.0000 0.89076  0.29783  0.32984  Biso   1.000  C
  C3092    1.0000 0.88915  0.28502  0.34731  Biso   1.000  C
  H1904    1.0000 0.89870  0.28700  0.35850  Biso   1.000  H
  C3093    1.0000 0.90698  0.31441  0.32908  Biso   1.000  C
  C3094    1.0000 0.92522  0.25059  0.37611  Biso   1.000  C
  N1181    1.0000 0.76475  0.15904  0.36692  Biso   1.000  N
  N1182    1.0000 0.89301  0.13715  0.27446  Biso   1.000  N
  N1183    1.0000 0.84758  0.12497  0.26551  Biso   1.000  N
  N1184    1.0000 0.84418  0.17040  0.31091  Biso   1.000  N
  N1185    1.0000 0.80971  0.16034  0.32025  Biso   1.000  N
  N1186    1.0000 0.82613  0.18887  0.33763  Biso   1.000  N
  N1187    1.0000 0.87815  0.22432  0.35075  Biso   1.000  N
  N1188    1.0000 0.90762  0.24881  0.37676  Biso   1.000  N
  N1189    1.0000 0.87476  0.27009  0.34897  Biso   1.000  N
  N1190    1.0000 0.90572  0.32831  0.31397  Biso   1.000  N
  S237     1.0000 0.92188  0.16304  0.29463  Biso   1.000  S
  S238     1.0000 0.95072  0.25216  0.37346  Biso   1.000  S
  C3095    1.0000 0.78011  0.65972  0.85258  Biso   1.000  C
  H1905    1.0000 0.78270  0.64760  0.84440  Biso   1.000  H
  C3096    1.0000 0.79250  0.67742  0.84914  Biso   1.000  C
  C3097    1.0000 0.78862  0.69523  0.86072  Biso   1.000  C
  H1906    1.0000 0.79700  0.70740  0.85920  Biso   1.000  H
  C3098    1.0000 0.77190  0.69486  0.87482  Biso   1.000  C
  H1907    1.0000 0.76820  0.70710  0.88240  Biso   1.000  H
  C3099    1.0000 0.76093  0.67686  0.87758  Biso   1.000  C
  H1908    1.0000 0.74990  0.67680  0.88760  Biso   1.000  H
  C3100    1.0000 0.90467  0.64774  0.78338  Biso   1.000  C
  C3101    1.0000 0.83157  0.61148  0.76321  Biso   1.000  C
  H1909    1.0000 0.83290  0.60060  0.75320  Biso   1.000  H
  C3102    1.0000 0.81334  0.61260  0.77462  Biso   1.000  C
  H1910    1.0000 0.80220  0.60310  0.77200  Biso   1.000  H
  C3103    1.0000 0.81142  0.62779  0.79007  Biso   1.000  C
  H1911    1.0000 0.79930  0.62840  0.79870  Biso   1.000  H
  C3104    1.0000 0.82774  0.64210  0.79249  Biso   1.000  C
  C3105    1.0000 0.84528  0.64026  0.78001  Biso   1.000  C
  H1912    1.0000 0.85620  0.65020  0.78170  Biso   1.000  H
  C3106    1.0000 0.82718  0.65868  0.80877  Biso   1.000  C
  C3107    1.0000 0.81030  0.67567  0.83461  Biso   1.000  C
  C3108    1.0000 0.84316  0.68511  0.82589  Biso   1.000  C
  C3109    1.0000 0.86178  0.71232  0.84601  Biso   1.000  C
  H1913    1.0000 0.84940  0.71370  0.85420  Biso   1.000  H
  C3110    1.0000 0.86185  0.69779  0.82952  Biso   1.000  C
  C3111    1.0000 0.87960  0.69589  0.81735  Biso   1.000  C
  H1914    1.0000 0.88030  0.68600  0.80620  Biso   1.000  H
  C3112    1.0000 0.89642  0.70891  0.82192  Biso   1.000  C
  H1915    1.0000 0.90870  0.70840  0.81360  Biso   1.000  H
  C3113    1.0000 0.89511  0.72254  0.83860  Biso   1.000  C
  H1916    1.0000 0.90690  0.73110  0.84160  Biso   1.000  H
  C3114    1.0000 0.86138  0.76763  0.83301  Biso   1.000  C
  H1917    1.0000 0.85110  0.75700  0.83410  Biso   1.000  H
  C3115    1.0000 0.86166  0.77940  0.81540  Biso   1.000  C
  H1918    1.0000 0.85190  0.77690  0.80450  Biso   1.000  H
  C3116    1.0000 0.87667  0.79530  0.81360  Biso   1.000  C
  H1919    1.0000 0.87710  0.80410  0.80160  Biso   1.000  H
  C3117    1.0000 0.89076  0.79783  0.82984  Biso   1.000  C
  C3118    1.0000 0.88915  0.78502  0.84731  Biso   1.000  C
  H1920    1.0000 0.89870  0.78700  0.85850  Biso   1.000  H
  C3119    1.0000 0.90698  0.81441  0.82908  Biso   1.000  C
  C3120    1.0000 0.92522  0.75059  0.87611  Biso   1.000  C
  N1191    1.0000 0.76475  0.65904  0.86692  Biso   1.000  N
  N1192    1.0000 0.89301  0.63715  0.77446  Biso   1.000  N
  N1193    1.0000 0.84758  0.62497  0.76551  Biso   1.000  N
  N1194    1.0000 0.84418  0.67040  0.81091  Biso   1.000  N
  N1195    1.0000 0.80971  0.66034  0.82025  Biso   1.000  N
  N1196    1.0000 0.82613  0.68887  0.83763  Biso   1.000  N
  N1197    1.0000 0.87815  0.72432  0.85075  Biso   1.000  N
  N1198    1.0000 0.90762  0.74881  0.87676  Biso   1.000  N
  N1199    1.0000 0.87476  0.77009  0.84897  Biso   1.000  N
  N1200    1.0000 0.90572  0.82831  0.81397  Biso   1.000  N
  S239     1.0000 0.92188  0.66304  0.79463  Biso   1.000  S
  S240     1.0000 0.95072  0.75216  0.87346  Biso   1.000  S
  C3121    1.0000 0.96989  0.65972  0.89742  Biso   1.000  C
  H1921    1.0000 0.96730  0.64760  0.90560  Biso   1.000  H
  C3122    1.0000 0.95750  0.67742  0.90086  Biso   1.000  C
  C3123    1.0000 0.96138  0.69523  0.88928  Biso   1.000  C
  H1922    1.0000 0.95300  0.70740  0.89080  Biso   1.000  H
  C3124    1.0000 0.97810  0.69486  0.87518  Biso   1.000  C
  H1923    1.0000 0.98180  0.70710  0.86760  Biso   1.000  H
  C3125    1.0000 0.98907  0.67686  0.87242  Biso   1.000  C
  H1924    1.0000 0.00010  0.67680  0.86240  Biso   1.000  H
  C3126    1.0000 0.84533  0.64774  0.96662  Biso   1.000  C
  C3127    1.0000 0.91843  0.61148  0.98679  Biso   1.000  C
  H1925    1.0000 0.91710  0.60060  0.99680  Biso   1.000  H
  C3128    1.0000 0.93666  0.61260  0.97538  Biso   1.000  C
  H1926    1.0000 0.94780  0.60310  0.97800  Biso   1.000  H
  C3129    1.0000 0.93858  0.62779  0.95993  Biso   1.000  C
  H1927    1.0000 0.95070  0.62840  0.95130  Biso   1.000  H
  C3130    1.0000 0.92226  0.64210  0.95751  Biso   1.000  C
  C3131    1.0000 0.90472  0.64026  0.96999  Biso   1.000  C
  H1928    1.0000 0.89380  0.65020  0.96830  Biso   1.000  H
  C3132    1.0000 0.92282  0.65868  0.94123  Biso   1.000  C
  C3133    1.0000 0.93970  0.67567  0.91539  Biso   1.000  C
  C3134    1.0000 0.90684  0.68511  0.92411  Biso   1.000  C
  C3135    1.0000 0.88822  0.71232  0.90399  Biso   1.000  C
  H1929    1.0000 0.90060  0.71370  0.89580  Biso   1.000  H
  C3136    1.0000 0.88815  0.69779  0.92048  Biso   1.000  C
  C3137    1.0000 0.87040  0.69589  0.93265  Biso   1.000  C
  H1930    1.0000 0.86970  0.68600  0.94380  Biso   1.000  H
  C3138    1.0000 0.85358  0.70891  0.92808  Biso   1.000  C
  H1931    1.0000 0.84130  0.70840  0.93640  Biso   1.000  H
  C3139    1.0000 0.85489  0.72254  0.91140  Biso   1.000  C
  H1932    1.0000 0.84310  0.73110  0.90840  Biso   1.000  H
  C3140    1.0000 0.88862  0.76763  0.91699  Biso   1.000  C
  H1933    1.0000 0.89890  0.75700  0.91590  Biso   1.000  H
  C3141    1.0000 0.88834  0.77940  0.93460  Biso   1.000  C
  H1934    1.0000 0.89810  0.77690  0.94550  Biso   1.000  H
  C3142    1.0000 0.87333  0.79530  0.93640  Biso   1.000  C
  H1935    1.0000 0.87290  0.80410  0.94840  Biso   1.000  H
  C3143    1.0000 0.85924  0.79783  0.92016  Biso   1.000  C
  C3144    1.0000 0.86085  0.78502  0.90269  Biso   1.000  C
  H1936    1.0000 0.85130  0.78700  0.89150  Biso   1.000  H
  C3145    1.0000 0.84302  0.81441  0.92092  Biso   1.000  C
  C3146    1.0000 0.82478  0.75059  0.87389  Biso   1.000  C
  N1201    1.0000 0.98525  0.65904  0.88308  Biso   1.000  N
  N1202    1.0000 0.85699  0.63715  0.97554  Biso   1.000  N
  N1203    1.0000 0.90242  0.62497  0.98449  Biso   1.000  N
  N1204    1.0000 0.90582  0.67040  0.93909  Biso   1.000  N
  N1205    1.0000 0.94029  0.66034  0.92975  Biso   1.000  N
  N1206    1.0000 0.92387  0.68887  0.91237  Biso   1.000  N
  N1207    1.0000 0.87185  0.72432  0.89925  Biso   1.000  N
  N1208    1.0000 0.84238  0.74881  0.87324  Biso   1.000  N
  N1209    1.0000 0.87524  0.77009  0.90103  Biso   1.000  N
  N1210    1.0000 0.84428  0.82831  0.93603  Biso   1.000  N
  S241     1.0000 0.82812  0.66304  0.95537  Biso   1.000  S
  S242     1.0000 0.79928  0.75216  0.87654  Biso   1.000  S
  C3147    1.0000 0.96989  0.15972  0.39742  Biso   1.000  C
  H1937    1.0000 0.96730  0.14760  0.40560  Biso   1.000  H
  C3148    1.0000 0.95750  0.17742  0.40086  Biso   1.000  C
  C3149    1.0000 0.96138  0.19523  0.38928  Biso   1.000  C
  H1938    1.0000 0.95300  0.20740  0.39080  Biso   1.000  H
  C3150    1.0000 0.97810  0.19486  0.37518  Biso   1.000  C
  H1939    1.0000 0.98180  0.20710  0.36760  Biso   1.000  H
  C3151    1.0000 0.98907  0.17686  0.37242  Biso   1.000  C
  H1940    1.0000 0.00010  0.17680  0.36240  Biso   1.000  H
  C3152    1.0000 0.84533  0.14774  0.46662  Biso   1.000  C
  C3153    1.0000 0.91843  0.11148  0.48679  Biso   1.000  C
  H1941    1.0000 0.91710  0.10060  0.49680  Biso   1.000  H
  C3154    1.0000 0.93666  0.11260  0.47538  Biso   1.000  C
  H1942    1.0000 0.94780  0.10310  0.47800  Biso   1.000  H
  C3155    1.0000 0.93858  0.12779  0.45993  Biso   1.000  C
  H1943    1.0000 0.95070  0.12840  0.45130  Biso   1.000  H
  C3156    1.0000 0.92226  0.14210  0.45751  Biso   1.000  C
  C3157    1.0000 0.90472  0.14026  0.46999  Biso   1.000  C
  H1944    1.0000 0.89380  0.15020  0.46830  Biso   1.000  H
  C3158    1.0000 0.92282  0.15868  0.44123  Biso   1.000  C
  C3159    1.0000 0.93970  0.17567  0.41539  Biso   1.000  C
  C3160    1.0000 0.90684  0.18511  0.42411  Biso   1.000  C
  C3161    1.0000 0.88822  0.21232  0.40399  Biso   1.000  C
  H1945    1.0000 0.90060  0.21370  0.39580  Biso   1.000  H
  C3162    1.0000 0.88815  0.19779  0.42048  Biso   1.000  C
  C3163    1.0000 0.87040  0.19589  0.43265  Biso   1.000  C
  H1946    1.0000 0.86970  0.18600  0.44380  Biso   1.000  H
  C3164    1.0000 0.85358  0.20891  0.42808  Biso   1.000  C
  H1947    1.0000 0.84130  0.20840  0.43640  Biso   1.000  H
  C3165    1.0000 0.85489  0.22254  0.41140  Biso   1.000  C
  H1948    1.0000 0.84310  0.23110  0.40840  Biso   1.000  H
  C3166    1.0000 0.88862  0.26763  0.41699  Biso   1.000  C
  H1949    1.0000 0.89890  0.25700  0.41590  Biso   1.000  H
  C3167    1.0000 0.88834  0.27940  0.43460  Biso   1.000  C
  H1950    1.0000 0.89810  0.27690  0.44550  Biso   1.000  H
  C3168    1.0000 0.87333  0.29530  0.43640  Biso   1.000  C
  H1951    1.0000 0.87290  0.30410  0.44840  Biso   1.000  H
  C3169    1.0000 0.85924  0.29783  0.42016  Biso   1.000  C
  C3170    1.0000 0.86085  0.28502  0.40269  Biso   1.000  C
  H1952    1.0000 0.85130  0.28700  0.39150  Biso   1.000  H
  C3171    1.0000 0.84302  0.31441  0.42092  Biso   1.000  C
  C3172    1.0000 0.82478  0.25059  0.37389  Biso   1.000  C
  N1211    1.0000 0.98525  0.15904  0.38308  Biso   1.000  N
  N1212    1.0000 0.85699  0.13715  0.47554  Biso   1.000  N
  N1213    1.0000 0.90242  0.12497  0.48449  Biso   1.000  N
  N1214    1.0000 0.90582  0.17040  0.43909  Biso   1.000  N
  N1215    1.0000 0.94029  0.16034  0.42975  Biso   1.000  N
  N1216    1.0000 0.92387  0.18887  0.41237  Biso   1.000  N
  N1217    1.0000 0.87185  0.22432  0.39925  Biso   1.000  N
  N1218    1.0000 0.84238  0.24881  0.37324  Biso   1.000  N
  N1219    1.0000 0.87524  0.27009  0.40103  Biso   1.000  N
  N1220    1.0000 0.84428  0.32831  0.43603  Biso   1.000  N
  S243     1.0000 0.82812  0.16304  0.45537  Biso   1.000  S
  S244     1.0000 0.79928  0.25216  0.37654  Biso   1.000  S
  C3173    1.0000 0.46989  0.65972  0.39742  Biso   1.000  C
  H1953    1.0000 0.46730  0.64760  0.40560  Biso   1.000  H
  C3174    1.0000 0.45750  0.67742  0.40086  Biso   1.000  C
  C3175    1.0000 0.46138  0.69523  0.38928  Biso   1.000  C
  H1954    1.0000 0.45300  0.70740  0.39080  Biso   1.000  H
  C3176    1.0000 0.47810  0.69486  0.37518  Biso   1.000  C
  H1955    1.0000 0.48180  0.70710  0.36760  Biso   1.000  H
  C3177    1.0000 0.48907  0.67686  0.37242  Biso   1.000  C
  H1956    1.0000 0.50010  0.67680  0.36240  Biso   1.000  H
  C3178    1.0000 0.34533  0.64774  0.46662  Biso   1.000  C
  C3179    1.0000 0.41843  0.61148  0.48679  Biso   1.000  C
  H1957    1.0000 0.41710  0.60060  0.49680  Biso   1.000  H
  C3180    1.0000 0.43666  0.61260  0.47538  Biso   1.000  C
  H1958    1.0000 0.44780  0.60310  0.47800  Biso   1.000  H
  C3181    1.0000 0.43858  0.62779  0.45993  Biso   1.000  C
  H1959    1.0000 0.45070  0.62840  0.45130  Biso   1.000  H
  C3182    1.0000 0.42226  0.64210  0.45751  Biso   1.000  C
  C3183    1.0000 0.40472  0.64026  0.46999  Biso   1.000  C
  H1960    1.0000 0.39380  0.65020  0.46830  Biso   1.000  H
  C3184    1.0000 0.42282  0.65868  0.44123  Biso   1.000  C
  C3185    1.0000 0.43970  0.67567  0.41539  Biso   1.000  C
  C3186    1.0000 0.40684  0.68511  0.42411  Biso   1.000  C
  C3187    1.0000 0.38822  0.71232  0.40399  Biso   1.000  C
  H1961    1.0000 0.40060  0.71370  0.39580  Biso   1.000  H
  C3188    1.0000 0.38815  0.69779  0.42048  Biso   1.000  C
  C3189    1.0000 0.37040  0.69589  0.43265  Biso   1.000  C
  H1962    1.0000 0.36970  0.68600  0.44380  Biso   1.000  H
  C3190    1.0000 0.35358  0.70891  0.42808  Biso   1.000  C
  H1963    1.0000 0.34130  0.70840  0.43640  Biso   1.000  H
  C3191    1.0000 0.35489  0.72254  0.41140  Biso   1.000  C
  H1964    1.0000 0.34310  0.73110  0.40840  Biso   1.000  H
  C3192    1.0000 0.38862  0.76763  0.41699  Biso   1.000  C
  H1965    1.0000 0.39890  0.75700  0.41590  Biso   1.000  H
  C3193    1.0000 0.38834  0.77940  0.43460  Biso   1.000  C
  H1966    1.0000 0.39810  0.77690  0.44550  Biso   1.000  H
  C3194    1.0000 0.37333  0.79530  0.43640  Biso   1.000  C
  H1967    1.0000 0.37290  0.80410  0.44840  Biso   1.000  H
  C3195    1.0000 0.35924  0.79783  0.42016  Biso   1.000  C
  C3196    1.0000 0.36085  0.78502  0.40269  Biso   1.000  C
  H1968    1.0000 0.35130  0.78700  0.39150  Biso   1.000  H
  C3197    1.0000 0.34302  0.81441  0.42092  Biso   1.000  C
  C3198    1.0000 0.32478  0.75059  0.37389  Biso   1.000  C
  N1221    1.0000 0.48525  0.65904  0.38308  Biso   1.000  N
  N1222    1.0000 0.35699  0.63715  0.47554  Biso   1.000  N
  N1223    1.0000 0.40242  0.62497  0.48449  Biso   1.000  N
  N1224    1.0000 0.40582  0.67040  0.43909  Biso   1.000  N
  N1225    1.0000 0.44029  0.66034  0.42975  Biso   1.000  N
  N1226    1.0000 0.42387  0.68887  0.41237  Biso   1.000  N
  N1227    1.0000 0.37185  0.72432  0.39925  Biso   1.000  N
  N1228    1.0000 0.34238  0.74881  0.37324  Biso   1.000  N
  N1229    1.0000 0.37524  0.77009  0.40103  Biso   1.000  N
  N1230    1.0000 0.34428  0.82831  0.43603  Biso   1.000  N
  S245     1.0000 0.32812  0.66304  0.45537  Biso   1.000  S
  S246     1.0000 0.29928  0.75216  0.37654  Biso   1.000  S
  C3199    1.0000 0.46989  0.15972  0.89742  Biso   1.000  C
  H1969    1.0000 0.46730  0.14760  0.90560  Biso   1.000  H
  C3200    1.0000 0.45750  0.17742  0.90086  Biso   1.000  C
  C3201    1.0000 0.46138  0.19523  0.88928  Biso   1.000  C
  H1970    1.0000 0.45300  0.20740  0.89080  Biso   1.000  H
  C3202    1.0000 0.47810  0.19486  0.87518  Biso   1.000  C
  H1971    1.0000 0.48180  0.20710  0.86760  Biso   1.000  H
  C3203    1.0000 0.48907  0.17686  0.87242  Biso   1.000  C
  H1972    1.0000 0.50010  0.17680  0.86240  Biso   1.000  H
  C3204    1.0000 0.34533  0.14774  0.96662  Biso   1.000  C
  C3205    1.0000 0.41843  0.11148  0.98679  Biso   1.000  C
  H1973    1.0000 0.41710  0.10060  0.99680  Biso   1.000  H
  C3206    1.0000 0.43666  0.11260  0.97538  Biso   1.000  C
  H1974    1.0000 0.44780  0.10310  0.97800  Biso   1.000  H
  C3207    1.0000 0.43858  0.12779  0.95993  Biso   1.000  C
  H1975    1.0000 0.45070  0.12840  0.95130  Biso   1.000  H
  C3208    1.0000 0.42226  0.14210  0.95751  Biso   1.000  C
  C3209    1.0000 0.40472  0.14026  0.96999  Biso   1.000  C
  H1976    1.0000 0.39380  0.15020  0.96830  Biso   1.000  H
  C3210    1.0000 0.42282  0.15868  0.94123  Biso   1.000  C
  C3211    1.0000 0.43970  0.17567  0.91539  Biso   1.000  C
  C3212    1.0000 0.40684  0.18511  0.92411  Biso   1.000  C
  C3213    1.0000 0.38822  0.21232  0.90399  Biso   1.000  C
  H1977    1.0000 0.40060  0.21370  0.89580  Biso   1.000  H
  C3214    1.0000 0.38815  0.19779  0.92048  Biso   1.000  C
  C3215    1.0000 0.37040  0.19589  0.93265  Biso   1.000  C
  H1978    1.0000 0.36970  0.18600  0.94380  Biso   1.000  H
  C3216    1.0000 0.35358  0.20891  0.92808  Biso   1.000  C
  H1979    1.0000 0.34130  0.20840  0.93640  Biso   1.000  H
  C3217    1.0000 0.35489  0.22254  0.91140  Biso   1.000  C
  H1980    1.0000 0.34310  0.23110  0.90840  Biso   1.000  H
  C3218    1.0000 0.38862  0.26763  0.91699  Biso   1.000  C
  H1981    1.0000 0.39890  0.25700  0.91590  Biso   1.000  H
  C3219    1.0000 0.38834  0.27940  0.93460  Biso   1.000  C
  H1982    1.0000 0.39810  0.27690  0.94550  Biso   1.000  H
  C3220    1.0000 0.37333  0.29530  0.93640  Biso   1.000  C
  H1983    1.0000 0.37290  0.30410  0.94840  Biso   1.000  H
  C3221    1.0000 0.35924  0.29783  0.92016  Biso   1.000  C
  C3222    1.0000 0.36085  0.28502  0.90269  Biso   1.000  C
  H1984    1.0000 0.35130  0.28700  0.89150  Biso   1.000  H
  C3223    1.0000 0.34302  0.31441  0.92092  Biso   1.000  C
  C3224    1.0000 0.32478  0.25059  0.87389  Biso   1.000  C
  N1231    1.0000 0.48525  0.15904  0.88308  Biso   1.000  N
  N1232    1.0000 0.35699  0.13715  0.97554  Biso   1.000  N
  N1233    1.0000 0.40242  0.12497  0.98449  Biso   1.000  N
  N1234    1.0000 0.40582  0.17040  0.93909  Biso   1.000  N
  N1235    1.0000 0.44029  0.16034  0.92975  Biso   1.000  N
  N1236    1.0000 0.42387  0.18887  0.91237  Biso   1.000  N
  N1237    1.0000 0.37185  0.22432  0.89925  Biso   1.000  N
  N1238    1.0000 0.34238  0.24881  0.87324  Biso   1.000  N
  N1239    1.0000 0.37524  0.27009  0.90103  Biso   1.000  N
  N1240    1.0000 0.34428  0.32831  0.93603  Biso   1.000  N
  S247     1.0000 0.32812  0.16304  0.95537  Biso   1.000  S
  S248     1.0000 0.29928  0.25216  0.87654  Biso   1.000  S
  C3225    1.0000 0.46989  0.09028  0.35258  Biso   1.000  C
  H1985    1.0000 0.46730  0.10240  0.34440  Biso   1.000  H
  C3226    1.0000 0.45750  0.07258  0.34914  Biso   1.000  C
  C3227    1.0000 0.46138  0.05477  0.36072  Biso   1.000  C
  H1986    1.0000 0.45300  0.04260  0.35920  Biso   1.000  H
  C3228    1.0000 0.47810  0.05514  0.37482  Biso   1.000  C
  H1987    1.0000 0.48180  0.04290  0.38240  Biso   1.000  H
  C3229    1.0000 0.48907  0.07314  0.37758  Biso   1.000  C
  H1988    1.0000 0.50010  0.07320  0.38760  Biso   1.000  H
  C3230    1.0000 0.34533  0.10226  0.28338  Biso   1.000  C
  C3231    1.0000 0.41843  0.13852  0.26321  Biso   1.000  C
  H1989    1.0000 0.41710  0.14940  0.25320  Biso   1.000  H
  C3232    1.0000 0.43666  0.13740  0.27462  Biso   1.000  C
  H1990    1.0000 0.44780  0.14690  0.27200  Biso   1.000  H
  C3233    1.0000 0.43858  0.12221  0.29007  Biso   1.000  C
  H1991    1.0000 0.45070  0.12160  0.29870  Biso   1.000  H
  C3234    1.0000 0.42226  0.10790  0.29249  Biso   1.000  C
  C3235    1.0000 0.40472  0.10974  0.28001  Biso   1.000  C
  H1992    1.0000 0.39380  0.09980  0.28170  Biso   1.000  H
  C3236    1.0000 0.42282  0.09132  0.30877  Biso   1.000  C
  C3237    1.0000 0.43970  0.07433  0.33461  Biso   1.000  C
  C3238    1.0000 0.40684  0.06489  0.32589  Biso   1.000  C
  C3239    1.0000 0.38822  0.03768  0.34601  Biso   1.000  C
  H1993    1.0000 0.40060  0.03630  0.35420  Biso   1.000  H
  C3240    1.0000 0.38815  0.05221  0.32952  Biso   1.000  C
  C3241    1.0000 0.37040  0.05411  0.31735  Biso   1.000  C
  H1994    1.0000 0.36970  0.06400  0.30620  Biso   1.000  H
  C3242    1.0000 0.35358  0.04109  0.32192  Biso   1.000  C
  H1995    1.0000 0.34130  0.04160  0.31360  Biso   1.000  H
  C3243    1.0000 0.35489  0.02746  0.33860  Biso   1.000  C
  H1996    1.0000 0.34310  0.01890  0.34160  Biso   1.000  H
  C3244    1.0000 0.38862  0.98237  0.33301  Biso   1.000  C
  H1997    1.0000 0.39890  0.99300  0.33410  Biso   1.000  H
  C3245    1.0000 0.38834  0.97060  0.31540  Biso   1.000  C
  H1998    1.0000 0.39810  0.97310  0.30450  Biso   1.000  H
  C3246    1.0000 0.37333  0.95470  0.31360  Biso   1.000  C
  H1999    1.0000 0.37290  0.94590  0.30160  Biso   1.000  H
  C3247    1.0000 0.35924  0.95217  0.32984  Biso   1.000  C
  C3248    1.0000 0.36085  0.96498  0.34731  Biso   1.000  C
  H2000    1.0000 0.35130  0.96300  0.35850  Biso   1.000  H
  C3249    1.0000 0.34302  0.93559  0.32908  Biso   1.000  C
  C3250    1.0000 0.32478  0.99941  0.37611  Biso   1.000  C
  N1241    1.0000 0.48525  0.09096  0.36692  Biso   1.000  N
  N1242    1.0000 0.35699  0.11285  0.27446  Biso   1.000  N
  N1243    1.0000 0.40242  0.12503  0.26551  Biso   1.000  N
  N1244    1.0000 0.40582  0.07960  0.31091  Biso   1.000  N
  N1245    1.0000 0.44029  0.08966  0.32025  Biso   1.000  N
  N1246    1.0000 0.42387  0.06113  0.33763  Biso   1.000  N
  N1247    1.0000 0.37185  0.02568  0.35075  Biso   1.000  N
  N1248    1.0000 0.34238  0.00119  0.37676  Biso   1.000  N
  N1249    1.0000 0.37524  0.97991  0.34897  Biso   1.000  N
  N1250    1.0000 0.34428  0.92169  0.31397  Biso   1.000  N
  S249     1.0000 0.32812  0.08696  0.29463  Biso   1.000  S
  S250     1.0000 0.29928  0.99784  0.37346  Biso   1.000  S
  C3251    1.0000 0.46989  0.59028  0.85258  Biso   1.000  C
  H2001    1.0000 0.46730  0.60240  0.84440  Biso   1.000  H
  C3252    1.0000 0.45750  0.57258  0.84914  Biso   1.000  C
  C3253    1.0000 0.46138  0.55477  0.86072  Biso   1.000  C
  H2002    1.0000 0.45300  0.54260  0.85920  Biso   1.000  H
  C3254    1.0000 0.47810  0.55514  0.87482  Biso   1.000  C
  H2003    1.0000 0.48180  0.54290  0.88240  Biso   1.000  H
  C3255    1.0000 0.48907  0.57314  0.87758  Biso   1.000  C
  H2004    1.0000 0.50010  0.57320  0.88760  Biso   1.000  H
  C3256    1.0000 0.34533  0.60226  0.78338  Biso   1.000  C
  C3257    1.0000 0.41843  0.63852  0.76321  Biso   1.000  C
  H2005    1.0000 0.41710  0.64940  0.75320  Biso   1.000  H
  C3258    1.0000 0.43666  0.63740  0.77462  Biso   1.000  C
  H2006    1.0000 0.44780  0.64690  0.77200  Biso   1.000  H
  C3259    1.0000 0.43858  0.62221  0.79007  Biso   1.000  C
  H2007    1.0000 0.45070  0.62160  0.79870  Biso   1.000  H
  C3260    1.0000 0.42226  0.60790  0.79249  Biso   1.000  C
  C3261    1.0000 0.40472  0.60974  0.78001  Biso   1.000  C
  H2008    1.0000 0.39380  0.59980  0.78170  Biso   1.000  H
  C3262    1.0000 0.42282  0.59132  0.80877  Biso   1.000  C
  C3263    1.0000 0.43970  0.57433  0.83461  Biso   1.000  C
  C3264    1.0000 0.40684  0.56489  0.82589  Biso   1.000  C
  C3265    1.0000 0.38822  0.53768  0.84601  Biso   1.000  C
  H2009    1.0000 0.40060  0.53630  0.85420  Biso   1.000  H
  C3266    1.0000 0.38815  0.55221  0.82952  Biso   1.000  C
  C3267    1.0000 0.37040  0.55411  0.81735  Biso   1.000  C
  H2010    1.0000 0.36970  0.56400  0.80620  Biso   1.000  H
  C3268    1.0000 0.35358  0.54109  0.82192  Biso   1.000  C
  H2011    1.0000 0.34130  0.54160  0.81360  Biso   1.000  H
  C3269    1.0000 0.35489  0.52746  0.83860  Biso   1.000  C
  H2012    1.0000 0.34310  0.51890  0.84160  Biso   1.000  H
  C3270    1.0000 0.38862  0.48237  0.83301  Biso   1.000  C
  H2013    1.0000 0.39890  0.49300  0.83410  Biso   1.000  H
  C3271    1.0000 0.38834  0.47060  0.81540  Biso   1.000  C
  H2014    1.0000 0.39810  0.47310  0.80450  Biso   1.000  H
  C3272    1.0000 0.37333  0.45470  0.81360  Biso   1.000  C
  H2015    1.0000 0.37290  0.44590  0.80160  Biso   1.000  H
  C3273    1.0000 0.35924  0.45217  0.82984  Biso   1.000  C
  C3274    1.0000 0.36085  0.46498  0.84731  Biso   1.000  C
  H2016    1.0000 0.35130  0.46300  0.85850  Biso   1.000  H
  C3275    1.0000 0.34302  0.43559  0.82908  Biso   1.000  C
  C3276    1.0000 0.32478  0.49941  0.87611  Biso   1.000  C
  N1251    1.0000 0.48525  0.59096  0.86692  Biso   1.000  N
  N1252    1.0000 0.35699  0.61285  0.77446  Biso   1.000  N
  N1253    1.0000 0.40242  0.62503  0.76551  Biso   1.000  N
  N1254    1.0000 0.40582  0.57960  0.81091  Biso   1.000  N
  N1255    1.0000 0.44029  0.58966  0.82025  Biso   1.000  N
  N1256    1.0000 0.42387  0.56113  0.83763  Biso   1.000  N
  N1257    1.0000 0.37185  0.52568  0.85075  Biso   1.000  N
  N1258    1.0000 0.34238  0.50119  0.87676  Biso   1.000  N
  N1259    1.0000 0.37524  0.47991  0.84897  Biso   1.000  N
  N1260    1.0000 0.34428  0.42169  0.81397  Biso   1.000  N
  S251     1.0000 0.32812  0.58696  0.79463  Biso   1.000  S
  S252     1.0000 0.29928  0.49784  0.87346  Biso   1.000  S
  C3277    1.0000 0.96989  0.09028  0.85258  Biso   1.000  C
  H2017    1.0000 0.96730  0.10240  0.84440  Biso   1.000  H
  C3278    1.0000 0.95750  0.07258  0.84914  Biso   1.000  C
  C3279    1.0000 0.96138  0.05477  0.86072  Biso   1.000  C
  H2018    1.0000 0.95300  0.04260  0.85920  Biso   1.000  H
  C3280    1.0000 0.97810  0.05514  0.87482  Biso   1.000  C
  H2019    1.0000 0.98180  0.04290  0.88240  Biso   1.000  H
  C3281    1.0000 0.98907  0.07314  0.87758  Biso   1.000  C
  H2020    1.0000 0.00010  0.07320  0.88760  Biso   1.000  H
  C3282    1.0000 0.84533  0.10226  0.78338  Biso   1.000  C
  C3283    1.0000 0.91843  0.13852  0.76321  Biso   1.000  C
  H2021    1.0000 0.91710  0.14940  0.75320  Biso   1.000  H
  C3284    1.0000 0.93666  0.13740  0.77462  Biso   1.000  C
  H2022    1.0000 0.94780  0.14690  0.77200  Biso   1.000  H
  C3285    1.0000 0.93858  0.12221  0.79007  Biso   1.000  C
  H2023    1.0000 0.95070  0.12160  0.79870  Biso   1.000  H
  C3286    1.0000 0.92226  0.10790  0.79249  Biso   1.000  C
  C3287    1.0000 0.90472  0.10974  0.78001  Biso   1.000  C
  H2024    1.0000 0.89380  0.09980  0.78170  Biso   1.000  H
  C3288    1.0000 0.92282  0.09132  0.80877  Biso   1.000  C
  C3289    1.0000 0.93970  0.07433  0.83461  Biso   1.000  C
  C3290    1.0000 0.90684  0.06489  0.82589  Biso   1.000  C
  C3291    1.0000 0.88822  0.03768  0.84601  Biso   1.000  C
  H2025    1.0000 0.90060  0.03630  0.85420  Biso   1.000  H
  C3292    1.0000 0.88815  0.05221  0.82952  Biso   1.000  C
  C3293    1.0000 0.87040  0.05411  0.81735  Biso   1.000  C
  H2026    1.0000 0.86970  0.06400  0.80620  Biso   1.000  H
  C3294    1.0000 0.85358  0.04109  0.82192  Biso   1.000  C
  H2027    1.0000 0.84130  0.04160  0.81360  Biso   1.000  H
  C3295    1.0000 0.85489  0.02746  0.83860  Biso   1.000  C
  H2028    1.0000 0.84310  0.01890  0.84160  Biso   1.000  H
  C3296    1.0000 0.88862  0.98237  0.83301  Biso   1.000  C
  H2029    1.0000 0.89890  0.99300  0.83410  Biso   1.000  H
  C3297    1.0000 0.88834  0.97060  0.81540  Biso   1.000  C
  H2030    1.0000 0.89810  0.97310  0.80450  Biso   1.000  H
  C3298    1.0000 0.87333  0.95470  0.81360  Biso   1.000  C
  H2031    1.0000 0.87290  0.94590  0.80160  Biso   1.000  H
  C3299    1.0000 0.85924  0.95217  0.82984  Biso   1.000  C
  C3300    1.0000 0.86085  0.96498  0.84731  Biso   1.000  C
  H2032    1.0000 0.85130  0.96300  0.85850  Biso   1.000  H
  C3301    1.0000 0.84302  0.93559  0.82908  Biso   1.000  C
  C3302    1.0000 0.82478  0.99941  0.87611  Biso   1.000  C
  N1261    1.0000 0.98525  0.09096  0.86692  Biso   1.000  N
  N1262    1.0000 0.85699  0.11285  0.77446  Biso   1.000  N
  N1263    1.0000 0.90242  0.12503  0.76551  Biso   1.000  N
  N1264    1.0000 0.90582  0.07960  0.81091  Biso   1.000  N
  N1265    1.0000 0.94029  0.08966  0.82025  Biso   1.000  N
  N1266    1.0000 0.92387  0.06113  0.83763  Biso   1.000  N
  N1267    1.0000 0.87185  0.02568  0.85075  Biso   1.000  N
  N1268    1.0000 0.84238  0.00119  0.87676  Biso   1.000  N
  N1269    1.0000 0.87524  0.97991  0.84897  Biso   1.000  N
  N1270    1.0000 0.84428  0.92169  0.81397  Biso   1.000  N
  S253     1.0000 0.82812  0.08696  0.79463  Biso   1.000  S
  S254     1.0000 0.79928  0.99784  0.87346  Biso   1.000  S
  C3303    1.0000 0.96989  0.59028  0.35258  Biso   1.000  C
  H2033    1.0000 0.96730  0.60240  0.34440  Biso   1.000  H
  C3304    1.0000 0.95750  0.57258  0.34914  Biso   1.000  C
  C3305    1.0000 0.96138  0.55477  0.36072  Biso   1.000  C
  H2034    1.0000 0.95300  0.54260  0.35920  Biso   1.000  H
  C3306    1.0000 0.97810  0.55514  0.37482  Biso   1.000  C
  H2035    1.0000 0.98180  0.54290  0.38240  Biso   1.000  H
  C3307    1.0000 0.98907  0.57314  0.37758  Biso   1.000  C
  H2036    1.0000 0.00010  0.57320  0.38760  Biso   1.000  H
  C3308    1.0000 0.84533  0.60226  0.28338  Biso   1.000  C
  C3309    1.0000 0.91843  0.63852  0.26321  Biso   1.000  C
  H2037    1.0000 0.91710  0.64940  0.25320  Biso   1.000  H
  C3310    1.0000 0.93666  0.63740  0.27462  Biso   1.000  C
  H2038    1.0000 0.94780  0.64690  0.27200  Biso   1.000  H
  C3311    1.0000 0.93858  0.62221  0.29007  Biso   1.000  C
  H2039    1.0000 0.95070  0.62160  0.29870  Biso   1.000  H
  C3312    1.0000 0.92226  0.60790  0.29249  Biso   1.000  C
  C3313    1.0000 0.90472  0.60974  0.28001  Biso   1.000  C
  H2040    1.0000 0.89380  0.59980  0.28170  Biso   1.000  H
  C3314    1.0000 0.92282  0.59132  0.30877  Biso   1.000  C
  C3315    1.0000 0.93970  0.57433  0.33461  Biso   1.000  C
  C3316    1.0000 0.90684  0.56489  0.32589  Biso   1.000  C
  C3317    1.0000 0.88822  0.53768  0.34601  Biso   1.000  C
  H2041    1.0000 0.90060  0.53630  0.35420  Biso   1.000  H
  C3318    1.0000 0.88815  0.55221  0.32952  Biso   1.000  C
  C3319    1.0000 0.87040  0.55411  0.31735  Biso   1.000  C
  H2042    1.0000 0.86970  0.56400  0.30620  Biso   1.000  H
  C3320    1.0000 0.85358  0.54109  0.32192  Biso   1.000  C
  H2043    1.0000 0.84130  0.54160  0.31360  Biso   1.000  H
  C3321    1.0000 0.85489  0.52746  0.33860  Biso   1.000  C
  H2044    1.0000 0.84310  0.51890  0.34160  Biso   1.000  H
  C3322    1.0000 0.88862  0.48237  0.33301  Biso   1.000  C
  H2045    1.0000 0.89890  0.49300  0.33410  Biso   1.000  H
  C3323    1.0000 0.88834  0.47060  0.31540  Biso   1.000  C
  H2046    1.0000 0.89810  0.47310  0.30450  Biso   1.000  H
  C3324    1.0000 0.87333  0.45470  0.31360  Biso   1.000  C
  H2047    1.0000 0.87290  0.44590  0.30160  Biso   1.000  H
  C3325    1.0000 0.85924  0.45217  0.32984  Biso   1.000  C
  C3326    1.0000 0.86085  0.46498  0.34731  Biso   1.000  C
  H2048    1.0000 0.85130  0.46300  0.35850  Biso   1.000  H
  C3327    1.0000 0.84302  0.43559  0.32908  Biso   1.000  C
  C3328    1.0000 0.82478  0.49941  0.37611  Biso   1.000  C
  N1271    1.0000 0.98525  0.59096  0.36692  Biso   1.000  N
  N1272    1.0000 0.85699  0.61285  0.27446  Biso   1.000  N
  N1273    1.0000 0.90242  0.62503  0.26551  Biso   1.000  N
  N1274    1.0000 0.90582  0.57960  0.31091  Biso   1.000  N
  N1275    1.0000 0.94029  0.58966  0.32025  Biso   1.000  N
  N1276    1.0000 0.92387  0.56113  0.33763  Biso   1.000  N
  N1277    1.0000 0.87185  0.52568  0.35075  Biso   1.000  N
  N1278    1.0000 0.84238  0.50119  0.37676  Biso   1.000  N
  N1279    1.0000 0.87524  0.47991  0.34897  Biso   1.000  N
  N1280    1.0000 0.84428  0.42169  0.31397  Biso   1.000  N
  S255     1.0000 0.82812  0.58696  0.29463  Biso   1.000  S
  S256     1.0000 0.79928  0.49784  0.37346  Biso   1.000  S
  C3329    1.0000 0.39742  0.78011  0.59028  Biso   1.000  C
  H2049    1.0000 0.40560  0.78270  0.60240  Biso   1.000  H
  C3330    1.0000 0.40086  0.79250  0.57258  Biso   1.000  C
  C3331    1.0000 0.38928  0.78862  0.55477  Biso   1.000  C
  H2050    1.0000 0.39080  0.79700  0.54260  Biso   1.000  H
  C3332    1.0000 0.37518  0.77190  0.55514  Biso   1.000  C
  H2051    1.0000 0.36760  0.76820  0.54290  Biso   1.000  H
  C3333    1.0000 0.37242  0.76093  0.57314  Biso   1.000  C
  H2052    1.0000 0.36240  0.74990  0.57320  Biso   1.000  H
  C3334    1.0000 0.46662  0.90467  0.60226  Biso   1.000  C
  C3335    1.0000 0.48679  0.83157  0.63852  Biso   1.000  C
  H2053    1.0000 0.49680  0.83290  0.64940  Biso   1.000  H
  C3336    1.0000 0.47538  0.81334  0.63740  Biso   1.000  C
  H2054    1.0000 0.47800  0.80220  0.64690  Biso   1.000  H
  C3337    1.0000 0.45993  0.81142  0.62221  Biso   1.000  C
  H2055    1.0000 0.45130  0.79930  0.62160  Biso   1.000  H
  C3338    1.0000 0.45751  0.82774  0.60790  Biso   1.000  C
  C3339    1.0000 0.46999  0.84528  0.60974  Biso   1.000  C
  H2056    1.0000 0.46830  0.85620  0.59980  Biso   1.000  H
  C3340    1.0000 0.44123  0.82718  0.59132  Biso   1.000  C
  C3341    1.0000 0.41539  0.81030  0.57433  Biso   1.000  C
  C3342    1.0000 0.42411  0.84316  0.56489  Biso   1.000  C
  C3343    1.0000 0.40399  0.86178  0.53768  Biso   1.000  C
  H2057    1.0000 0.39580  0.84940  0.53630  Biso   1.000  H
  C3344    1.0000 0.42048  0.86185  0.55221  Biso   1.000  C
  C3345    1.0000 0.43265  0.87960  0.55411  Biso   1.000  C
  H2058    1.0000 0.44380  0.88030  0.56400  Biso   1.000  H
  C3346    1.0000 0.42808  0.89642  0.54109  Biso   1.000  C
  H2059    1.0000 0.43640  0.90870  0.54160  Biso   1.000  H
  C3347    1.0000 0.41140  0.89511  0.52746  Biso   1.000  C
  H2060    1.0000 0.40840  0.90690  0.51890  Biso   1.000  H
  C3348    1.0000 0.41699  0.86138  0.48237  Biso   1.000  C
  H2061    1.0000 0.41590  0.85110  0.49300  Biso   1.000  H
  C3349    1.0000 0.43460  0.86166  0.47060  Biso   1.000  C
  H2062    1.0000 0.44550  0.85190  0.47310  Biso   1.000  H
  C3350    1.0000 0.43640  0.87667  0.45470  Biso   1.000  C
  H2063    1.0000 0.44840  0.87710  0.44590  Biso   1.000  H
  C3351    1.0000 0.42016  0.89076  0.45217  Biso   1.000  C
  C3352    1.0000 0.40269  0.88915  0.46498  Biso   1.000  C
  H2064    1.0000 0.39150  0.89870  0.46300  Biso   1.000  H
  C3353    1.0000 0.42092  0.90698  0.43559  Biso   1.000  C
  C3354    1.0000 0.37389  0.92522  0.49941  Biso   1.000  C
  N1281    1.0000 0.38308  0.76475  0.59096  Biso   1.000  N
  N1282    1.0000 0.47554  0.89301  0.61285  Biso   1.000  N
  N1283    1.0000 0.48449  0.84758  0.62503  Biso   1.000  N
  N1284    1.0000 0.43909  0.84418  0.57960  Biso   1.000  N
  N1285    1.0000 0.42975  0.80971  0.58966  Biso   1.000  N
  N1286    1.0000 0.41237  0.82613  0.56113  Biso   1.000  N
  N1287    1.0000 0.39925  0.87815  0.52568  Biso   1.000  N
  N1288    1.0000 0.37324  0.90762  0.50119  Biso   1.000  N
  N1289    1.0000 0.40103  0.87476  0.47991  Biso   1.000  N
  N1290    1.0000 0.43603  0.90572  0.42169  Biso   1.000  N
  S257     1.0000 0.45537  0.92188  0.58696  Biso   1.000  S
  S258     1.0000 0.37654  0.95072  0.49784  Biso   1.000  S
  C3355    1.0000 0.39742  0.28011  0.09028  Biso   1.000  C
  H2065    1.0000 0.40560  0.28270  0.10240  Biso   1.000  H
  C3356    1.0000 0.40086  0.29250  0.07258  Biso   1.000  C
  C3357    1.0000 0.38928  0.28862  0.05477  Biso   1.000  C
  H2066    1.0000 0.39080  0.29700  0.04260  Biso   1.000  H
  C3358    1.0000 0.37518  0.27190  0.05514  Biso   1.000  C
  H2067    1.0000 0.36760  0.26820  0.04290  Biso   1.000  H
  C3359    1.0000 0.37242  0.26093  0.07314  Biso   1.000  C
  H2068    1.0000 0.36240  0.24990  0.07320  Biso   1.000  H
  C3360    1.0000 0.46662  0.40467  0.10226  Biso   1.000  C
  C3361    1.0000 0.48679  0.33157  0.13852  Biso   1.000  C
  H2069    1.0000 0.49680  0.33290  0.14940  Biso   1.000  H
  C3362    1.0000 0.47538  0.31334  0.13740  Biso   1.000  C
  H2070    1.0000 0.47800  0.30220  0.14690  Biso   1.000  H
  C3363    1.0000 0.45993  0.31142  0.12221  Biso   1.000  C
  H2071    1.0000 0.45130  0.29930  0.12160  Biso   1.000  H
  C3364    1.0000 0.45751  0.32774  0.10790  Biso   1.000  C
  C3365    1.0000 0.46999  0.34528  0.10974  Biso   1.000  C
  H2072    1.0000 0.46830  0.35620  0.09980  Biso   1.000  H
  C3366    1.0000 0.44123  0.32718  0.09132  Biso   1.000  C
  C3367    1.0000 0.41539  0.31030  0.07433  Biso   1.000  C
  C3368    1.0000 0.42411  0.34316  0.06489  Biso   1.000  C
  C3369    1.0000 0.40399  0.36178  0.03768  Biso   1.000  C
  H2073    1.0000 0.39580  0.34940  0.03630  Biso   1.000  H
  C3370    1.0000 0.42048  0.36185  0.05221  Biso   1.000  C
  C3371    1.0000 0.43265  0.37960  0.05411  Biso   1.000  C
  H2074    1.0000 0.44380  0.38030  0.06400  Biso   1.000  H
  C3372    1.0000 0.42808  0.39642  0.04109  Biso   1.000  C
  H2075    1.0000 0.43640  0.40870  0.04160  Biso   1.000  H
  C3373    1.0000 0.41140  0.39511  0.02746  Biso   1.000  C
  H2076    1.0000 0.40840  0.40690  0.01890  Biso   1.000  H
  C3374    1.0000 0.41699  0.36138  0.98237  Biso   1.000  C
  H2077    1.0000 0.41590  0.35110  0.99300  Biso   1.000  H
  C3375    1.0000 0.43460  0.36166  0.97060  Biso   1.000  C
  H2078    1.0000 0.44550  0.35190  0.97310  Biso   1.000  H
  C3376    1.0000 0.43640  0.37667  0.95470  Biso   1.000  C
  H2079    1.0000 0.44840  0.37710  0.94590  Biso   1.000  H
  C3377    1.0000 0.42016  0.39076  0.95217  Biso   1.000  C
  C3378    1.0000 0.40269  0.38915  0.96498  Biso   1.000  C
  H2080    1.0000 0.39150  0.39870  0.96300  Biso   1.000  H
  C3379    1.0000 0.42092  0.40698  0.93559  Biso   1.000  C
  C3380    1.0000 0.37389  0.42522  0.99941  Biso   1.000  C
  N1291    1.0000 0.38308  0.26475  0.09096  Biso   1.000  N
  N1292    1.0000 0.47554  0.39301  0.11285  Biso   1.000  N
  N1293    1.0000 0.48449  0.34758  0.12503  Biso   1.000  N
  N1294    1.0000 0.43909  0.34418  0.07960  Biso   1.000  N
  N1295    1.0000 0.42975  0.30971  0.08966  Biso   1.000  N
  N1296    1.0000 0.41237  0.32613  0.06113  Biso   1.000  N
  N1297    1.0000 0.39925  0.37815  0.02568  Biso   1.000  N
  N1298    1.0000 0.37324  0.40762  0.00119  Biso   1.000  N
  N1299    1.0000 0.40103  0.37476  0.97991  Biso   1.000  N
  N1300    1.0000 0.43603  0.40572  0.92169  Biso   1.000  N
  S259     1.0000 0.45537  0.42188  0.08696  Biso   1.000  S
  S260     1.0000 0.37654  0.45072  0.99784  Biso   1.000  S
  C3381    1.0000 0.89742  0.78011  0.09028  Biso   1.000  C
  H2081    1.0000 0.90560  0.78270  0.10240  Biso   1.000  H
  C3382    1.0000 0.90086  0.79250  0.07258  Biso   1.000  C
  C3383    1.0000 0.88928  0.78862  0.05477  Biso   1.000  C
  H2082    1.0000 0.89080  0.79700  0.04260  Biso   1.000  H
  C3384    1.0000 0.87518  0.77190  0.05514  Biso   1.000  C
  H2083    1.0000 0.86760  0.76820  0.04290  Biso   1.000  H
  C3385    1.0000 0.87242  0.76093  0.07314  Biso   1.000  C
  H2084    1.0000 0.86240  0.74990  0.07320  Biso   1.000  H
  C3386    1.0000 0.96662  0.90467  0.10226  Biso   1.000  C
  C3387    1.0000 0.98679  0.83157  0.13852  Biso   1.000  C
  H2085    1.0000 0.99680  0.83290  0.14940  Biso   1.000  H
  C3388    1.0000 0.97538  0.81334  0.13740  Biso   1.000  C
  H2086    1.0000 0.97800  0.80220  0.14690  Biso   1.000  H
  C3389    1.0000 0.95993  0.81142  0.12221  Biso   1.000  C
  H2087    1.0000 0.95130  0.79930  0.12160  Biso   1.000  H
  C3390    1.0000 0.95751  0.82774  0.10790  Biso   1.000  C
  C3391    1.0000 0.96999  0.84528  0.10974  Biso   1.000  C
  H2088    1.0000 0.96830  0.85620  0.09980  Biso   1.000  H
  C3392    1.0000 0.94123  0.82718  0.09132  Biso   1.000  C
  C3393    1.0000 0.91539  0.81030  0.07433  Biso   1.000  C
  C3394    1.0000 0.92411  0.84316  0.06489  Biso   1.000  C
  C3395    1.0000 0.90399  0.86178  0.03768  Biso   1.000  C
  H2089    1.0000 0.89580  0.84940  0.03630  Biso   1.000  H
  C3396    1.0000 0.92048  0.86185  0.05221  Biso   1.000  C
  C3397    1.0000 0.93265  0.87960  0.05411  Biso   1.000  C
  H2090    1.0000 0.94380  0.88030  0.06400  Biso   1.000  H
  C3398    1.0000 0.92808  0.89642  0.04109  Biso   1.000  C
  H2091    1.0000 0.93640  0.90870  0.04160  Biso   1.000  H
  C3399    1.0000 0.91140  0.89511  0.02746  Biso   1.000  C
  H2092    1.0000 0.90840  0.90690  0.01890  Biso   1.000  H
  C3400    1.0000 0.91699  0.86138  0.98237  Biso   1.000  C
  H2093    1.0000 0.91590  0.85110  0.99300  Biso   1.000  H
  C3401    1.0000 0.93460  0.86166  0.97060  Biso   1.000  C
  H2094    1.0000 0.94550  0.85190  0.97310  Biso   1.000  H
  C3402    1.0000 0.93640  0.87667  0.95470  Biso   1.000  C
  H2095    1.0000 0.94840  0.87710  0.94590  Biso   1.000  H
  C3403    1.0000 0.92016  0.89076  0.95217  Biso   1.000  C
  C3404    1.0000 0.90269  0.88915  0.96498  Biso   1.000  C
  H2096    1.0000 0.89150  0.89870  0.96300  Biso   1.000  H
  C3405    1.0000 0.92092  0.90698  0.93559  Biso   1.000  C
  C3406    1.0000 0.87389  0.92522  0.99941  Biso   1.000  C
  N1301    1.0000 0.88308  0.76475  0.09096  Biso   1.000  N
  N1302    1.0000 0.97554  0.89301  0.11285  Biso   1.000  N
  N1303    1.0000 0.98449  0.84758  0.12503  Biso   1.000  N
  N1304    1.0000 0.93909  0.84418  0.07960  Biso   1.000  N
  N1305    1.0000 0.92975  0.80971  0.08966  Biso   1.000  N
  N1306    1.0000 0.91237  0.82613  0.06113  Biso   1.000  N
  N1307    1.0000 0.89925  0.87815  0.02568  Biso   1.000  N
  N1308    1.0000 0.87324  0.90762  0.00119  Biso   1.000  N
  N1309    1.0000 0.90103  0.87476  0.97991  Biso   1.000  N
  N1310    1.0000 0.93603  0.90572  0.92169  Biso   1.000  N
  S261     1.0000 0.95537  0.92188  0.08696  Biso   1.000  S
  S262     1.0000 0.87654  0.95072  0.99784  Biso   1.000  S
  C3407    1.0000 0.89742  0.28011  0.59028  Biso   1.000  C
  H2097    1.0000 0.90560  0.28270  0.60240  Biso   1.000  H
  C3408    1.0000 0.90086  0.29250  0.57258  Biso   1.000  C
  C3409    1.0000 0.88928  0.28862  0.55477  Biso   1.000  C
  H2098    1.0000 0.89080  0.29700  0.54260  Biso   1.000  H
  C3410    1.0000 0.87518  0.27190  0.55514  Biso   1.000  C
  H2099    1.0000 0.86760  0.26820  0.54290  Biso   1.000  H
  C3411    1.0000 0.87242  0.26093  0.57314  Biso   1.000  C
  H2100    1.0000 0.86240  0.24990  0.57320  Biso   1.000  H
  C3412    1.0000 0.96662  0.40467  0.60226  Biso   1.000  C
  C3413    1.0000 0.98679  0.33157  0.63852  Biso   1.000  C
  H2101    1.0000 0.99680  0.33290  0.64940  Biso   1.000  H
  C3414    1.0000 0.97538  0.31334  0.63740  Biso   1.000  C
  H2102    1.0000 0.97800  0.30220  0.64690  Biso   1.000  H
  C3415    1.0000 0.95993  0.31142  0.62221  Biso   1.000  C
  H2103    1.0000 0.95130  0.29930  0.62160  Biso   1.000  H
  C3416    1.0000 0.95751  0.32774  0.60790  Biso   1.000  C
  C3417    1.0000 0.96999  0.34528  0.60974  Biso   1.000  C
  H2104    1.0000 0.96830  0.35620  0.59980  Biso   1.000  H
  C3418    1.0000 0.94123  0.32718  0.59132  Biso   1.000  C
  C3419    1.0000 0.91539  0.31030  0.57433  Biso   1.000  C
  C3420    1.0000 0.92411  0.34316  0.56489  Biso   1.000  C
  C3421    1.0000 0.90399  0.36178  0.53768  Biso   1.000  C
  H2105    1.0000 0.89580  0.34940  0.53630  Biso   1.000  H
  C3422    1.0000 0.92048  0.36185  0.55221  Biso   1.000  C
  C3423    1.0000 0.93265  0.37960  0.55411  Biso   1.000  C
  H2106    1.0000 0.94380  0.38030  0.56400  Biso   1.000  H
  C3424    1.0000 0.92808  0.39642  0.54109  Biso   1.000  C
  H2107    1.0000 0.93640  0.40870  0.54160  Biso   1.000  H
  C3425    1.0000 0.91140  0.39511  0.52746  Biso   1.000  C
  H2108    1.0000 0.90840  0.40690  0.51890  Biso   1.000  H
  C3426    1.0000 0.91699  0.36138  0.48237  Biso   1.000  C
  H2109    1.0000 0.91590  0.35110  0.49300  Biso   1.000  H
  C3427    1.0000 0.93460  0.36166  0.47060  Biso   1.000  C
  H2110    1.0000 0.94550  0.35190  0.47310  Biso   1.000  H
  C3428    1.0000 0.93640  0.37667  0.45470  Biso   1.000  C
  H2111    1.0000 0.94840  0.37710  0.44590  Biso   1.000  H
  C3429    1.0000 0.92016  0.39076  0.45217  Biso   1.000  C
  C3430    1.0000 0.90269  0.38915  0.46498  Biso   1.000  C
  H2112    1.0000 0.89150  0.39870  0.46300  Biso   1.000  H
  C3431    1.0000 0.92092  0.40698  0.43559  Biso   1.000  C
  C3432    1.0000 0.87389  0.42522  0.49941  Biso   1.000  C
  N1311    1.0000 0.88308  0.26475  0.59096  Biso   1.000  N
  N1312    1.0000 0.97554  0.39301  0.61285  Biso   1.000  N
  N1313    1.0000 0.98449  0.34758  0.62503  Biso   1.000  N
  N1314    1.0000 0.93909  0.34418  0.57960  Biso   1.000  N
  N1315    1.0000 0.92975  0.30971  0.58966  Biso   1.000  N
  N1316    1.0000 0.91237  0.32613  0.56113  Biso   1.000  N
  N1317    1.0000 0.89925  0.37815  0.52568  Biso   1.000  N
  N1318    1.0000 0.87324  0.40762  0.50119  Biso   1.000  N
  N1319    1.0000 0.90103  0.37476  0.47991  Biso   1.000  N
  N1320    1.0000 0.93603  0.40572  0.42169  Biso   1.000  N
  S263     1.0000 0.95537  0.42188  0.58696  Biso   1.000  S
  S264     1.0000 0.87654  0.45072  0.49784  Biso   1.000  S
  C3433    1.0000 0.85258  0.28011  0.15972  Biso   1.000  C
  H2113    1.0000 0.84440  0.28270  0.14760  Biso   1.000  H
  C3434    1.0000 0.84914  0.29250  0.17742  Biso   1.000  C
  C3435    1.0000 0.86072  0.28862  0.19523  Biso   1.000  C
  H2114    1.0000 0.85920  0.29700  0.20740  Biso   1.000  H
  C3436    1.0000 0.87482  0.27190  0.19486  Biso   1.000  C
  H2115    1.0000 0.88240  0.26820  0.20710  Biso   1.000  H
  C3437    1.0000 0.87758  0.26093  0.17686  Biso   1.000  C
  H2116    1.0000 0.88760  0.24990  0.17680  Biso   1.000  H
  C3438    1.0000 0.78338  0.40467  0.14774  Biso   1.000  C
  C3439    1.0000 0.76321  0.33157  0.11148  Biso   1.000  C
  H2117    1.0000 0.75320  0.33290  0.10060  Biso   1.000  H
  C3440    1.0000 0.77462  0.31334  0.11260  Biso   1.000  C
  H2118    1.0000 0.77200  0.30220  0.10310  Biso   1.000  H
  C3441    1.0000 0.79007  0.31142  0.12779  Biso   1.000  C
  H2119    1.0000 0.79870  0.29930  0.12840  Biso   1.000  H
  C3442    1.0000 0.79249  0.32774  0.14210  Biso   1.000  C
  C3443    1.0000 0.78001  0.34528  0.14026  Biso   1.000  C
  H2120    1.0000 0.78170  0.35620  0.15020  Biso   1.000  H
  C3444    1.0000 0.80877  0.32718  0.15868  Biso   1.000  C
  C3445    1.0000 0.83461  0.31030  0.17567  Biso   1.000  C
  C3446    1.0000 0.82589  0.34316  0.18511  Biso   1.000  C
  C3447    1.0000 0.84601  0.36178  0.21232  Biso   1.000  C
  H2121    1.0000 0.85420  0.34940  0.21370  Biso   1.000  H
  C3448    1.0000 0.82952  0.36185  0.19779  Biso   1.000  C
  C3449    1.0000 0.81735  0.37960  0.19589  Biso   1.000  C
  H2122    1.0000 0.80620  0.38030  0.18600  Biso   1.000  H
  C3450    1.0000 0.82192  0.39642  0.20891  Biso   1.000  C
  H2123    1.0000 0.81360  0.40870  0.20840  Biso   1.000  H
  C3451    1.0000 0.83860  0.39511  0.22254  Biso   1.000  C
  H2124    1.0000 0.84160  0.40690  0.23110  Biso   1.000  H
  C3452    1.0000 0.83301  0.36138  0.26763  Biso   1.000  C
  H2125    1.0000 0.83410  0.35110  0.25700  Biso   1.000  H
  C3453    1.0000 0.81540  0.36166  0.27940  Biso   1.000  C
  H2126    1.0000 0.80450  0.35190  0.27690  Biso   1.000  H
  C3454    1.0000 0.81360  0.37667  0.29530  Biso   1.000  C
  H2127    1.0000 0.80160  0.37710  0.30410  Biso   1.000  H
  C3455    1.0000 0.82984  0.39076  0.29783  Biso   1.000  C
  C3456    1.0000 0.84731  0.38915  0.28502  Biso   1.000  C
  H2128    1.0000 0.85850  0.39870  0.28700  Biso   1.000  H
  C3457    1.0000 0.82908  0.40698  0.31441  Biso   1.000  C
  C3458    1.0000 0.87611  0.42522  0.25059  Biso   1.000  C
  N1321    1.0000 0.86692  0.26475  0.15904  Biso   1.000  N
  N1322    1.0000 0.77446  0.39301  0.13715  Biso   1.000  N
  N1323    1.0000 0.76551  0.34758  0.12497  Biso   1.000  N
  N1324    1.0000 0.81091  0.34418  0.17040  Biso   1.000  N
  N1325    1.0000 0.82025  0.30971  0.16034  Biso   1.000  N
  N1326    1.0000 0.83763  0.32613  0.18887  Biso   1.000  N
  N1327    1.0000 0.85075  0.37815  0.22432  Biso   1.000  N
  N1328    1.0000 0.87676  0.40762  0.24881  Biso   1.000  N
  N1329    1.0000 0.84897  0.37476  0.27009  Biso   1.000  N
  N1330    1.0000 0.81397  0.40572  0.32831  Biso   1.000  N
  S265     1.0000 0.79463  0.42188  0.16304  Biso   1.000  S
  S266     1.0000 0.87346  0.45072  0.25216  Biso   1.000  S
  C3459    1.0000 0.85258  0.78011  0.65972  Biso   1.000  C
  H2129    1.0000 0.84440  0.78270  0.64760  Biso   1.000  H
  C3460    1.0000 0.84914  0.79250  0.67742  Biso   1.000  C
  C3461    1.0000 0.86072  0.78862  0.69523  Biso   1.000  C
  H2130    1.0000 0.85920  0.79700  0.70740  Biso   1.000  H
  C3462    1.0000 0.87482  0.77190  0.69486  Biso   1.000  C
  H2131    1.0000 0.88240  0.76820  0.70710  Biso   1.000  H
  C3463    1.0000 0.87758  0.76093  0.67686  Biso   1.000  C
  H2132    1.0000 0.88760  0.74990  0.67680  Biso   1.000  H
  C3464    1.0000 0.78338  0.90467  0.64774  Biso   1.000  C
  C3465    1.0000 0.76321  0.83157  0.61148  Biso   1.000  C
  H2133    1.0000 0.75320  0.83290  0.60060  Biso   1.000  H
  C3466    1.0000 0.77462  0.81334  0.61260  Biso   1.000  C
  H2134    1.0000 0.77200  0.80220  0.60310  Biso   1.000  H
  C3467    1.0000 0.79007  0.81142  0.62779  Biso   1.000  C
  H2135    1.0000 0.79870  0.79930  0.62840  Biso   1.000  H
  C3468    1.0000 0.79249  0.82774  0.64210  Biso   1.000  C
  C3469    1.0000 0.78001  0.84528  0.64026  Biso   1.000  C
  H2136    1.0000 0.78170  0.85620  0.65020  Biso   1.000  H
  C3470    1.0000 0.80877  0.82718  0.65868  Biso   1.000  C
  C3471    1.0000 0.83461  0.81030  0.67567  Biso   1.000  C
  C3472    1.0000 0.82589  0.84316  0.68511  Biso   1.000  C
  C3473    1.0000 0.84601  0.86178  0.71232  Biso   1.000  C
  H2137    1.0000 0.85420  0.84940  0.71370  Biso   1.000  H
  C3474    1.0000 0.82952  0.86185  0.69779  Biso   1.000  C
  C3475    1.0000 0.81735  0.87960  0.69589  Biso   1.000  C
  H2138    1.0000 0.80620  0.88030  0.68600  Biso   1.000  H
  C3476    1.0000 0.82192  0.89642  0.70891  Biso   1.000  C
  H2139    1.0000 0.81360  0.90870  0.70840  Biso   1.000  H
  C3477    1.0000 0.83860  0.89511  0.72254  Biso   1.000  C
  H2140    1.0000 0.84160  0.90690  0.73110  Biso   1.000  H
  C3478    1.0000 0.83301  0.86138  0.76763  Biso   1.000  C
  H2141    1.0000 0.83410  0.85110  0.75700  Biso   1.000  H
  C3479    1.0000 0.81540  0.86166  0.77940  Biso   1.000  C
  H2142    1.0000 0.80450  0.85190  0.77690  Biso   1.000  H
  C3480    1.0000 0.81360  0.87667  0.79530  Biso   1.000  C
  H2143    1.0000 0.80160  0.87710  0.80410  Biso   1.000  H
  C3481    1.0000 0.82984  0.89076  0.79783  Biso   1.000  C
  C3482    1.0000 0.84731  0.88915  0.78502  Biso   1.000  C
  H2144    1.0000 0.85850  0.89870  0.78700  Biso   1.000  H
  C3483    1.0000 0.82908  0.90698  0.81441  Biso   1.000  C
  C3484    1.0000 0.87611  0.92522  0.75059  Biso   1.000  C
  N1331    1.0000 0.86692  0.76475  0.65904  Biso   1.000  N
  N1332    1.0000 0.77446  0.89301  0.63715  Biso   1.000  N
  N1333    1.0000 0.76551  0.84758  0.62497  Biso   1.000  N
  N1334    1.0000 0.81091  0.84418  0.67040  Biso   1.000  N
  N1335    1.0000 0.82025  0.80971  0.66034  Biso   1.000  N
  N1336    1.0000 0.83763  0.82613  0.68887  Biso   1.000  N
  N1337    1.0000 0.85075  0.87815  0.72432  Biso   1.000  N
  N1338    1.0000 0.87676  0.90762  0.74881  Biso   1.000  N
  N1339    1.0000 0.84897  0.87476  0.77009  Biso   1.000  N
  N1340    1.0000 0.81397  0.90572  0.82831  Biso   1.000  N
  S267     1.0000 0.79463  0.92188  0.66304  Biso   1.000  S
  S268     1.0000 0.87346  0.95072  0.75216  Biso   1.000  S
  C3485    1.0000 0.35258  0.28011  0.65972  Biso   1.000  C
  H2145    1.0000 0.34440  0.28270  0.64760  Biso   1.000  H
  C3486    1.0000 0.34914  0.29250  0.67742  Biso   1.000  C
  C3487    1.0000 0.36072  0.28862  0.69523  Biso   1.000  C
  H2146    1.0000 0.35920  0.29700  0.70740  Biso   1.000  H
  C3488    1.0000 0.37482  0.27190  0.69486  Biso   1.000  C
  H2147    1.0000 0.38240  0.26820  0.70710  Biso   1.000  H
  C3489    1.0000 0.37758  0.26093  0.67686  Biso   1.000  C
  H2148    1.0000 0.38760  0.24990  0.67680  Biso   1.000  H
  C3490    1.0000 0.28338  0.40467  0.64774  Biso   1.000  C
  C3491    1.0000 0.26321  0.33157  0.61148  Biso   1.000  C
  H2149    1.0000 0.25320  0.33290  0.60060  Biso   1.000  H
  C3492    1.0000 0.27462  0.31334  0.61260  Biso   1.000  C
  H2150    1.0000 0.27200  0.30220  0.60310  Biso   1.000  H
  C3493    1.0000 0.29007  0.31142  0.62779  Biso   1.000  C
  H2151    1.0000 0.29870  0.29930  0.62840  Biso   1.000  H
  C3494    1.0000 0.29249  0.32774  0.64210  Biso   1.000  C
  C3495    1.0000 0.28001  0.34528  0.64026  Biso   1.000  C
  H2152    1.0000 0.28170  0.35620  0.65020  Biso   1.000  H
  C3496    1.0000 0.30877  0.32718  0.65868  Biso   1.000  C
  C3497    1.0000 0.33461  0.31030  0.67567  Biso   1.000  C
  C3498    1.0000 0.32589  0.34316  0.68511  Biso   1.000  C
  C3499    1.0000 0.34601  0.36178  0.71232  Biso   1.000  C
  H2153    1.0000 0.35420  0.34940  0.71370  Biso   1.000  H
  C3500    1.0000 0.32952  0.36185  0.69779  Biso   1.000  C
  C3501    1.0000 0.31735  0.37960  0.69589  Biso   1.000  C
  H2154    1.0000 0.30620  0.38030  0.68600  Biso   1.000  H
  C3502    1.0000 0.32192  0.39642  0.70891  Biso   1.000  C
  H2155    1.0000 0.31360  0.40870  0.70840  Biso   1.000  H
  C3503    1.0000 0.33860  0.39511  0.72254  Biso   1.000  C
  H2156    1.0000 0.34160  0.40690  0.73110  Biso   1.000  H
  C3504    1.0000 0.33301  0.36138  0.76763  Biso   1.000  C
  H2157    1.0000 0.33410  0.35110  0.75700  Biso   1.000  H
  C3505    1.0000 0.31540  0.36166  0.77940  Biso   1.000  C
  H2158    1.0000 0.30450  0.35190  0.77690  Biso   1.000  H
  C3506    1.0000 0.31360  0.37667  0.79530  Biso   1.000  C
  H2159    1.0000 0.30160  0.37710  0.80410  Biso   1.000  H
  C3507    1.0000 0.32984  0.39076  0.79783  Biso   1.000  C
  C3508    1.0000 0.34731  0.38915  0.78502  Biso   1.000  C
  H2160    1.0000 0.35850  0.39870  0.78700  Biso   1.000  H
  C3509    1.0000 0.32908  0.40698  0.81441  Biso   1.000  C
  C3510    1.0000 0.37611  0.42522  0.75059  Biso   1.000  C
  N1341    1.0000 0.36692  0.26475  0.65904  Biso   1.000  N
  N1342    1.0000 0.27446  0.39301  0.63715  Biso   1.000  N
  N1343    1.0000 0.26551  0.34758  0.62497  Biso   1.000  N
  N1344    1.0000 0.31091  0.34418  0.67040  Biso   1.000  N
  N1345    1.0000 0.32025  0.30971  0.66034  Biso   1.000  N
  N1346    1.0000 0.33763  0.32613  0.68887  Biso   1.000  N
  N1347    1.0000 0.35075  0.37815  0.72432  Biso   1.000  N
  N1348    1.0000 0.37676  0.40762  0.74881  Biso   1.000  N
  N1349    1.0000 0.34897  0.37476  0.77009  Biso   1.000  N
  N1350    1.0000 0.31397  0.40572  0.82831  Biso   1.000  N
  S269     1.0000 0.29463  0.42188  0.66304  Biso   1.000  S
  S270     1.0000 0.37346  0.45072  0.75216  Biso   1.000  S
  C3511    1.0000 0.35258  0.78011  0.15972  Biso   1.000  C
  H2161    1.0000 0.34440  0.78270  0.14760  Biso   1.000  H
  C3512    1.0000 0.34914  0.79250  0.17742  Biso   1.000  C
  C3513    1.0000 0.36072  0.78862  0.19523  Biso   1.000  C
  H2162    1.0000 0.35920  0.79700  0.20740  Biso   1.000  H
  C3514    1.0000 0.37482  0.77190  0.19486  Biso   1.000  C
  H2163    1.0000 0.38240  0.76820  0.20710  Biso   1.000  H
  C3515    1.0000 0.37758  0.76093  0.17686  Biso   1.000  C
  H2164    1.0000 0.38760  0.74990  0.17680  Biso   1.000  H
  C3516    1.0000 0.28338  0.90467  0.14774  Biso   1.000  C
  C3517    1.0000 0.26321  0.83157  0.11148  Biso   1.000  C
  H2165    1.0000 0.25320  0.83290  0.10060  Biso   1.000  H
  C3518    1.0000 0.27462  0.81334  0.11260  Biso   1.000  C
  H2166    1.0000 0.27200  0.80220  0.10310  Biso   1.000  H
  C3519    1.0000 0.29007  0.81142  0.12779  Biso   1.000  C
  H2167    1.0000 0.29870  0.79930  0.12840  Biso   1.000  H
  C3520    1.0000 0.29249  0.82774  0.14210  Biso   1.000  C
  C3521    1.0000 0.28001  0.84528  0.14026  Biso   1.000  C
  H2168    1.0000 0.28170  0.85620  0.15020  Biso   1.000  H
  C3522    1.0000 0.30877  0.82718  0.15868  Biso   1.000  C
  C3523    1.0000 0.33461  0.81030  0.17567  Biso   1.000  C
  C3524    1.0000 0.32589  0.84316  0.18511  Biso   1.000  C
  C3525    1.0000 0.34601  0.86178  0.21232  Biso   1.000  C
  H2169    1.0000 0.35420  0.84940  0.21370  Biso   1.000  H
  C3526    1.0000 0.32952  0.86185  0.19779  Biso   1.000  C
  C3527    1.0000 0.31735  0.87960  0.19589  Biso   1.000  C
  H2170    1.0000 0.30620  0.88030  0.18600  Biso   1.000  H
  C3528    1.0000 0.32192  0.89642  0.20891  Biso   1.000  C
  H2171    1.0000 0.31360  0.90870  0.20840  Biso   1.000  H
  C3529    1.0000 0.33860  0.89511  0.22254  Biso   1.000  C
  H2172    1.0000 0.34160  0.90690  0.23110  Biso   1.000  H
  C3530    1.0000 0.33301  0.86138  0.26763  Biso   1.000  C
  H2173    1.0000 0.33410  0.85110  0.25700  Biso   1.000  H
  C3531    1.0000 0.31540  0.86166  0.27940  Biso   1.000  C
  H2174    1.0000 0.30450  0.85190  0.27690  Biso   1.000  H
  C3532    1.0000 0.31360  0.87667  0.29530  Biso   1.000  C
  H2175    1.0000 0.30160  0.87710  0.30410  Biso   1.000  H
  C3533    1.0000 0.32984  0.89076  0.29783  Biso   1.000  C
  C3534    1.0000 0.34731  0.88915  0.28502  Biso   1.000  C
  H2176    1.0000 0.35850  0.89870  0.28700  Biso   1.000  H
  C3535    1.0000 0.32908  0.90698  0.31441  Biso   1.000  C
  C3536    1.0000 0.37611  0.92522  0.25059  Biso   1.000  C
  N1351    1.0000 0.36692  0.76475  0.15904  Biso   1.000  N
  N1352    1.0000 0.27446  0.89301  0.13715  Biso   1.000  N
  N1353    1.0000 0.26551  0.84758  0.12497  Biso   1.000  N
  N1354    1.0000 0.31091  0.84418  0.17040  Biso   1.000  N
  N1355    1.0000 0.32025  0.80971  0.16034  Biso   1.000  N
  N1356    1.0000 0.33763  0.82613  0.18887  Biso   1.000  N
  N1357    1.0000 0.35075  0.87815  0.22432  Biso   1.000  N
  N1358    1.0000 0.37676  0.90762  0.24881  Biso   1.000  N
  N1359    1.0000 0.34897  0.87476  0.27009  Biso   1.000  N
  N1360    1.0000 0.31397  0.90572  0.32831  Biso   1.000  N
  S271     1.0000 0.29463  0.92188  0.16304  Biso   1.000  S
  S272     1.0000 0.37346  0.95072  0.25216  Biso   1.000  S
  C3537    1.0000 0.89742  0.96989  0.65972  Biso   1.000  C
  H2177    1.0000 0.90560  0.96730  0.64760  Biso   1.000  H
  C3538    1.0000 0.90086  0.95750  0.67742  Biso   1.000  C
  C3539    1.0000 0.88928  0.96138  0.69523  Biso   1.000  C
  H2178    1.0000 0.89080  0.95300  0.70740  Biso   1.000  H
  C3540    1.0000 0.87518  0.97810  0.69486  Biso   1.000  C
  H2179    1.0000 0.86760  0.98180  0.70710  Biso   1.000  H
  C3541    1.0000 0.87242  0.98907  0.67686  Biso   1.000  C
  H2180    1.0000 0.86240  0.00010  0.67680  Biso   1.000  H
  C3542    1.0000 0.96662  0.84533  0.64774  Biso   1.000  C
  C3543    1.0000 0.98679  0.91843  0.61148  Biso   1.000  C
  H2181    1.0000 0.99680  0.91710  0.60060  Biso   1.000  H
  C3544    1.0000 0.97538  0.93666  0.61260  Biso   1.000  C
  H2182    1.0000 0.97800  0.94780  0.60310  Biso   1.000  H
  C3545    1.0000 0.95993  0.93858  0.62779  Biso   1.000  C
  H2183    1.0000 0.95130  0.95070  0.62840  Biso   1.000  H
  C3546    1.0000 0.95751  0.92226  0.64210  Biso   1.000  C
  C3547    1.0000 0.96999  0.90472  0.64026  Biso   1.000  C
  H2184    1.0000 0.96830  0.89380  0.65020  Biso   1.000  H
  C3548    1.0000 0.94123  0.92282  0.65868  Biso   1.000  C
  C3549    1.0000 0.91539  0.93970  0.67567  Biso   1.000  C
  C3550    1.0000 0.92411  0.90684  0.68511  Biso   1.000  C
  C3551    1.0000 0.90399  0.88822  0.71232  Biso   1.000  C
  H2185    1.0000 0.89580  0.90060  0.71370  Biso   1.000  H
  C3552    1.0000 0.92048  0.88815  0.69779  Biso   1.000  C
  C3553    1.0000 0.93265  0.87040  0.69589  Biso   1.000  C
  H2186    1.0000 0.94380  0.86970  0.68600  Biso   1.000  H
  C3554    1.0000 0.92808  0.85358  0.70891  Biso   1.000  C
  H2187    1.0000 0.93640  0.84130  0.70840  Biso   1.000  H
  C3555    1.0000 0.91140  0.85489  0.72254  Biso   1.000  C
  H2188    1.0000 0.90840  0.84310  0.73110  Biso   1.000  H
  C3556    1.0000 0.91699  0.88862  0.76763  Biso   1.000  C
  H2189    1.0000 0.91590  0.89890  0.75700  Biso   1.000  H
  C3557    1.0000 0.93460  0.88834  0.77940  Biso   1.000  C
  H2190    1.0000 0.94550  0.89810  0.77690  Biso   1.000  H
  C3558    1.0000 0.93640  0.87333  0.79530  Biso   1.000  C
  H2191    1.0000 0.94840  0.87290  0.80410  Biso   1.000  H
  C3559    1.0000 0.92016  0.85924  0.79783  Biso   1.000  C
  C3560    1.0000 0.90269  0.86085  0.78502  Biso   1.000  C
  H2192    1.0000 0.89150  0.85130  0.78700  Biso   1.000  H
  C3561    1.0000 0.92092  0.84302  0.81441  Biso   1.000  C
  C3562    1.0000 0.87389  0.82478  0.75059  Biso   1.000  C
  N1361    1.0000 0.88308  0.98525  0.65904  Biso   1.000  N
  N1362    1.0000 0.97554  0.85699  0.63715  Biso   1.000  N
  N1363    1.0000 0.98449  0.90242  0.62497  Biso   1.000  N
  N1364    1.0000 0.93909  0.90582  0.67040  Biso   1.000  N
  N1365    1.0000 0.92975  0.94029  0.66034  Biso   1.000  N
  N1366    1.0000 0.91237  0.92387  0.68887  Biso   1.000  N
  N1367    1.0000 0.89925  0.87185  0.72432  Biso   1.000  N
  N1368    1.0000 0.87324  0.84238  0.74881  Biso   1.000  N
  N1369    1.0000 0.90103  0.87524  0.77009  Biso   1.000  N
  N1370    1.0000 0.93603  0.84428  0.82831  Biso   1.000  N
  S273     1.0000 0.95537  0.82812  0.66304  Biso   1.000  S
  S274     1.0000 0.87654  0.79928  0.75216  Biso   1.000  S
  C3563    1.0000 0.89742  0.46989  0.15972  Biso   1.000  C
  H2193    1.0000 0.90560  0.46730  0.14760  Biso   1.000  H
  C3564    1.0000 0.90086  0.45750  0.17742  Biso   1.000  C
  C3565    1.0000 0.88928  0.46138  0.19523  Biso   1.000  C
  H2194    1.0000 0.89080  0.45300  0.20740  Biso   1.000  H
  C3566    1.0000 0.87518  0.47810  0.19486  Biso   1.000  C
  H2195    1.0000 0.86760  0.48180  0.20710  Biso   1.000  H
  C3567    1.0000 0.87242  0.48907  0.17686  Biso   1.000  C
  H2196    1.0000 0.86240  0.50010  0.17680  Biso   1.000  H
  C3568    1.0000 0.96662  0.34533  0.14774  Biso   1.000  C
  C3569    1.0000 0.98679  0.41843  0.11148  Biso   1.000  C
  H2197    1.0000 0.99680  0.41710  0.10060  Biso   1.000  H
  C3570    1.0000 0.97538  0.43666  0.11260  Biso   1.000  C
  H2198    1.0000 0.97800  0.44780  0.10310  Biso   1.000  H
  C3571    1.0000 0.95993  0.43858  0.12779  Biso   1.000  C
  H2199    1.0000 0.95130  0.45070  0.12840  Biso   1.000  H
  C3572    1.0000 0.95751  0.42226  0.14210  Biso   1.000  C
  C3573    1.0000 0.96999  0.40472  0.14026  Biso   1.000  C
  H2200    1.0000 0.96830  0.39380  0.15020  Biso   1.000  H
  C3574    1.0000 0.94123  0.42282  0.15868  Biso   1.000  C
  C3575    1.0000 0.91539  0.43970  0.17567  Biso   1.000  C
  C3576    1.0000 0.92411  0.40684  0.18511  Biso   1.000  C
  C3577    1.0000 0.90399  0.38822  0.21232  Biso   1.000  C
  H2201    1.0000 0.89580  0.40060  0.21370  Biso   1.000  H
  C3578    1.0000 0.92048  0.38815  0.19779  Biso   1.000  C
  C3579    1.0000 0.93265  0.37040  0.19589  Biso   1.000  C
  H2202    1.0000 0.94380  0.36970  0.18600  Biso   1.000  H
  C3580    1.0000 0.92808  0.35358  0.20891  Biso   1.000  C
  H2203    1.0000 0.93640  0.34130  0.20840  Biso   1.000  H
  C3581    1.0000 0.91140  0.35489  0.22254  Biso   1.000  C
  H2204    1.0000 0.90840  0.34310  0.23110  Biso   1.000  H
  C3582    1.0000 0.91699  0.38862  0.26763  Biso   1.000  C
  H2205    1.0000 0.91590  0.39890  0.25700  Biso   1.000  H
  C3583    1.0000 0.93460  0.38834  0.27940  Biso   1.000  C
  H2206    1.0000 0.94550  0.39810  0.27690  Biso   1.000  H
  C3584    1.0000 0.93640  0.37333  0.29530  Biso   1.000  C
  H2207    1.0000 0.94840  0.37290  0.30410  Biso   1.000  H
  C3585    1.0000 0.92016  0.35924  0.29783  Biso   1.000  C
  C3586    1.0000 0.90269  0.36085  0.28502  Biso   1.000  C
  H2208    1.0000 0.89150  0.35130  0.28700  Biso   1.000  H
  C3587    1.0000 0.92092  0.34302  0.31441  Biso   1.000  C
  C3588    1.0000 0.87389  0.32478  0.25059  Biso   1.000  C
  N1371    1.0000 0.88308  0.48525  0.15904  Biso   1.000  N
  N1372    1.0000 0.97554  0.35699  0.13715  Biso   1.000  N
  N1373    1.0000 0.98449  0.40242  0.12497  Biso   1.000  N
  N1374    1.0000 0.93909  0.40582  0.17040  Biso   1.000  N
  N1375    1.0000 0.92975  0.44029  0.16034  Biso   1.000  N
  N1376    1.0000 0.91237  0.42387  0.18887  Biso   1.000  N
  N1377    1.0000 0.89925  0.37185  0.22432  Biso   1.000  N
  N1378    1.0000 0.87324  0.34238  0.24881  Biso   1.000  N
  N1379    1.0000 0.90103  0.37524  0.27009  Biso   1.000  N
  N1380    1.0000 0.93603  0.34428  0.32831  Biso   1.000  N
  S275     1.0000 0.95537  0.32812  0.16304  Biso   1.000  S
  S276     1.0000 0.87654  0.29928  0.25216  Biso   1.000  S
  C3589    1.0000 0.39742  0.96989  0.15972  Biso   1.000  C
  H2209    1.0000 0.40560  0.96730  0.14760  Biso   1.000  H
  C3590    1.0000 0.40086  0.95750  0.17742  Biso   1.000  C
  C3591    1.0000 0.38928  0.96138  0.19523  Biso   1.000  C
  H2210    1.0000 0.39080  0.95300  0.20740  Biso   1.000  H
  C3592    1.0000 0.37518  0.97810  0.19486  Biso   1.000  C
  H2211    1.0000 0.36760  0.98180  0.20710  Biso   1.000  H
  C3593    1.0000 0.37242  0.98907  0.17686  Biso   1.000  C
  H2212    1.0000 0.36240  0.00010  0.17680  Biso   1.000  H
  C3594    1.0000 0.46662  0.84533  0.14774  Biso   1.000  C
  C3595    1.0000 0.48679  0.91843  0.11148  Biso   1.000  C
  H2213    1.0000 0.49680  0.91710  0.10060  Biso   1.000  H
  C3596    1.0000 0.47538  0.93666  0.11260  Biso   1.000  C
  H2214    1.0000 0.47800  0.94780  0.10310  Biso   1.000  H
  C3597    1.0000 0.45993  0.93858  0.12779  Biso   1.000  C
  H2215    1.0000 0.45130  0.95070  0.12840  Biso   1.000  H
  C3598    1.0000 0.45751  0.92226  0.14210  Biso   1.000  C
  C3599    1.0000 0.46999  0.90472  0.14026  Biso   1.000  C
  H2216    1.0000 0.46830  0.89380  0.15020  Biso   1.000  H
  C3600    1.0000 0.44123  0.92282  0.15868  Biso   1.000  C
  C3601    1.0000 0.41539  0.93970  0.17567  Biso   1.000  C
  C3602    1.0000 0.42411  0.90684  0.18511  Biso   1.000  C
  C3603    1.0000 0.40399  0.88822  0.21232  Biso   1.000  C
  H2217    1.0000 0.39580  0.90060  0.21370  Biso   1.000  H
  C3604    1.0000 0.42048  0.88815  0.19779  Biso   1.000  C
  C3605    1.0000 0.43265  0.87040  0.19589  Biso   1.000  C
  H2218    1.0000 0.44380  0.86970  0.18600  Biso   1.000  H
  C3606    1.0000 0.42808  0.85358  0.20891  Biso   1.000  C
  H2219    1.0000 0.43640  0.84130  0.20840  Biso   1.000  H
  C3607    1.0000 0.41140  0.85489  0.22254  Biso   1.000  C
  H2220    1.0000 0.40840  0.84310  0.23110  Biso   1.000  H
  C3608    1.0000 0.41699  0.88862  0.26763  Biso   1.000  C
  H2221    1.0000 0.41590  0.89890  0.25700  Biso   1.000  H
  C3609    1.0000 0.43460  0.88834  0.27940  Biso   1.000  C
  H2222    1.0000 0.44550  0.89810  0.27690  Biso   1.000  H
  C3610    1.0000 0.43640  0.87333  0.29530  Biso   1.000  C
  H2223    1.0000 0.44840  0.87290  0.30410  Biso   1.000  H
  C3611    1.0000 0.42016  0.85924  0.29783  Biso   1.000  C
  C3612    1.0000 0.40269  0.86085  0.28502  Biso   1.000  C
  H2224    1.0000 0.39150  0.85130  0.28700  Biso   1.000  H
  C3613    1.0000 0.42092  0.84302  0.31441  Biso   1.000  C
  C3614    1.0000 0.37389  0.82478  0.25059  Biso   1.000  C
  N1381    1.0000 0.38308  0.98525  0.15904  Biso   1.000  N
  N1382    1.0000 0.47554  0.85699  0.13715  Biso   1.000  N
  N1383    1.0000 0.48449  0.90242  0.12497  Biso   1.000  N
  N1384    1.0000 0.43909  0.90582  0.17040  Biso   1.000  N
  N1385    1.0000 0.42975  0.94029  0.16034  Biso   1.000  N
  N1386    1.0000 0.41237  0.92387  0.18887  Biso   1.000  N
  N1387    1.0000 0.39925  0.87185  0.22432  Biso   1.000  N
  N1388    1.0000 0.37324  0.84238  0.24881  Biso   1.000  N
  N1389    1.0000 0.40103  0.87524  0.27009  Biso   1.000  N
  N1390    1.0000 0.43603  0.84428  0.32831  Biso   1.000  N
  S277     1.0000 0.45537  0.82812  0.16304  Biso   1.000  S
  S278     1.0000 0.37654  0.79928  0.25216  Biso   1.000  S
  C3615    1.0000 0.39742  0.46989  0.65972  Biso   1.000  C
  H2225    1.0000 0.40560  0.46730  0.64760  Biso   1.000  H
  C3616    1.0000 0.40086  0.45750  0.67742  Biso   1.000  C
  C3617    1.0000 0.38928  0.46138  0.69523  Biso   1.000  C
  H2226    1.0000 0.39080  0.45300  0.70740  Biso   1.000  H
  C3618    1.0000 0.37518  0.47810  0.69486  Biso   1.000  C
  H2227    1.0000 0.36760  0.48180  0.70710  Biso   1.000  H
  C3619    1.0000 0.37242  0.48907  0.67686  Biso   1.000  C
  H2228    1.0000 0.36240  0.50010  0.67680  Biso   1.000  H
  C3620    1.0000 0.46662  0.34533  0.64774  Biso   1.000  C
  C3621    1.0000 0.48679  0.41843  0.61148  Biso   1.000  C
  H2229    1.0000 0.49680  0.41710  0.60060  Biso   1.000  H
  C3622    1.0000 0.47538  0.43666  0.61260  Biso   1.000  C
  H2230    1.0000 0.47800  0.44780  0.60310  Biso   1.000  H
  C3623    1.0000 0.45993  0.43858  0.62779  Biso   1.000  C
  H2231    1.0000 0.45130  0.45070  0.62840  Biso   1.000  H
  C3624    1.0000 0.45751  0.42226  0.64210  Biso   1.000  C
  C3625    1.0000 0.46999  0.40472  0.64026  Biso   1.000  C
  H2232    1.0000 0.46830  0.39380  0.65020  Biso   1.000  H
  C3626    1.0000 0.44123  0.42282  0.65868  Biso   1.000  C
  C3627    1.0000 0.41539  0.43970  0.67567  Biso   1.000  C
  C3628    1.0000 0.42411  0.40684  0.68511  Biso   1.000  C
  C3629    1.0000 0.40399  0.38822  0.71232  Biso   1.000  C
  H2233    1.0000 0.39580  0.40060  0.71370  Biso   1.000  H
  C3630    1.0000 0.42048  0.38815  0.69779  Biso   1.000  C
  C3631    1.0000 0.43265  0.37040  0.69589  Biso   1.000  C
  H2234    1.0000 0.44380  0.36970  0.68600  Biso   1.000  H
  C3632    1.0000 0.42808  0.35358  0.70891  Biso   1.000  C
  H2235    1.0000 0.43640  0.34130  0.70840  Biso   1.000  H
  C3633    1.0000 0.41140  0.35489  0.72254  Biso   1.000  C
  H2236    1.0000 0.40840  0.34310  0.73110  Biso   1.000  H
  C3634    1.0000 0.41699  0.38862  0.76763  Biso   1.000  C
  H2237    1.0000 0.41590  0.39890  0.75700  Biso   1.000  H
  C3635    1.0000 0.43460  0.38834  0.77940  Biso   1.000  C
  H2238    1.0000 0.44550  0.39810  0.77690  Biso   1.000  H
  C3636    1.0000 0.43640  0.37333  0.79530  Biso   1.000  C
  H2239    1.0000 0.44840  0.37290  0.80410  Biso   1.000  H
  C3637    1.0000 0.42016  0.35924  0.79783  Biso   1.000  C
  C3638    1.0000 0.40269  0.36085  0.78502  Biso   1.000  C
  H2240    1.0000 0.39150  0.35130  0.78700  Biso   1.000  H
  C3639    1.0000 0.42092  0.34302  0.81441  Biso   1.000  C
  C3640    1.0000 0.37389  0.32478  0.75059  Biso   1.000  C
  N1391    1.0000 0.38308  0.48525  0.65904  Biso   1.000  N
  N1392    1.0000 0.47554  0.35699  0.63715  Biso   1.000  N
  N1393    1.0000 0.48449  0.40242  0.62497  Biso   1.000  N
  N1394    1.0000 0.43909  0.40582  0.67040  Biso   1.000  N
  N1395    1.0000 0.42975  0.44029  0.66034  Biso   1.000  N
  N1396    1.0000 0.41237  0.42387  0.68887  Biso   1.000  N
  N1397    1.0000 0.39925  0.37185  0.72432  Biso   1.000  N
  N1398    1.0000 0.37324  0.34238  0.74881  Biso   1.000  N
  N1399    1.0000 0.40103  0.37524  0.77009  Biso   1.000  N
  N1400    1.0000 0.43603  0.34428  0.82831  Biso   1.000  N
  S279     1.0000 0.45537  0.32812  0.66304  Biso   1.000  S
  S280     1.0000 0.37654  0.29928  0.75216  Biso   1.000  S
  C3641    1.0000 0.35258  0.46989  0.09028  Biso   1.000  C
  H2241    1.0000 0.34440  0.46730  0.10240  Biso   1.000  H
  C3642    1.0000 0.34914  0.45750  0.07258  Biso   1.000  C
  C3643    1.0000 0.36072  0.46138  0.05477  Biso   1.000  C
  H2242    1.0000 0.35920  0.45300  0.04260  Biso   1.000  H
  C3644    1.0000 0.37482  0.47810  0.05514  Biso   1.000  C
  H2243    1.0000 0.38240  0.48180  0.04290  Biso   1.000  H
  C3645    1.0000 0.37758  0.48907  0.07314  Biso   1.000  C
  H2244    1.0000 0.38760  0.50010  0.07320  Biso   1.000  H
  C3646    1.0000 0.28338  0.34533  0.10226  Biso   1.000  C
  C3647    1.0000 0.26321  0.41843  0.13852  Biso   1.000  C
  H2245    1.0000 0.25320  0.41710  0.14940  Biso   1.000  H
  C3648    1.0000 0.27462  0.43666  0.13740  Biso   1.000  C
  H2246    1.0000 0.27200  0.44780  0.14690  Biso   1.000  H
  C3649    1.0000 0.29007  0.43858  0.12221  Biso   1.000  C
  H2247    1.0000 0.29870  0.45070  0.12160  Biso   1.000  H
  C3650    1.0000 0.29249  0.42226  0.10790  Biso   1.000  C
  C3651    1.0000 0.28001  0.40472  0.10974  Biso   1.000  C
  H2248    1.0000 0.28170  0.39380  0.09980  Biso   1.000  H
  C3652    1.0000 0.30877  0.42282  0.09132  Biso   1.000  C
  C3653    1.0000 0.33461  0.43970  0.07433  Biso   1.000  C
  C3654    1.0000 0.32589  0.40684  0.06489  Biso   1.000  C
  C3655    1.0000 0.34601  0.38822  0.03768  Biso   1.000  C
  H2249    1.0000 0.35420  0.40060  0.03630  Biso   1.000  H
  C3656    1.0000 0.32952  0.38815  0.05221  Biso   1.000  C
  C3657    1.0000 0.31735  0.37040  0.05411  Biso   1.000  C
  H2250    1.0000 0.30620  0.36970  0.06400  Biso   1.000  H
  C3658    1.0000 0.32192  0.35358  0.04109  Biso   1.000  C
  H2251    1.0000 0.31360  0.34130  0.04160  Biso   1.000  H
  C3659    1.0000 0.33860  0.35489  0.02746  Biso   1.000  C
  H2252    1.0000 0.34160  0.34310  0.01890  Biso   1.000  H
  C3660    1.0000 0.33301  0.38862  0.98237  Biso   1.000  C
  H2253    1.0000 0.33410  0.39890  0.99300  Biso   1.000  H
  C3661    1.0000 0.31540  0.38834  0.97060  Biso   1.000  C
  H2254    1.0000 0.30450  0.39810  0.97310  Biso   1.000  H
  C3662    1.0000 0.31360  0.37333  0.95470  Biso   1.000  C
  H2255    1.0000 0.30160  0.37290  0.94590  Biso   1.000  H
  C3663    1.0000 0.32984  0.35924  0.95217  Biso   1.000  C
  C3664    1.0000 0.34731  0.36085  0.96498  Biso   1.000  C
  H2256    1.0000 0.35850  0.35130  0.96300  Biso   1.000  H
  C3665    1.0000 0.32908  0.34302  0.93559  Biso   1.000  C
  C3666    1.0000 0.37611  0.32478  0.99941  Biso   1.000  C
  N1401    1.0000 0.36692  0.48525  0.09096  Biso   1.000  N
  N1402    1.0000 0.27446  0.35699  0.11285  Biso   1.000  N
  N1403    1.0000 0.26551  0.40242  0.12503  Biso   1.000  N
  N1404    1.0000 0.31091  0.40582  0.07960  Biso   1.000  N
  N1405    1.0000 0.32025  0.44029  0.08966  Biso   1.000  N
  N1406    1.0000 0.33763  0.42387  0.06113  Biso   1.000  N
  N1407    1.0000 0.35075  0.37185  0.02568  Biso   1.000  N
  N1408    1.0000 0.37676  0.34238  0.00119  Biso   1.000  N
  N1409    1.0000 0.34897  0.37524  0.97991  Biso   1.000  N
  N1410    1.0000 0.31397  0.34428  0.92169  Biso   1.000  N
  S281     1.0000 0.29463  0.32812  0.08696  Biso   1.000  S
  S282     1.0000 0.37346  0.29928  0.99784  Biso   1.000  S
  C3667    1.0000 0.35258  0.96989  0.59028  Biso   1.000  C
  H2257    1.0000 0.34440  0.96730  0.60240  Biso   1.000  H
  C3668    1.0000 0.34914  0.95750  0.57258  Biso   1.000  C
  C3669    1.0000 0.36072  0.96138  0.55477  Biso   1.000  C
  H2258    1.0000 0.35920  0.95300  0.54260  Biso   1.000  H
  C3670    1.0000 0.37482  0.97810  0.55514  Biso   1.000  C
  H2259    1.0000 0.38240  0.98180  0.54290  Biso   1.000  H
  C3671    1.0000 0.37758  0.98907  0.57314  Biso   1.000  C
  H2260    1.0000 0.38760  0.00010  0.57320  Biso   1.000  H
  C3672    1.0000 0.28338  0.84533  0.60226  Biso   1.000  C
  C3673    1.0000 0.26321  0.91843  0.63852  Biso   1.000  C
  H2261    1.0000 0.25320  0.91710  0.64940  Biso   1.000  H
  C3674    1.0000 0.27462  0.93666  0.63740  Biso   1.000  C
  H2262    1.0000 0.27200  0.94780  0.64690  Biso   1.000  H
  C3675    1.0000 0.29007  0.93858  0.62221  Biso   1.000  C
  H2263    1.0000 0.29870  0.95070  0.62160  Biso   1.000  H
  C3676    1.0000 0.29249  0.92226  0.60790  Biso   1.000  C
  C3677    1.0000 0.28001  0.90472  0.60974  Biso   1.000  C
  H2264    1.0000 0.28170  0.89380  0.59980  Biso   1.000  H
  C3678    1.0000 0.30877  0.92282  0.59132  Biso   1.000  C
  C3679    1.0000 0.33461  0.93970  0.57433  Biso   1.000  C
  C3680    1.0000 0.32589  0.90684  0.56489  Biso   1.000  C
  C3681    1.0000 0.34601  0.88822  0.53768  Biso   1.000  C
  H2265    1.0000 0.35420  0.90060  0.53630  Biso   1.000  H
  C3682    1.0000 0.32952  0.88815  0.55221  Biso   1.000  C
  C3683    1.0000 0.31735  0.87040  0.55411  Biso   1.000  C
  H2266    1.0000 0.30620  0.86970  0.56400  Biso   1.000  H
  C3684    1.0000 0.32192  0.85358  0.54109  Biso   1.000  C
  H2267    1.0000 0.31360  0.84130  0.54160  Biso   1.000  H
  C3685    1.0000 0.33860  0.85489  0.52746  Biso   1.000  C
  H2268    1.0000 0.34160  0.84310  0.51890  Biso   1.000  H
  C3686    1.0000 0.33301  0.88862  0.48237  Biso   1.000  C
  H2269    1.0000 0.33410  0.89890  0.49300  Biso   1.000  H
  C3687    1.0000 0.31540  0.88834  0.47060  Biso   1.000  C
  H2270    1.0000 0.30450  0.89810  0.47310  Biso   1.000  H
  C3688    1.0000 0.31360  0.87333  0.45470  Biso   1.000  C
  H2271    1.0000 0.30160  0.87290  0.44590  Biso   1.000  H
  C3689    1.0000 0.32984  0.85924  0.45217  Biso   1.000  C
  C3690    1.0000 0.34731  0.86085  0.46498  Biso   1.000  C
  H2272    1.0000 0.35850  0.85130  0.46300  Biso   1.000  H
  C3691    1.0000 0.32908  0.84302  0.43559  Biso   1.000  C
  C3692    1.0000 0.37611  0.82478  0.49941  Biso   1.000  C
  N1411    1.0000 0.36692  0.98525  0.59096  Biso   1.000  N
  N1412    1.0000 0.27446  0.85699  0.61285  Biso   1.000  N
  N1413    1.0000 0.26551  0.90242  0.62503  Biso   1.000  N
  N1414    1.0000 0.31091  0.90582  0.57960  Biso   1.000  N
  N1415    1.0000 0.32025  0.94029  0.58966  Biso   1.000  N
  N1416    1.0000 0.33763  0.92387  0.56113  Biso   1.000  N
  N1417    1.0000 0.35075  0.87185  0.52568  Biso   1.000  N
  N1418    1.0000 0.37676  0.84238  0.50119  Biso   1.000  N
  N1419    1.0000 0.34897  0.87524  0.47991  Biso   1.000  N
  N1420    1.0000 0.31397  0.84428  0.42169  Biso   1.000  N
  S283     1.0000 0.29463  0.82812  0.58696  Biso   1.000  S
  S284     1.0000 0.37346  0.79928  0.49784  Biso   1.000  S
  C3693    1.0000 0.85258  0.46989  0.59028  Biso   1.000  C
  H2273    1.0000 0.84440  0.46730  0.60240  Biso   1.000  H
  C3694    1.0000 0.84914  0.45750  0.57258  Biso   1.000  C
  C3695    1.0000 0.86072  0.46138  0.55477  Biso   1.000  C
  H2274    1.0000 0.85920  0.45300  0.54260  Biso   1.000  H
  C3696    1.0000 0.87482  0.47810  0.55514  Biso   1.000  C
  H2275    1.0000 0.88240  0.48180  0.54290  Biso   1.000  H
  C3697    1.0000 0.87758  0.48907  0.57314  Biso   1.000  C
  H2276    1.0000 0.88760  0.50010  0.57320  Biso   1.000  H
  C3698    1.0000 0.78338  0.34533  0.60226  Biso   1.000  C
  C3699    1.0000 0.76321  0.41843  0.63852  Biso   1.000  C
  H2277    1.0000 0.75320  0.41710  0.64940  Biso   1.000  H
  C3700    1.0000 0.77462  0.43666  0.63740  Biso   1.000  C
  H2278    1.0000 0.77200  0.44780  0.64690  Biso   1.000  H
  C3701    1.0000 0.79007  0.43858  0.62221  Biso   1.000  C
  H2279    1.0000 0.79870  0.45070  0.62160  Biso   1.000  H
  C3702    1.0000 0.79249  0.42226  0.60790  Biso   1.000  C
  C3703    1.0000 0.78001  0.40472  0.60974  Biso   1.000  C
  H2280    1.0000 0.78170  0.39380  0.59980  Biso   1.000  H
  C3704    1.0000 0.80877  0.42282  0.59132  Biso   1.000  C
  C3705    1.0000 0.83461  0.43970  0.57433  Biso   1.000  C
  C3706    1.0000 0.82589  0.40684  0.56489  Biso   1.000  C
  C3707    1.0000 0.84601  0.38822  0.53768  Biso   1.000  C
  H2281    1.0000 0.85420  0.40060  0.53630  Biso   1.000  H
  C3708    1.0000 0.82952  0.38815  0.55221  Biso   1.000  C
  C3709    1.0000 0.81735  0.37040  0.55411  Biso   1.000  C
  H2282    1.0000 0.80620  0.36970  0.56400  Biso   1.000  H
  C3710    1.0000 0.82192  0.35358  0.54109  Biso   1.000  C
  H2283    1.0000 0.81360  0.34130  0.54160  Biso   1.000  H
  C3711    1.0000 0.83860  0.35489  0.52746  Biso   1.000  C
  H2284    1.0000 0.84160  0.34310  0.51890  Biso   1.000  H
  C3712    1.0000 0.83301  0.38862  0.48237  Biso   1.000  C
  H2285    1.0000 0.83410  0.39890  0.49300  Biso   1.000  H
  C3713    1.0000 0.81540  0.38834  0.47060  Biso   1.000  C
  H2286    1.0000 0.80450  0.39810  0.47310  Biso   1.000  H
  C3714    1.0000 0.81360  0.37333  0.45470  Biso   1.000  C
  H2287    1.0000 0.80160  0.37290  0.44590  Biso   1.000  H
  C3715    1.0000 0.82984  0.35924  0.45217  Biso   1.000  C
  C3716    1.0000 0.84731  0.36085  0.46498  Biso   1.000  C
  H2288    1.0000 0.85850  0.35130  0.46300  Biso   1.000  H
  C3717    1.0000 0.82908  0.34302  0.43559  Biso   1.000  C
  C3718    1.0000 0.87611  0.32478  0.49941  Biso   1.000  C
  N1421    1.0000 0.86692  0.48525  0.59096  Biso   1.000  N
  N1422    1.0000 0.77446  0.35699  0.61285  Biso   1.000  N
  N1423    1.0000 0.76551  0.40242  0.62503  Biso   1.000  N
  N1424    1.0000 0.81091  0.40582  0.57960  Biso   1.000  N
  N1425    1.0000 0.82025  0.44029  0.58966  Biso   1.000  N
  N1426    1.0000 0.83763  0.42387  0.56113  Biso   1.000  N
  N1427    1.0000 0.85075  0.37185  0.52568  Biso   1.000  N
  N1428    1.0000 0.87676  0.34238  0.50119  Biso   1.000  N
  N1429    1.0000 0.84897  0.37524  0.47991  Biso   1.000  N
  N1430    1.0000 0.81397  0.34428  0.42169  Biso   1.000  N
  S285     1.0000 0.79463  0.32812  0.58696  Biso   1.000  S
  S286     1.0000 0.87346  0.29928  0.49784  Biso   1.000  S
  C3719    1.0000 0.85258  0.96989  0.09028  Biso   1.000  C
  H2289    1.0000 0.84440  0.96730  0.10240  Biso   1.000  H
  C3720    1.0000 0.84914  0.95750  0.07258  Biso   1.000  C
  C3721    1.0000 0.86072  0.96138  0.05477  Biso   1.000  C
  H2290    1.0000 0.85920  0.95300  0.04260  Biso   1.000  H
  C3722    1.0000 0.87482  0.97810  0.05514  Biso   1.000  C
  H2291    1.0000 0.88240  0.98180  0.04290  Biso   1.000  H
  C3723    1.0000 0.87758  0.98907  0.07314  Biso   1.000  C
  H2292    1.0000 0.88760  0.00010  0.07320  Biso   1.000  H
  C3724    1.0000 0.78338  0.84533  0.10226  Biso   1.000  C
  C3725    1.0000 0.76321  0.91843  0.13852  Biso   1.000  C
  H2293    1.0000 0.75320  0.91710  0.14940  Biso   1.000  H
  C3726    1.0000 0.77462  0.93666  0.13740  Biso   1.000  C
  H2294    1.0000 0.77200  0.94780  0.14690  Biso   1.000  H
  C3727    1.0000 0.79007  0.93858  0.12221  Biso   1.000  C
  H2295    1.0000 0.79870  0.95070  0.12160  Biso   1.000  H
  C3728    1.0000 0.79249  0.92226  0.10790  Biso   1.000  C
  C3729    1.0000 0.78001  0.90472  0.10974  Biso   1.000  C
  H2296    1.0000 0.78170  0.89380  0.09980  Biso   1.000  H
  C3730    1.0000 0.80877  0.92282  0.09132  Biso   1.000  C
  C3731    1.0000 0.83461  0.93970  0.07433  Biso   1.000  C
  C3732    1.0000 0.82589  0.90684  0.06489  Biso   1.000  C
  C3733    1.0000 0.84601  0.88822  0.03768  Biso   1.000  C
  H2297    1.0000 0.85420  0.90060  0.03630  Biso   1.000  H
  C3734    1.0000 0.82952  0.88815  0.05221  Biso   1.000  C
  C3735    1.0000 0.81735  0.87040  0.05411  Biso   1.000  C
  H2298    1.0000 0.80620  0.86970  0.06400  Biso   1.000  H
  C3736    1.0000 0.82192  0.85358  0.04109  Biso   1.000  C
  H2299    1.0000 0.81360  0.84130  0.04160  Biso   1.000  H
  C3737    1.0000 0.83860  0.85489  0.02746  Biso   1.000  C
  H2300    1.0000 0.84160  0.84310  0.01890  Biso   1.000  H
  C3738    1.0000 0.83301  0.88862  0.98237  Biso   1.000  C
  H2301    1.0000 0.83410  0.89890  0.99300  Biso   1.000  H
  C3739    1.0000 0.81540  0.88834  0.97060  Biso   1.000  C
  H2302    1.0000 0.80450  0.89810  0.97310  Biso   1.000  H
  C3740    1.0000 0.81360  0.87333  0.95470  Biso   1.000  C
  H2303    1.0000 0.80160  0.87290  0.94590  Biso   1.000  H
  C3741    1.0000 0.82984  0.85924  0.95217  Biso   1.000  C
  C3742    1.0000 0.84731  0.86085  0.96498  Biso   1.000  C
  H2304    1.0000 0.85850  0.85130  0.96300  Biso   1.000  H
  C3743    1.0000 0.82908  0.84302  0.93559  Biso   1.000  C
  C3744    1.0000 0.87611  0.82478  0.99941  Biso   1.000  C
  N1431    1.0000 0.86692  0.98525  0.09096  Biso   1.000  N
  N1432    1.0000 0.77446  0.85699  0.11285  Biso   1.000  N
  N1433    1.0000 0.76551  0.90242  0.12503  Biso   1.000  N
  N1434    1.0000 0.81091  0.90582  0.07960  Biso   1.000  N
  N1435    1.0000 0.82025  0.94029  0.08966  Biso   1.000  N
  N1436    1.0000 0.83763  0.92387  0.06113  Biso   1.000  N
  N1437    1.0000 0.85075  0.87185  0.02568  Biso   1.000  N
  N1438    1.0000 0.87676  0.84238  0.00119  Biso   1.000  N
  N1439    1.0000 0.84897  0.87524  0.97991  Biso   1.000  N
  N1440    1.0000 0.81397  0.84428  0.92169  Biso   1.000  N
  S287     1.0000 0.79463  0.82812  0.08696  Biso   1.000  S
  S288     1.0000 0.87346  0.79928  0.99784  Biso   1.000  S
  C3745    1.0000 0.64742  0.34028  0.21989  Biso   1.000  C
  H2305    1.0000 0.65560  0.35240  0.21730  Biso   1.000  H
  C3746    1.0000 0.65086  0.32258  0.20750  Biso   1.000  C
  C3747    1.0000 0.63928  0.30477  0.21138  Biso   1.000  C
  H2306    1.0000 0.64080  0.29260  0.20300  Biso   1.000  H
  C3748    1.0000 0.62518  0.30514  0.22810  Biso   1.000  C
  H2307    1.0000 0.61760  0.29290  0.23180  Biso   1.000  H
  C3749    1.0000 0.62242  0.32314  0.23907  Biso   1.000  C
  H2308    1.0000 0.61240  0.32320  0.25010  Biso   1.000  H
  C3750    1.0000 0.71662  0.35226  0.09533  Biso   1.000  C
  C3751    1.0000 0.73679  0.38852  0.16843  Biso   1.000  C
  H2309    1.0000 0.74680  0.39940  0.16710  Biso   1.000  H
  C3752    1.0000 0.72538  0.38740  0.18666  Biso   1.000  C
  H2310    1.0000 0.72800  0.39690  0.19780  Biso   1.000  H
  C3753    1.0000 0.70993  0.37221  0.18858  Biso   1.000  C
  H2311    1.0000 0.70130  0.37160  0.20070  Biso   1.000  H
  C3754    1.0000 0.70751  0.35790  0.17226  Biso   1.000  C
  C3755    1.0000 0.71999  0.35974  0.15472  Biso   1.000  C
  H2312    1.0000 0.71830  0.34980  0.14380  Biso   1.000  H
  C3756    1.0000 0.69123  0.34132  0.17282  Biso   1.000  C
  C3757    1.0000 0.66539  0.32433  0.18970  Biso   1.000  C
  C3758    1.0000 0.67411  0.31489  0.15684  Biso   1.000  C
  C3759    1.0000 0.65399  0.28768  0.13822  Biso   1.000  C
  H2313    1.0000 0.64580  0.28630  0.15060  Biso   1.000  H
  C3760    1.0000 0.67048  0.30221  0.13815  Biso   1.000  C
  C3761    1.0000 0.68265  0.30411  0.12040  Biso   1.000  C
  H2314    1.0000 0.69380  0.31400  0.11970  Biso   1.000  H
  C3762    1.0000 0.67808  0.29109  0.10358  Biso   1.000  C
  H2315    1.0000 0.68640  0.29160  0.09130  Biso   1.000  H
  C3763    1.0000 0.66140  0.27746  0.10489  Biso   1.000  C
  H2316    1.0000 0.65840  0.26890  0.09310  Biso   1.000  H
  C3764    1.0000 0.66699  0.23237  0.13862  Biso   1.000  C
  H2317    1.0000 0.66590  0.24300  0.14890  Biso   1.000  H
  C3765    1.0000 0.68460  0.22060  0.13834  Biso   1.000  C
  H2318    1.0000 0.69550  0.22310  0.14810  Biso   1.000  H
  C3766    1.0000 0.68640  0.20470  0.12333  Biso   1.000  C
  H2319    1.0000 0.69840  0.19590  0.12290  Biso   1.000  H
  C3767    1.0000 0.67016  0.20217  0.10924  Biso   1.000  C
  C3768    1.0000 0.65269  0.21498  0.11085  Biso   1.000  C
  H2320    1.0000 0.64150  0.21300  0.10130  Biso   1.000  H
  C3769    1.0000 0.67092  0.18559  0.09302  Biso   1.000  C
  C3770    1.0000 0.62389  0.24941  0.07478  Biso   1.000  C
  N1441    1.0000 0.63308  0.34096  0.23525  Biso   1.000  N
  N1442    1.0000 0.72554  0.36285  0.10699  Biso   1.000  N
  N1443    1.0000 0.73449  0.37503  0.15242  Biso   1.000  N
  N1444    1.0000 0.68909  0.32960  0.15582  Biso   1.000  N
  N1445    1.0000 0.67975  0.33966  0.19029  Biso   1.000  N
  N1446    1.0000 0.66237  0.31113  0.17387  Biso   1.000  N
  N1447    1.0000 0.64925  0.27568  0.12185  Biso   1.000  N
  N1448    1.0000 0.62324  0.25119  0.09238  Biso   1.000  N
  N1449    1.0000 0.65103  0.22991  0.12524  Biso   1.000  N
  N1450    1.0000 0.68603  0.17169  0.09428  Biso   1.000  N
  S289     1.0000 0.70537  0.33696  0.07812  Biso   1.000  S
  S290     1.0000 0.62654  0.24784  0.04928  Biso   1.000  S
  C3771    1.0000 0.64742  0.84028  0.71989  Biso   1.000  C
  H2321    1.0000 0.65560  0.85240  0.71730  Biso   1.000  H
  C3772    1.0000 0.65086  0.82258  0.70750  Biso   1.000  C
  C3773    1.0000 0.63928  0.80477  0.71138  Biso   1.000  C
  H2322    1.0000 0.64080  0.79260  0.70300  Biso   1.000  H
  C3774    1.0000 0.62518  0.80514  0.72810  Biso   1.000  C
  H2323    1.0000 0.61760  0.79290  0.73180  Biso   1.000  H
  C3775    1.0000 0.62242  0.82314  0.73907  Biso   1.000  C
  H2324    1.0000 0.61240  0.82320  0.75010  Biso   1.000  H
  C3776    1.0000 0.71662  0.85226  0.59533  Biso   1.000  C
  C3777    1.0000 0.73679  0.88852  0.66843  Biso   1.000  C
  H2325    1.0000 0.74680  0.89940  0.66710  Biso   1.000  H
  C3778    1.0000 0.72538  0.88740  0.68666  Biso   1.000  C
  H2326    1.0000 0.72800  0.89690  0.69780  Biso   1.000  H
  C3779    1.0000 0.70993  0.87221  0.68858  Biso   1.000  C
  H2327    1.0000 0.70130  0.87160  0.70070  Biso   1.000  H
  C3780    1.0000 0.70751  0.85790  0.67226  Biso   1.000  C
  C3781    1.0000 0.71999  0.85974  0.65472  Biso   1.000  C
  H2328    1.0000 0.71830  0.84980  0.64380  Biso   1.000  H
  C3782    1.0000 0.69123  0.84132  0.67282  Biso   1.000  C
  C3783    1.0000 0.66539  0.82433  0.68970  Biso   1.000  C
  C3784    1.0000 0.67411  0.81489  0.65684  Biso   1.000  C
  C3785    1.0000 0.65399  0.78768  0.63822  Biso   1.000  C
  H2329    1.0000 0.64580  0.78630  0.65060  Biso   1.000  H
  C3786    1.0000 0.67048  0.80221  0.63815  Biso   1.000  C
  C3787    1.0000 0.68265  0.80411  0.62040  Biso   1.000  C
  H2330    1.0000 0.69380  0.81400  0.61970  Biso   1.000  H
  C3788    1.0000 0.67808  0.79109  0.60358  Biso   1.000  C
  H2331    1.0000 0.68640  0.79160  0.59130  Biso   1.000  H
  C3789    1.0000 0.66140  0.77746  0.60489  Biso   1.000  C
  H2332    1.0000 0.65840  0.76890  0.59310  Biso   1.000  H
  C3790    1.0000 0.66699  0.73237  0.63862  Biso   1.000  C
  H2333    1.0000 0.66590  0.74300  0.64890  Biso   1.000  H
  C3791    1.0000 0.68460  0.72060  0.63834  Biso   1.000  C
  H2334    1.0000 0.69550  0.72310  0.64810  Biso   1.000  H
  C3792    1.0000 0.68640  0.70470  0.62333  Biso   1.000  C
  H2335    1.0000 0.69840  0.69590  0.62290  Biso   1.000  H
  C3793    1.0000 0.67016  0.70217  0.60924  Biso   1.000  C
  C3794    1.0000 0.65269  0.71498  0.61085  Biso   1.000  C
  H2336    1.0000 0.64150  0.71300  0.60130  Biso   1.000  H
  C3795    1.0000 0.67092  0.68559  0.59302  Biso   1.000  C
  C3796    1.0000 0.62389  0.74941  0.57478  Biso   1.000  C
  N1451    1.0000 0.63308  0.84096  0.73525  Biso   1.000  N
  N1452    1.0000 0.72554  0.86285  0.60699  Biso   1.000  N
  N1453    1.0000 0.73449  0.87503  0.65242  Biso   1.000  N
  N1454    1.0000 0.68909  0.82960  0.65582  Biso   1.000  N
  N1455    1.0000 0.67975  0.83966  0.69029  Biso   1.000  N
  N1456    1.0000 0.66237  0.81113  0.67387  Biso   1.000  N
  N1457    1.0000 0.64925  0.77568  0.62185  Biso   1.000  N
  N1458    1.0000 0.62324  0.75119  0.59238  Biso   1.000  N
  N1459    1.0000 0.65103  0.72991  0.62524  Biso   1.000  N
  N1460    1.0000 0.68603  0.67169  0.59428  Biso   1.000  N
  S291     1.0000 0.70537  0.83696  0.57812  Biso   1.000  S
  S292     1.0000 0.62654  0.74784  0.54928  Biso   1.000  S
  C3797    1.0000 0.14742  0.34028  0.71989  Biso   1.000  C
  H2337    1.0000 0.15560  0.35240  0.71730  Biso   1.000  H
  C3798    1.0000 0.15086  0.32258  0.70750  Biso   1.000  C
  C3799    1.0000 0.13928  0.30477  0.71138  Biso   1.000  C
  H2338    1.0000 0.14080  0.29260  0.70300  Biso   1.000  H
  C3800    1.0000 0.12518  0.30514  0.72810  Biso   1.000  C
  H2339    1.0000 0.11760  0.29290  0.73180  Biso   1.000  H
  C3801    1.0000 0.12242  0.32314  0.73907  Biso   1.000  C
  H2340    1.0000 0.11240  0.32320  0.75010  Biso   1.000  H
  C3802    1.0000 0.21662  0.35226  0.59533  Biso   1.000  C
  C3803    1.0000 0.23679  0.38852  0.66843  Biso   1.000  C
  H2341    1.0000 0.24680  0.39940  0.66710  Biso   1.000  H
  C3804    1.0000 0.22538  0.38740  0.68666  Biso   1.000  C
  H2342    1.0000 0.22800  0.39690  0.69780  Biso   1.000  H
  C3805    1.0000 0.20993  0.37221  0.68858  Biso   1.000  C
  H2343    1.0000 0.20130  0.37160  0.70070  Biso   1.000  H
  C3806    1.0000 0.20751  0.35790  0.67226  Biso   1.000  C
  C3807    1.0000 0.21999  0.35974  0.65472  Biso   1.000  C
  H2344    1.0000 0.21830  0.34980  0.64380  Biso   1.000  H
  C3808    1.0000 0.19123  0.34132  0.67282  Biso   1.000  C
  C3809    1.0000 0.16539  0.32433  0.68970  Biso   1.000  C
  C3810    1.0000 0.17411  0.31489  0.65684  Biso   1.000  C
  C3811    1.0000 0.15399  0.28768  0.63822  Biso   1.000  C
  H2345    1.0000 0.14580  0.28630  0.65060  Biso   1.000  H
  C3812    1.0000 0.17048  0.30221  0.63815  Biso   1.000  C
  C3813    1.0000 0.18265  0.30411  0.62040  Biso   1.000  C
  H2346    1.0000 0.19380  0.31400  0.61970  Biso   1.000  H
  C3814    1.0000 0.17808  0.29109  0.60358  Biso   1.000  C
  H2347    1.0000 0.18640  0.29160  0.59130  Biso   1.000  H
  C3815    1.0000 0.16140  0.27746  0.60489  Biso   1.000  C
  H2348    1.0000 0.15840  0.26890  0.59310  Biso   1.000  H
  C3816    1.0000 0.16699  0.23237  0.63862  Biso   1.000  C
  H2349    1.0000 0.16590  0.24300  0.64890  Biso   1.000  H
  C3817    1.0000 0.18460  0.22060  0.63834  Biso   1.000  C
  H2350    1.0000 0.19550  0.22310  0.64810  Biso   1.000  H
  C3818    1.0000 0.18640  0.20470  0.62333  Biso   1.000  C
  H2351    1.0000 0.19840  0.19590  0.62290  Biso   1.000  H
  C3819    1.0000 0.17016  0.20217  0.60924  Biso   1.000  C
  C3820    1.0000 0.15269  0.21498  0.61085  Biso   1.000  C
  H2352    1.0000 0.14150  0.21300  0.60130  Biso   1.000  H
  C3821    1.0000 0.17092  0.18559  0.59302  Biso   1.000  C
  C3822    1.0000 0.12389  0.24941  0.57478  Biso   1.000  C
  N1461    1.0000 0.13308  0.34096  0.73525  Biso   1.000  N
  N1462    1.0000 0.22554  0.36285  0.60699  Biso   1.000  N
  N1463    1.0000 0.23449  0.37503  0.65242  Biso   1.000  N
  N1464    1.0000 0.18909  0.32960  0.65582  Biso   1.000  N
  N1465    1.0000 0.17975  0.33966  0.69029  Biso   1.000  N
  N1466    1.0000 0.16237  0.31113  0.67387  Biso   1.000  N
  N1467    1.0000 0.14925  0.27568  0.62185  Biso   1.000  N
  N1468    1.0000 0.12324  0.25119  0.59238  Biso   1.000  N
  N1469    1.0000 0.15103  0.22991  0.62524  Biso   1.000  N
  N1470    1.0000 0.18603  0.17169  0.59428  Biso   1.000  N
  S293     1.0000 0.20537  0.33696  0.57812  Biso   1.000  S
  S294     1.0000 0.12654  0.24784  0.54928  Biso   1.000  S
  C3823    1.0000 0.14742  0.84028  0.21989  Biso   1.000  C
  H2353    1.0000 0.15560  0.85240  0.21730  Biso   1.000  H
  C3824    1.0000 0.15086  0.82258  0.20750  Biso   1.000  C
  C3825    1.0000 0.13928  0.80477  0.21138  Biso   1.000  C
  H2354    1.0000 0.14080  0.79260  0.20300  Biso   1.000  H
  C3826    1.0000 0.12518  0.80514  0.22810  Biso   1.000  C
  H2355    1.0000 0.11760  0.79290  0.23180  Biso   1.000  H
  C3827    1.0000 0.12242  0.82314  0.23907  Biso   1.000  C
  H2356    1.0000 0.11240  0.82320  0.25010  Biso   1.000  H
  C3828    1.0000 0.21662  0.85226  0.09533  Biso   1.000  C
  C3829    1.0000 0.23679  0.88852  0.16843  Biso   1.000  C
  H2357    1.0000 0.24680  0.89940  0.16710  Biso   1.000  H
  C3830    1.0000 0.22538  0.88740  0.18666  Biso   1.000  C
  H2358    1.0000 0.22800  0.89690  0.19780  Biso   1.000  H
  C3831    1.0000 0.20993  0.87221  0.18858  Biso   1.000  C
  H2359    1.0000 0.20130  0.87160  0.20070  Biso   1.000  H
  C3832    1.0000 0.20751  0.85790  0.17226  Biso   1.000  C
  C3833    1.0000 0.21999  0.85974  0.15472  Biso   1.000  C
  H2360    1.0000 0.21830  0.84980  0.14380  Biso   1.000  H
  C3834    1.0000 0.19123  0.84132  0.17282  Biso   1.000  C
  C3835    1.0000 0.16539  0.82433  0.18970  Biso   1.000  C
  C3836    1.0000 0.17411  0.81489  0.15684  Biso   1.000  C
  C3837    1.0000 0.15399  0.78768  0.13822  Biso   1.000  C
  H2361    1.0000 0.14580  0.78630  0.15060  Biso   1.000  H
  C3838    1.0000 0.17048  0.80221  0.13815  Biso   1.000  C
  C3839    1.0000 0.18265  0.80411  0.12040  Biso   1.000  C
  H2362    1.0000 0.19380  0.81400  0.11970  Biso   1.000  H
  C3840    1.0000 0.17808  0.79109  0.10358  Biso   1.000  C
  H2363    1.0000 0.18640  0.79160  0.09130  Biso   1.000  H
  C3841    1.0000 0.16140  0.77746  0.10489  Biso   1.000  C
  H2364    1.0000 0.15840  0.76890  0.09310  Biso   1.000  H
  C3842    1.0000 0.16699  0.73237  0.13862  Biso   1.000  C
  H2365    1.0000 0.16590  0.74300  0.14890  Biso   1.000  H
  C3843    1.0000 0.18460  0.72060  0.13834  Biso   1.000  C
  H2366    1.0000 0.19550  0.72310  0.14810  Biso   1.000  H
  C3844    1.0000 0.18640  0.70470  0.12333  Biso   1.000  C
  H2367    1.0000 0.19840  0.69590  0.12290  Biso   1.000  H
  C3845    1.0000 0.17016  0.70217  0.10924  Biso   1.000  C
  C3846    1.0000 0.15269  0.71498  0.11085  Biso   1.000  C
  H2368    1.0000 0.14150  0.71300  0.10130  Biso   1.000  H
  C3847    1.0000 0.17092  0.68559  0.09302  Biso   1.000  C
  C3848    1.0000 0.12389  0.74941  0.07478  Biso   1.000  C
  N1471    1.0000 0.13308  0.84096  0.23525  Biso   1.000  N
  N1472    1.0000 0.22554  0.86285  0.10699  Biso   1.000  N
  N1473    1.0000 0.23449  0.87503  0.15242  Biso   1.000  N
  N1474    1.0000 0.18909  0.82960  0.15582  Biso   1.000  N
  N1475    1.0000 0.17975  0.83966  0.19029  Biso   1.000  N
  N1476    1.0000 0.16237  0.81113  0.17387  Biso   1.000  N
  N1477    1.0000 0.14925  0.77568  0.12185  Biso   1.000  N
  N1478    1.0000 0.12324  0.75119  0.09238  Biso   1.000  N
  N1479    1.0000 0.15103  0.72991  0.12524  Biso   1.000  N
  N1480    1.0000 0.18603  0.67169  0.09428  Biso   1.000  N
  S295     1.0000 0.20537  0.83696  0.07812  Biso   1.000  S
  S296     1.0000 0.12654  0.74784  0.04928  Biso   1.000  S
  C3849    1.0000 0.10258  0.90972  0.71989  Biso   1.000  C
  H2369    1.0000 0.09440  0.89760  0.71730  Biso   1.000  H
  C3850    1.0000 0.09914  0.92742  0.70750  Biso   1.000  C
  C3851    1.0000 0.11072  0.94523  0.71138  Biso   1.000  C
  H2370    1.0000 0.10920  0.95740  0.70300  Biso   1.000  H
  C3852    1.0000 0.12482  0.94486  0.72810  Biso   1.000  C
  H2371    1.0000 0.13240  0.95710  0.73180  Biso   1.000  H
  C3853    1.0000 0.12758  0.92686  0.73907  Biso   1.000  C
  H2372    1.0000 0.13760  0.92680  0.75010  Biso   1.000  H
  C3854    1.0000 0.03338  0.89774  0.59533  Biso   1.000  C
  C3855    1.0000 0.01321  0.86148  0.66843  Biso   1.000  C
  H2373    1.0000 0.00320  0.85060  0.66710  Biso   1.000  H
  C3856    1.0000 0.02462  0.86260  0.68666  Biso   1.000  C
  H2374    1.0000 0.02200  0.85310  0.69780  Biso   1.000  H
  C3857    1.0000 0.04007  0.87779  0.68858  Biso   1.000  C
  H2375    1.0000 0.04870  0.87840  0.70070  Biso   1.000  H
  C3858    1.0000 0.04249  0.89210  0.67226  Biso   1.000  C
  C3859    1.0000 0.03001  0.89026  0.65472  Biso   1.000  C
  H2376    1.0000 0.03170  0.90020  0.64380  Biso   1.000  H
  C3860    1.0000 0.05877  0.90868  0.67282  Biso   1.000  C
  C3861    1.0000 0.08461  0.92567  0.68970  Biso   1.000  C
  C3862    1.0000 0.07589  0.93511  0.65684  Biso   1.000  C
  C3863    1.0000 0.09601  0.96232  0.63822  Biso   1.000  C
  H2377    1.0000 0.10420  0.96370  0.65060  Biso   1.000  H
  C3864    1.0000 0.07952  0.94779  0.63815  Biso   1.000  C
  C3865    1.0000 0.06735  0.94589  0.62040  Biso   1.000  C
  H2378    1.0000 0.05620  0.93600  0.61970  Biso   1.000  H
  C3866    1.0000 0.07192  0.95891  0.60358  Biso   1.000  C
  H2379    1.0000 0.06360  0.95840  0.59130  Biso   1.000  H
  C3867    1.0000 0.08860  0.97254  0.60489  Biso   1.000  C
  H2380    1.0000 0.09160  0.98110  0.59310  Biso   1.000  H
  C3868    1.0000 0.08301  0.01763  0.63862  Biso   1.000  C
  H2381    1.0000 0.08410  0.00700  0.64890  Biso   1.000  H
  C3869    1.0000 0.06540  0.02940  0.63834  Biso   1.000  C
  H2382    1.0000 0.05450  0.02690  0.64810  Biso   1.000  H
  C3870    1.0000 0.06360  0.04530  0.62333  Biso   1.000  C
  H2383    1.0000 0.05160  0.05410  0.62290  Biso   1.000  H
  C3871    1.0000 0.07984  0.04783  0.60924  Biso   1.000  C
  C3872    1.0000 0.09731  0.03502  0.61085  Biso   1.000  C
  H2384    1.0000 0.10850  0.03700  0.60130  Biso   1.000  H
  C3873    1.0000 0.07908  0.06441  0.59302  Biso   1.000  C
  C3874    1.0000 0.12611  0.00059  0.57478  Biso   1.000  C
  N1481    1.0000 0.11692  0.90904  0.73525  Biso   1.000  N
  N1482    1.0000 0.02446  0.88715  0.60699  Biso   1.000  N
  N1483    1.0000 0.01551  0.87497  0.65242  Biso   1.000  N
  N1484    1.0000 0.06091  0.92040  0.65582  Biso   1.000  N
  N1485    1.0000 0.07025  0.91034  0.69029  Biso   1.000  N
  N1486    1.0000 0.08763  0.93887  0.67387  Biso   1.000  N
  N1487    1.0000 0.10075  0.97432  0.62185  Biso   1.000  N
  N1488    1.0000 0.12676  0.99881  0.59238  Biso   1.000  N
  N1489    1.0000 0.09897  0.02009  0.62524  Biso   1.000  N
  N1490    1.0000 0.06397  0.07831  0.59428  Biso   1.000  N
  S297     1.0000 0.04463  0.91304  0.57812  Biso   1.000  S
  S298     1.0000 0.12346  0.00216  0.54928  Biso   1.000  S
  C3875    1.0000 0.10258  0.40972  0.21989  Biso   1.000  C
  H2385    1.0000 0.09440  0.39760  0.21730  Biso   1.000  H
  C3876    1.0000 0.09914  0.42742  0.20750  Biso   1.000  C
  C3877    1.0000 0.11072  0.44523  0.21138  Biso   1.000  C
  H2386    1.0000 0.10920  0.45740  0.20300  Biso   1.000  H
  C3878    1.0000 0.12482  0.44486  0.22810  Biso   1.000  C
  H2387    1.0000 0.13240  0.45710  0.23180  Biso   1.000  H
  C3879    1.0000 0.12758  0.42686  0.23907  Biso   1.000  C
  H2388    1.0000 0.13760  0.42680  0.25010  Biso   1.000  H
  C3880    1.0000 0.03338  0.39774  0.09533  Biso   1.000  C
  C3881    1.0000 0.01321  0.36148  0.16843  Biso   1.000  C
  H2389    1.0000 0.00320  0.35060  0.16710  Biso   1.000  H
  C3882    1.0000 0.02462  0.36260  0.18666  Biso   1.000  C
  H2390    1.0000 0.02200  0.35310  0.19780  Biso   1.000  H
  C3883    1.0000 0.04007  0.37779  0.18858  Biso   1.000  C
  H2391    1.0000 0.04870  0.37840  0.20070  Biso   1.000  H
  C3884    1.0000 0.04249  0.39210  0.17226  Biso   1.000  C
  C3885    1.0000 0.03001  0.39026  0.15472  Biso   1.000  C
  H2392    1.0000 0.03170  0.40020  0.14380  Biso   1.000  H
  C3886    1.0000 0.05877  0.40868  0.17282  Biso   1.000  C
  C3887    1.0000 0.08461  0.42567  0.18970  Biso   1.000  C
  C3888    1.0000 0.07589  0.43511  0.15684  Biso   1.000  C
  C3889    1.0000 0.09601  0.46232  0.13822  Biso   1.000  C
  H2393    1.0000 0.10420  0.46370  0.15060  Biso   1.000  H
  C3890    1.0000 0.07952  0.44779  0.13815  Biso   1.000  C
  C3891    1.0000 0.06735  0.44589  0.12040  Biso   1.000  C
  H2394    1.0000 0.05620  0.43600  0.11970  Biso   1.000  H
  C3892    1.0000 0.07192  0.45891  0.10358  Biso   1.000  C
  H2395    1.0000 0.06360  0.45840  0.09130  Biso   1.000  H
  C3893    1.0000 0.08860  0.47254  0.10489  Biso   1.000  C
  H2396    1.0000 0.09160  0.48110  0.09310  Biso   1.000  H
  C3894    1.0000 0.08301  0.51763  0.13862  Biso   1.000  C
  H2397    1.0000 0.08410  0.50700  0.14890  Biso   1.000  H
  C3895    1.0000 0.06540  0.52940  0.13834  Biso   1.000  C
  H2398    1.0000 0.05450  0.52690  0.14810  Biso   1.000  H
  C3896    1.0000 0.06360  0.54530  0.12333  Biso   1.000  C
  H2399    1.0000 0.05160  0.55410  0.12290  Biso   1.000  H
  C3897    1.0000 0.07984  0.54783  0.10924  Biso   1.000  C
  C3898    1.0000 0.09731  0.53502  0.11085  Biso   1.000  C
  H2400    1.0000 0.10850  0.53700  0.10130  Biso   1.000  H
  C3899    1.0000 0.07908  0.56441  0.09302  Biso   1.000  C
  C3900    1.0000 0.12611  0.50059  0.07478  Biso   1.000  C
  N1491    1.0000 0.11692  0.40904  0.23525  Biso   1.000  N
  N1492    1.0000 0.02446  0.38715  0.10699  Biso   1.000  N
  N1493    1.0000 0.01551  0.37497  0.15242  Biso   1.000  N
  N1494    1.0000 0.06091  0.42040  0.15582  Biso   1.000  N
  N1495    1.0000 0.07025  0.41034  0.19029  Biso   1.000  N
  N1496    1.0000 0.08763  0.43887  0.17387  Biso   1.000  N
  N1497    1.0000 0.10075  0.47432  0.12185  Biso   1.000  N
  N1498    1.0000 0.12676  0.49881  0.09238  Biso   1.000  N
  N1499    1.0000 0.09897  0.52009  0.12524  Biso   1.000  N
  N1500    1.0000 0.06397  0.57831  0.09428  Biso   1.000  N
  S299     1.0000 0.04463  0.41304  0.07812  Biso   1.000  S
  S300     1.0000 0.12346  0.50216  0.04928  Biso   1.000  S
  C3901    1.0000 0.60258  0.90972  0.21989  Biso   1.000  C
  H2401    1.0000 0.59440  0.89760  0.21730  Biso   1.000  H
  C3902    1.0000 0.59914  0.92742  0.20750  Biso   1.000  C
  C3903    1.0000 0.61072  0.94523  0.21138  Biso   1.000  C
  H2402    1.0000 0.60920  0.95740  0.20300  Biso   1.000  H
  C3904    1.0000 0.62482  0.94486  0.22810  Biso   1.000  C
  H2403    1.0000 0.63240  0.95710  0.23180  Biso   1.000  H
  C3905    1.0000 0.62758  0.92686  0.23907  Biso   1.000  C
  H2404    1.0000 0.63760  0.92680  0.25010  Biso   1.000  H
  C3906    1.0000 0.53338  0.89774  0.09533  Biso   1.000  C
  C3907    1.0000 0.51321  0.86148  0.16843  Biso   1.000  C
  H2405    1.0000 0.50320  0.85060  0.16710  Biso   1.000  H
  C3908    1.0000 0.52462  0.86260  0.18666  Biso   1.000  C
  H2406    1.0000 0.52200  0.85310  0.19780  Biso   1.000  H
  C3909    1.0000 0.54007  0.87779  0.18858  Biso   1.000  C
  H2407    1.0000 0.54870  0.87840  0.20070  Biso   1.000  H
  C3910    1.0000 0.54249  0.89210  0.17226  Biso   1.000  C
  C3911    1.0000 0.53001  0.89026  0.15472  Biso   1.000  C
  H2408    1.0000 0.53170  0.90020  0.14380  Biso   1.000  H
  C3912    1.0000 0.55877  0.90868  0.17282  Biso   1.000  C
  C3913    1.0000 0.58461  0.92567  0.18970  Biso   1.000  C
  C3914    1.0000 0.57589  0.93511  0.15684  Biso   1.000  C
  C3915    1.0000 0.59601  0.96232  0.13822  Biso   1.000  C
  H2409    1.0000 0.60420  0.96370  0.15060  Biso   1.000  H
  C3916    1.0000 0.57952  0.94779  0.13815  Biso   1.000  C
  C3917    1.0000 0.56735  0.94589  0.12040  Biso   1.000  C
  H2410    1.0000 0.55620  0.93600  0.11970  Biso   1.000  H
  C3918    1.0000 0.57192  0.95891  0.10358  Biso   1.000  C
  H2411    1.0000 0.56360  0.95840  0.09130  Biso   1.000  H
  C3919    1.0000 0.58860  0.97254  0.10489  Biso   1.000  C
  H2412    1.0000 0.59160  0.98110  0.09310  Biso   1.000  H
  C3920    1.0000 0.58301  0.01763  0.13862  Biso   1.000  C
  H2413    1.0000 0.58410  0.00700  0.14890  Biso   1.000  H
  C3921    1.0000 0.56540  0.02940  0.13834  Biso   1.000  C
  H2414    1.0000 0.55450  0.02690  0.14810  Biso   1.000  H
  C3922    1.0000 0.56360  0.04530  0.12333  Biso   1.000  C
  H2415    1.0000 0.55160  0.05410  0.12290  Biso   1.000  H
  C3923    1.0000 0.57984  0.04783  0.10924  Biso   1.000  C
  C3924    1.0000 0.59731  0.03502  0.11085  Biso   1.000  C
  H2416    1.0000 0.60850  0.03700  0.10130  Biso   1.000  H
  C3925    1.0000 0.57908  0.06441  0.09302  Biso   1.000  C
  C3926    1.0000 0.62611  0.00059  0.07478  Biso   1.000  C
  N1501    1.0000 0.61692  0.90904  0.23525  Biso   1.000  N
  N1502    1.0000 0.52446  0.88715  0.10699  Biso   1.000  N
  N1503    1.0000 0.51551  0.87497  0.15242  Biso   1.000  N
  N1504    1.0000 0.56091  0.92040  0.15582  Biso   1.000  N
  N1505    1.0000 0.57025  0.91034  0.19029  Biso   1.000  N
  N1506    1.0000 0.58763  0.93887  0.17387  Biso   1.000  N
  N1507    1.0000 0.60075  0.97432  0.12185  Biso   1.000  N
  N1508    1.0000 0.62676  0.99881  0.09238  Biso   1.000  N
  N1509    1.0000 0.59897  0.02009  0.12524  Biso   1.000  N
  N1510    1.0000 0.56397  0.07831  0.09428  Biso   1.000  N
  S301     1.0000 0.54463  0.91304  0.07812  Biso   1.000  S
  S302     1.0000 0.62346  0.00216  0.04928  Biso   1.000  S
  C3927    1.0000 0.60258  0.40972  0.71989  Biso   1.000  C
  H2417    1.0000 0.59440  0.39760  0.71730  Biso   1.000  H
  C3928    1.0000 0.59914  0.42742  0.70750  Biso   1.000  C
  C3929    1.0000 0.61072  0.44523  0.71138  Biso   1.000  C
  H2418    1.0000 0.60920  0.45740  0.70300  Biso   1.000  H
  C3930    1.0000 0.62482  0.44486  0.72810  Biso   1.000  C
  H2419    1.0000 0.63240  0.45710  0.73180  Biso   1.000  H
  C3931    1.0000 0.62758  0.42686  0.73907  Biso   1.000  C
  H2420    1.0000 0.63760  0.42680  0.75010  Biso   1.000  H
  C3932    1.0000 0.53338  0.39774  0.59533  Biso   1.000  C
  C3933    1.0000 0.51321  0.36148  0.66843  Biso   1.000  C
  H2421    1.0000 0.50320  0.35060  0.66710  Biso   1.000  H
  C3934    1.0000 0.52462  0.36260  0.68666  Biso   1.000  C
  H2422    1.0000 0.52200  0.35310  0.69780  Biso   1.000  H
  C3935    1.0000 0.54007  0.37779  0.68858  Biso   1.000  C
  H2423    1.0000 0.54870  0.37840  0.70070  Biso   1.000  H
  C3936    1.0000 0.54249  0.39210  0.67226  Biso   1.000  C
  C3937    1.0000 0.53001  0.39026  0.65472  Biso   1.000  C
  H2424    1.0000 0.53170  0.40020  0.64380  Biso   1.000  H
  C3938    1.0000 0.55877  0.40868  0.67282  Biso   1.000  C
  C3939    1.0000 0.58461  0.42567  0.68970  Biso   1.000  C
  C3940    1.0000 0.57589  0.43511  0.65684  Biso   1.000  C
  C3941    1.0000 0.59601  0.46232  0.63822  Biso   1.000  C
  H2425    1.0000 0.60420  0.46370  0.65060  Biso   1.000  H
  C3942    1.0000 0.57952  0.44779  0.63815  Biso   1.000  C
  C3943    1.0000 0.56735  0.44589  0.62040  Biso   1.000  C
  H2426    1.0000 0.55620  0.43600  0.61970  Biso   1.000  H
  C3944    1.0000 0.57192  0.45891  0.60358  Biso   1.000  C
  H2427    1.0000 0.56360  0.45840  0.59130  Biso   1.000  H
  C3945    1.0000 0.58860  0.47254  0.60489  Biso   1.000  C
  H2428    1.0000 0.59160  0.48110  0.59310  Biso   1.000  H
  C3946    1.0000 0.58301  0.51763  0.63862  Biso   1.000  C
  H2429    1.0000 0.58410  0.50700  0.64890  Biso   1.000  H
  C3947    1.0000 0.56540  0.52940  0.63834  Biso   1.000  C
  H2430    1.0000 0.55450  0.52690  0.64810  Biso   1.000  H
  C3948    1.0000 0.56360  0.54530  0.62333  Biso   1.000  C
  H2431    1.0000 0.55160  0.55410  0.62290  Biso   1.000  H
  C3949    1.0000 0.57984  0.54783  0.60924  Biso   1.000  C
  C3950    1.0000 0.59731  0.53502  0.61085  Biso   1.000  C
  H2432    1.0000 0.60850  0.53700  0.60130  Biso   1.000  H
  C3951    1.0000 0.57908  0.56441  0.59302  Biso   1.000  C
  C3952    1.0000 0.62611  0.50059  0.57478  Biso   1.000  C
  N1511    1.0000 0.61692  0.40904  0.73525  Biso   1.000  N
  N1512    1.0000 0.52446  0.38715  0.60699  Biso   1.000  N
  N1513    1.0000 0.51551  0.37497  0.65242  Biso   1.000  N
  N1514    1.0000 0.56091  0.42040  0.65582  Biso   1.000  N
  N1515    1.0000 0.57025  0.41034  0.69029  Biso   1.000  N
  N1516    1.0000 0.58763  0.43887  0.67387  Biso   1.000  N
  N1517    1.0000 0.60075  0.47432  0.62185  Biso   1.000  N
  N1518    1.0000 0.62676  0.49881  0.59238  Biso   1.000  N
  N1519    1.0000 0.59897  0.52009  0.62524  Biso   1.000  N
  N1520    1.0000 0.56397  0.57831  0.59428  Biso   1.000  N
  S303     1.0000 0.54463  0.41304  0.57812  Biso   1.000  S
  S304     1.0000 0.62346  0.50216  0.54928  Biso   1.000  S
  C3953    1.0000 0.14742  0.40972  0.03011  Biso   1.000  C
  H2433    1.0000 0.15560  0.39760  0.03270  Biso   1.000  H
  C3954    1.0000 0.15086  0.42742  0.04250  Biso   1.000  C
  C3955    1.0000 0.13928  0.44523  0.03862  Biso   1.000  C
  H2434    1.0000 0.14080  0.45740  0.04700  Biso   1.000  H
  C3956    1.0000 0.12518  0.44486  0.02190  Biso   1.000  C
  H2435    1.0000 0.11760  0.45710  0.01820  Biso   1.000  H
  C3957    1.0000 0.12242  0.42686  0.01093  Biso   1.000  C
  H2436    1.0000 0.11240  0.42680  0.99990  Biso   1.000  H
  C3958    1.0000 0.21662  0.39774  0.15467  Biso   1.000  C
  C3959    1.0000 0.23679  0.36148  0.08157  Biso   1.000  C
  H2437    1.0000 0.24680  0.35060  0.08290  Biso   1.000  H
  C3960    1.0000 0.22538  0.36260  0.06334  Biso   1.000  C
  H2438    1.0000 0.22800  0.35310  0.05220  Biso   1.000  H
  C3961    1.0000 0.20993  0.37779  0.06142  Biso   1.000  C
  H2439    1.0000 0.20130  0.37840  0.04930  Biso   1.000  H
  C3962    1.0000 0.20751  0.39210  0.07774  Biso   1.000  C
  C3963    1.0000 0.21999  0.39026  0.09528  Biso   1.000  C
  H2440    1.0000 0.21830  0.40020  0.10620  Biso   1.000  H
  C3964    1.0000 0.19123  0.40868  0.07718  Biso   1.000  C
  C3965    1.0000 0.16539  0.42567  0.06030  Biso   1.000  C
  C3966    1.0000 0.17411  0.43511  0.09316  Biso   1.000  C
  C3967    1.0000 0.15399  0.46232  0.11178  Biso   1.000  C
  H2441    1.0000 0.14580  0.46370  0.09940  Biso   1.000  H
  C3968    1.0000 0.17048  0.44779  0.11185  Biso   1.000  C
  C3969    1.0000 0.18265  0.44589  0.12960  Biso   1.000  C
  H2442    1.0000 0.19380  0.43600  0.13030  Biso   1.000  H
  C3970    1.0000 0.17808  0.45891  0.14642  Biso   1.000  C
  H2443    1.0000 0.18640  0.45840  0.15870  Biso   1.000  H
  C3971    1.0000 0.16140  0.47254  0.14511  Biso   1.000  C
  H2444    1.0000 0.15840  0.48110  0.15690  Biso   1.000  H
  C3972    1.0000 0.16699  0.51763  0.11138  Biso   1.000  C
  H2445    1.0000 0.16590  0.50700  0.10110  Biso   1.000  H
  C3973    1.0000 0.18460  0.52940  0.11166  Biso   1.000  C
  H2446    1.0000 0.19550  0.52690  0.10190  Biso   1.000  H
  C3974    1.0000 0.18640  0.54530  0.12667  Biso   1.000  C
  H2447    1.0000 0.19840  0.55410  0.12710  Biso   1.000  H
  C3975    1.0000 0.17016  0.54783  0.14076  Biso   1.000  C
  C3976    1.0000 0.15269  0.53502  0.13915  Biso   1.000  C
  H2448    1.0000 0.14150  0.53700  0.14870  Biso   1.000  H
  C3977    1.0000 0.17092  0.56441  0.15698  Biso   1.000  C
  C3978    1.0000 0.12389  0.50059  0.17522  Biso   1.000  C
  N1521    1.0000 0.13308  0.40904  0.01475  Biso   1.000  N
  N1522    1.0000 0.22554  0.38715  0.14301  Biso   1.000  N
  N1523    1.0000 0.23449  0.37497  0.09758  Biso   1.000  N
  N1524    1.0000 0.18909  0.42040  0.09418  Biso   1.000  N
  N1525    1.0000 0.17975  0.41034  0.05971  Biso   1.000  N
  N1526    1.0000 0.16237  0.43887  0.07613  Biso   1.000  N
  N1527    1.0000 0.14925  0.47432  0.12815  Biso   1.000  N
  N1528    1.0000 0.12324  0.49881  0.15762  Biso   1.000  N
  N1529    1.0000 0.15103  0.52009  0.12476  Biso   1.000  N
  N1530    1.0000 0.18603  0.57831  0.15572  Biso   1.000  N
  S305     1.0000 0.20537  0.41304  0.17188  Biso   1.000  S
  S306     1.0000 0.12654  0.50216  0.20072  Biso   1.000  S
  C3979    1.0000 0.14742  0.90972  0.53011  Biso   1.000  C
  H2449    1.0000 0.15560  0.89760  0.53270  Biso   1.000  H
  C3980    1.0000 0.15086  0.92742  0.54250  Biso   1.000  C
  C3981    1.0000 0.13928  0.94523  0.53862  Biso   1.000  C
  H2450    1.0000 0.14080  0.95740  0.54700  Biso   1.000  H
  C3982    1.0000 0.12518  0.94486  0.52190  Biso   1.000  C
  H2451    1.0000 0.11760  0.95710  0.51820  Biso   1.000  H
  C3983    1.0000 0.12242  0.92686  0.51093  Biso   1.000  C
  H2452    1.0000 0.11240  0.92680  0.49990  Biso   1.000  H
  C3984    1.0000 0.21662  0.89774  0.65467  Biso   1.000  C
  C3985    1.0000 0.23679  0.86148  0.58157  Biso   1.000  C
  H2453    1.0000 0.24680  0.85060  0.58290  Biso   1.000  H
  C3986    1.0000 0.22538  0.86260  0.56334  Biso   1.000  C
  H2454    1.0000 0.22800  0.85310  0.55220  Biso   1.000  H
  C3987    1.0000 0.20993  0.87779  0.56142  Biso   1.000  C
  H2455    1.0000 0.20130  0.87840  0.54930  Biso   1.000  H
  C3988    1.0000 0.20751  0.89210  0.57774  Biso   1.000  C
  C3989    1.0000 0.21999  0.89026  0.59528  Biso   1.000  C
  H2456    1.0000 0.21830  0.90020  0.60620  Biso   1.000  H
  C3990    1.0000 0.19123  0.90868  0.57718  Biso   1.000  C
  C3991    1.0000 0.16539  0.92567  0.56030  Biso   1.000  C
  C3992    1.0000 0.17411  0.93511  0.59316  Biso   1.000  C
  C3993    1.0000 0.15399  0.96232  0.61178  Biso   1.000  C
  H2457    1.0000 0.14580  0.96370  0.59940  Biso   1.000  H
  C3994    1.0000 0.17048  0.94779  0.61185  Biso   1.000  C
  C3995    1.0000 0.18265  0.94589  0.62960  Biso   1.000  C
  H2458    1.0000 0.19380  0.93600  0.63030  Biso   1.000  H
  C3996    1.0000 0.17808  0.95891  0.64642  Biso   1.000  C
  H2459    1.0000 0.18640  0.95840  0.65870  Biso   1.000  H
  C3997    1.0000 0.16140  0.97254  0.64511  Biso   1.000  C
  H2460    1.0000 0.15840  0.98110  0.65690  Biso   1.000  H
  C3998    1.0000 0.16699  0.01763  0.61138  Biso   1.000  C
  H2461    1.0000 0.16590  0.00700  0.60110  Biso   1.000  H
  C3999    1.0000 0.18460  0.02940  0.61166  Biso   1.000  C
  H2462    1.0000 0.19550  0.02690  0.60190  Biso   1.000  H
  C4000    1.0000 0.18640  0.04530  0.62667  Biso   1.000  C
  H2463    1.0000 0.19840  0.05410  0.62710  Biso   1.000  H
  C4001    1.0000 0.17016  0.04783  0.64076  Biso   1.000  C
  C4002    1.0000 0.15269  0.03502  0.63915  Biso   1.000  C
  H2464    1.0000 0.14150  0.03700  0.64870  Biso   1.000  H
  C4003    1.0000 0.17092  0.06441  0.65698  Biso   1.000  C
  C4004    1.0000 0.12389  0.00059  0.67522  Biso   1.000  C
  N1531    1.0000 0.13308  0.90904  0.51475  Biso   1.000  N
  N1532    1.0000 0.22554  0.88715  0.64301  Biso   1.000  N
  N1533    1.0000 0.23449  0.87497  0.59758  Biso   1.000  N
  N1534    1.0000 0.18909  0.92040  0.59418  Biso   1.000  N
  N1535    1.0000 0.17975  0.91034  0.55971  Biso   1.000  N
  N1536    1.0000 0.16237  0.93887  0.57613  Biso   1.000  N
  N1537    1.0000 0.14925  0.97432  0.62815  Biso   1.000  N
  N1538    1.0000 0.12324  0.99881  0.65762  Biso   1.000  N
  N1539    1.0000 0.15103  0.02009  0.62476  Biso   1.000  N
  N1540    1.0000 0.18603  0.07831  0.65572  Biso   1.000  N
  S307     1.0000 0.20537  0.91304  0.67188  Biso   1.000  S
  S308     1.0000 0.12654  0.00216  0.70072  Biso   1.000  S
  C4005    1.0000 0.64742  0.40972  0.53011  Biso   1.000  C
  H2465    1.0000 0.65560  0.39760  0.53270  Biso   1.000  H
  C4006    1.0000 0.65086  0.42742  0.54250  Biso   1.000  C
  C4007    1.0000 0.63928  0.44523  0.53862  Biso   1.000  C
  H2466    1.0000 0.64080  0.45740  0.54700  Biso   1.000  H
  C4008    1.0000 0.62518  0.44486  0.52190  Biso   1.000  C
  H2467    1.0000 0.61760  0.45710  0.51820  Biso   1.000  H
  C4009    1.0000 0.62242  0.42686  0.51093  Biso   1.000  C
  H2468    1.0000 0.61240  0.42680  0.49990  Biso   1.000  H
  C4010    1.0000 0.71662  0.39774  0.65467  Biso   1.000  C
  C4011    1.0000 0.73679  0.36148  0.58157  Biso   1.000  C
  H2469    1.0000 0.74680  0.35060  0.58290  Biso   1.000  H
  C4012    1.0000 0.72538  0.36260  0.56334  Biso   1.000  C
  H2470    1.0000 0.72800  0.35310  0.55220  Biso   1.000  H
  C4013    1.0000 0.70993  0.37779  0.56142  Biso   1.000  C
  H2471    1.0000 0.70130  0.37840  0.54930  Biso   1.000  H
  C4014    1.0000 0.70751  0.39210  0.57774  Biso   1.000  C
  C4015    1.0000 0.71999  0.39026  0.59528  Biso   1.000  C
  H2472    1.0000 0.71830  0.40020  0.60620  Biso   1.000  H
  C4016    1.0000 0.69123  0.40868  0.57718  Biso   1.000  C
  C4017    1.0000 0.66539  0.42567  0.56030  Biso   1.000  C
  C4018    1.0000 0.67411  0.43511  0.59316  Biso   1.000  C
  C4019    1.0000 0.65399  0.46232  0.61178  Biso   1.000  C
  H2473    1.0000 0.64580  0.46370  0.59940  Biso   1.000  H
  C4020    1.0000 0.67048  0.44779  0.61185  Biso   1.000  C
  C4021    1.0000 0.68265  0.44589  0.62960  Biso   1.000  C
  H2474    1.0000 0.69380  0.43600  0.63030  Biso   1.000  H
  C4022    1.0000 0.67808  0.45891  0.64642  Biso   1.000  C
  H2475    1.0000 0.68640  0.45840  0.65870  Biso   1.000  H
  C4023    1.0000 0.66140  0.47254  0.64511  Biso   1.000  C
  H2476    1.0000 0.65840  0.48110  0.65690  Biso   1.000  H
  C4024    1.0000 0.66699  0.51763  0.61138  Biso   1.000  C
  H2477    1.0000 0.66590  0.50700  0.60110  Biso   1.000  H
  C4025    1.0000 0.68460  0.52940  0.61166  Biso   1.000  C
  H2478    1.0000 0.69550  0.52690  0.60190  Biso   1.000  H
  C4026    1.0000 0.68640  0.54530  0.62667  Biso   1.000  C
  H2479    1.0000 0.69840  0.55410  0.62710  Biso   1.000  H
  C4027    1.0000 0.67016  0.54783  0.64076  Biso   1.000  C
  C4028    1.0000 0.65269  0.53502  0.63915  Biso   1.000  C
  H2480    1.0000 0.64150  0.53700  0.64870  Biso   1.000  H
  C4029    1.0000 0.67092  0.56441  0.65698  Biso   1.000  C
  C4030    1.0000 0.62389  0.50059  0.67522  Biso   1.000  C
  N1541    1.0000 0.63308  0.40904  0.51475  Biso   1.000  N
  N1542    1.0000 0.72554  0.38715  0.64301  Biso   1.000  N
  N1543    1.0000 0.73449  0.37497  0.59758  Biso   1.000  N
  N1544    1.0000 0.68909  0.42040  0.59418  Biso   1.000  N
  N1545    1.0000 0.67975  0.41034  0.55971  Biso   1.000  N
  N1546    1.0000 0.66237  0.43887  0.57613  Biso   1.000  N
  N1547    1.0000 0.64925  0.47432  0.62815  Biso   1.000  N
  N1548    1.0000 0.62324  0.49881  0.65762  Biso   1.000  N
  N1549    1.0000 0.65103  0.52009  0.62476  Biso   1.000  N
  N1550    1.0000 0.68603  0.57831  0.65572  Biso   1.000  N
  S309     1.0000 0.70537  0.41304  0.67188  Biso   1.000  S
  S310     1.0000 0.62654  0.50216  0.70072  Biso   1.000  S
  C4031    1.0000 0.64742  0.90972  0.03011  Biso   1.000  C
  H2481    1.0000 0.65560  0.89760  0.03270  Biso   1.000  H
  C4032    1.0000 0.65086  0.92742  0.04250  Biso   1.000  C
  C4033    1.0000 0.63928  0.94523  0.03862  Biso   1.000  C
  H2482    1.0000 0.64080  0.95740  0.04700  Biso   1.000  H
  C4034    1.0000 0.62518  0.94486  0.02190  Biso   1.000  C
  H2483    1.0000 0.61760  0.95710  0.01820  Biso   1.000  H
  C4035    1.0000 0.62242  0.92686  0.01093  Biso   1.000  C
  H2484    1.0000 0.61240  0.92680  0.99990  Biso   1.000  H
  C4036    1.0000 0.71662  0.89774  0.15467  Biso   1.000  C
  C4037    1.0000 0.73679  0.86148  0.08157  Biso   1.000  C
  H2485    1.0000 0.74680  0.85060  0.08290  Biso   1.000  H
  C4038    1.0000 0.72538  0.86260  0.06334  Biso   1.000  C
  H2486    1.0000 0.72800  0.85310  0.05220  Biso   1.000  H
  C4039    1.0000 0.70993  0.87779  0.06142  Biso   1.000  C
  H2487    1.0000 0.70130  0.87840  0.04930  Biso   1.000  H
  C4040    1.0000 0.70751  0.89210  0.07774  Biso   1.000  C
  C4041    1.0000 0.71999  0.89026  0.09528  Biso   1.000  C
  H2488    1.0000 0.71830  0.90020  0.10620  Biso   1.000  H
  C4042    1.0000 0.69123  0.90868  0.07718  Biso   1.000  C
  C4043    1.0000 0.66539  0.92567  0.06030  Biso   1.000  C
  C4044    1.0000 0.67411  0.93511  0.09316  Biso   1.000  C
  C4045    1.0000 0.65399  0.96232  0.11178  Biso   1.000  C
  H2489    1.0000 0.64580  0.96370  0.09940  Biso   1.000  H
  C4046    1.0000 0.67048  0.94779  0.11185  Biso   1.000  C
  C4047    1.0000 0.68265  0.94589  0.12960  Biso   1.000  C
  H2490    1.0000 0.69380  0.93600  0.13030  Biso   1.000  H
  C4048    1.0000 0.67808  0.95891  0.14642  Biso   1.000  C
  H2491    1.0000 0.68640  0.95840  0.15870  Biso   1.000  H
  C4049    1.0000 0.66140  0.97254  0.14511  Biso   1.000  C
  H2492    1.0000 0.65840  0.98110  0.15690  Biso   1.000  H
  C4050    1.0000 0.66699  0.01763  0.11138  Biso   1.000  C
  H2493    1.0000 0.66590  0.00700  0.10110  Biso   1.000  H
  C4051    1.0000 0.68460  0.02940  0.11166  Biso   1.000  C
  H2494    1.0000 0.69550  0.02690  0.10190  Biso   1.000  H
  C4052    1.0000 0.68640  0.04530  0.12667  Biso   1.000  C
  H2495    1.0000 0.69840  0.05410  0.12710  Biso   1.000  H
  C4053    1.0000 0.67016  0.04783  0.14076  Biso   1.000  C
  C4054    1.0000 0.65269  0.03502  0.13915  Biso   1.000  C
  H2496    1.0000 0.64150  0.03700  0.14870  Biso   1.000  H
  C4055    1.0000 0.67092  0.06441  0.15698  Biso   1.000  C
  C4056    1.0000 0.62389  0.00059  0.17522  Biso   1.000  C
  N1551    1.0000 0.63308  0.90904  0.01475  Biso   1.000  N
  N1552    1.0000 0.72554  0.88715  0.14301  Biso   1.000  N
  N1553    1.0000 0.73449  0.87497  0.09758  Biso   1.000  N
  N1554    1.0000 0.68909  0.92040  0.09418  Biso   1.000  N
  N1555    1.0000 0.67975  0.91034  0.05971  Biso   1.000  N
  N1556    1.0000 0.66237  0.93887  0.07613  Biso   1.000  N
  N1557    1.0000 0.64925  0.97432  0.12815  Biso   1.000  N
  N1558    1.0000 0.62324  0.99881  0.15762  Biso   1.000  N
  N1559    1.0000 0.65103  0.02009  0.12476  Biso   1.000  N
  N1560    1.0000 0.68603  0.07831  0.15572  Biso   1.000  N
  S311     1.0000 0.70537  0.91304  0.17188  Biso   1.000  S
  S312     1.0000 0.62654  0.00216  0.20072  Biso   1.000  S
  C4057    1.0000 0.60258  0.84028  0.53011  Biso   1.000  C
  H2497    1.0000 0.59440  0.85240  0.53270  Biso   1.000  H
  C4058    1.0000 0.59914  0.82258  0.54250  Biso   1.000  C
  C4059    1.0000 0.61072  0.80477  0.53862  Biso   1.000  C
  H2498    1.0000 0.60920  0.79260  0.54700  Biso   1.000  H
  C4060    1.0000 0.62482  0.80514  0.52190  Biso   1.000  C
  H2499    1.0000 0.63240  0.79290  0.51820  Biso   1.000  H
  C4061    1.0000 0.62758  0.82314  0.51093  Biso   1.000  C
  H2500    1.0000 0.63760  0.82320  0.49990  Biso   1.000  H
  C4062    1.0000 0.53338  0.85226  0.65467  Biso   1.000  C
  C4063    1.0000 0.51321  0.88852  0.58157  Biso   1.000  C
  H2501    1.0000 0.50320  0.89940  0.58290  Biso   1.000  H
  C4064    1.0000 0.52462  0.88740  0.56334  Biso   1.000  C
  H2502    1.0000 0.52200  0.89690  0.55220  Biso   1.000  H
  C4065    1.0000 0.54007  0.87221  0.56142  Biso   1.000  C
  H2503    1.0000 0.54870  0.87160  0.54930  Biso   1.000  H
  C4066    1.0000 0.54249  0.85790  0.57774  Biso   1.000  C
  C4067    1.0000 0.53001  0.85974  0.59528  Biso   1.000  C
  H2504    1.0000 0.53170  0.84980  0.60620  Biso   1.000  H
  C4068    1.0000 0.55877  0.84132  0.57718  Biso   1.000  C
  C4069    1.0000 0.58461  0.82433  0.56030  Biso   1.000  C
  C4070    1.0000 0.57589  0.81489  0.59316  Biso   1.000  C
  C4071    1.0000 0.59601  0.78768  0.61178  Biso   1.000  C
  H2505    1.0000 0.60420  0.78630  0.59940  Biso   1.000  H
  C4072    1.0000 0.57952  0.80221  0.61185  Biso   1.000  C
  C4073    1.0000 0.56735  0.80411  0.62960  Biso   1.000  C
  H2506    1.0000 0.55620  0.81400  0.63030  Biso   1.000  H
  C4074    1.0000 0.57192  0.79109  0.64642  Biso   1.000  C
  H2507    1.0000 0.56360  0.79160  0.65870  Biso   1.000  H
  C4075    1.0000 0.58860  0.77746  0.64511  Biso   1.000  C
  H2508    1.0000 0.59160  0.76890  0.65690  Biso   1.000  H
  C4076    1.0000 0.58301  0.73237  0.61138  Biso   1.000  C
  H2509    1.0000 0.58410  0.74300  0.60110  Biso   1.000  H
  C4077    1.0000 0.56540  0.72060  0.61166  Biso   1.000  C
  H2510    1.0000 0.55450  0.72310  0.60190  Biso   1.000  H
  C4078    1.0000 0.56360  0.70470  0.62667  Biso   1.000  C
  H2511    1.0000 0.55160  0.69590  0.62710  Biso   1.000  H
  C4079    1.0000 0.57984  0.70217  0.64076  Biso   1.000  C
  C4080    1.0000 0.59731  0.71498  0.63915  Biso   1.000  C
  H2512    1.0000 0.60850  0.71300  0.64870  Biso   1.000  H
  C4081    1.0000 0.57908  0.68559  0.65698  Biso   1.000  C
  C4082    1.0000 0.62611  0.74941  0.67522  Biso   1.000  C
  N1561    1.0000 0.61692  0.84096  0.51475  Biso   1.000  N
  N1562    1.0000 0.52446  0.86285  0.64301  Biso   1.000  N
  N1563    1.0000 0.51551  0.87503  0.59758  Biso   1.000  N
  N1564    1.0000 0.56091  0.82960  0.59418  Biso   1.000  N
  N1565    1.0000 0.57025  0.83966  0.55971  Biso   1.000  N
  N1566    1.0000 0.58763  0.81113  0.57613  Biso   1.000  N
  N1567    1.0000 0.60075  0.77568  0.62815  Biso   1.000  N
  N1568    1.0000 0.62676  0.75119  0.65762  Biso   1.000  N
  N1569    1.0000 0.59897  0.72991  0.62476  Biso   1.000  N
  N1570    1.0000 0.56397  0.67169  0.65572  Biso   1.000  N
  S313     1.0000 0.54463  0.83696  0.67188  Biso   1.000  S
  S314     1.0000 0.62346  0.74784  0.70072  Biso   1.000  S
  C4083    1.0000 0.60258  0.34028  0.03011  Biso   1.000  C
  H2513    1.0000 0.59440  0.35240  0.03270  Biso   1.000  H
  C4084    1.0000 0.59914  0.32258  0.04250  Biso   1.000  C
  C4085    1.0000 0.61072  0.30477  0.03862  Biso   1.000  C
  H2514    1.0000 0.60920  0.29260  0.04700  Biso   1.000  H
  C4086    1.0000 0.62482  0.30514  0.02190  Biso   1.000  C
  H2515    1.0000 0.63240  0.29290  0.01820  Biso   1.000  H
  C4087    1.0000 0.62758  0.32314  0.01093  Biso   1.000  C
  H2516    1.0000 0.63760  0.32320  0.99990  Biso   1.000  H
  C4088    1.0000 0.53338  0.35226  0.15467  Biso   1.000  C
  C4089    1.0000 0.51321  0.38852  0.08157  Biso   1.000  C
  H2517    1.0000 0.50320  0.39940  0.08290  Biso   1.000  H
  C4090    1.0000 0.52462  0.38740  0.06334  Biso   1.000  C
  H2518    1.0000 0.52200  0.39690  0.05220  Biso   1.000  H
  C4091    1.0000 0.54007  0.37221  0.06142  Biso   1.000  C
  H2519    1.0000 0.54870  0.37160  0.04930  Biso   1.000  H
  C4092    1.0000 0.54249  0.35790  0.07774  Biso   1.000  C
  C4093    1.0000 0.53001  0.35974  0.09528  Biso   1.000  C
  H2520    1.0000 0.53170  0.34980  0.10620  Biso   1.000  H
  C4094    1.0000 0.55877  0.34132  0.07718  Biso   1.000  C
  C4095    1.0000 0.58461  0.32433  0.06030  Biso   1.000  C
  C4096    1.0000 0.57589  0.31489  0.09316  Biso   1.000  C
  C4097    1.0000 0.59601  0.28768  0.11178  Biso   1.000  C
  H2521    1.0000 0.60420  0.28630  0.09940  Biso   1.000  H
  C4098    1.0000 0.57952  0.30221  0.11185  Biso   1.000  C
  C4099    1.0000 0.56735  0.30411  0.12960  Biso   1.000  C
  H2522    1.0000 0.55620  0.31400  0.13030  Biso   1.000  H
  C4100    1.0000 0.57192  0.29109  0.14642  Biso   1.000  C
  H2523    1.0000 0.56360  0.29160  0.15870  Biso   1.000  H
  C4101    1.0000 0.58860  0.27746  0.14511  Biso   1.000  C
  H2524    1.0000 0.59160  0.26890  0.15690  Biso   1.000  H
  C4102    1.0000 0.58301  0.23237  0.11138  Biso   1.000  C
  H2525    1.0000 0.58410  0.24300  0.10110  Biso   1.000  H
  C4103    1.0000 0.56540  0.22060  0.11166  Biso   1.000  C
  H2526    1.0000 0.55450  0.22310  0.10190  Biso   1.000  H
  C4104    1.0000 0.56360  0.20470  0.12667  Biso   1.000  C
  H2527    1.0000 0.55160  0.19590  0.12710  Biso   1.000  H
  C4105    1.0000 0.57984  0.20217  0.14076  Biso   1.000  C
  C4106    1.0000 0.59731  0.21498  0.13915  Biso   1.000  C
  H2528    1.0000 0.60850  0.21300  0.14870  Biso   1.000  H
  C4107    1.0000 0.57908  0.18559  0.15698  Biso   1.000  C
  C4108    1.0000 0.62611  0.24941  0.17522  Biso   1.000  C
  N1571    1.0000 0.61692  0.34096  0.01475  Biso   1.000  N
  N1572    1.0000 0.52446  0.36285  0.14301  Biso   1.000  N
  N1573    1.0000 0.51551  0.37503  0.09758  Biso   1.000  N
  N1574    1.0000 0.56091  0.32960  0.09418  Biso   1.000  N
  N1575    1.0000 0.57025  0.33966  0.05971  Biso   1.000  N
  N1576    1.0000 0.58763  0.31113  0.07613  Biso   1.000  N
  N1577    1.0000 0.60075  0.27568  0.12815  Biso   1.000  N
  N1578    1.0000 0.62676  0.25119  0.15762  Biso   1.000  N
  N1579    1.0000 0.59897  0.22991  0.12476  Biso   1.000  N
  N1580    1.0000 0.56397  0.17169  0.15572  Biso   1.000  N
  S315     1.0000 0.54463  0.33696  0.17188  Biso   1.000  S
  S316     1.0000 0.62346  0.24784  0.20072  Biso   1.000  S
  C4109    1.0000 0.10258  0.84028  0.03011  Biso   1.000  C
  H2529    1.0000 0.09440  0.85240  0.03270  Biso   1.000  H
  C4110    1.0000 0.09914  0.82258  0.04250  Biso   1.000  C
  C4111    1.0000 0.11072  0.80477  0.03862  Biso   1.000  C
  H2530    1.0000 0.10920  0.79260  0.04700  Biso   1.000  H
  C4112    1.0000 0.12482  0.80514  0.02190  Biso   1.000  C
  H2531    1.0000 0.13240  0.79290  0.01820  Biso   1.000  H
  C4113    1.0000 0.12758  0.82314  0.01093  Biso   1.000  C
  H2532    1.0000 0.13760  0.82320  0.99990  Biso   1.000  H
  C4114    1.0000 0.03338  0.85226  0.15467  Biso   1.000  C
  C4115    1.0000 0.01321  0.88852  0.08157  Biso   1.000  C
  H2533    1.0000 0.00320  0.89940  0.08290  Biso   1.000  H
  C4116    1.0000 0.02462  0.88740  0.06334  Biso   1.000  C
  H2534    1.0000 0.02200  0.89690  0.05220  Biso   1.000  H
  C4117    1.0000 0.04007  0.87221  0.06142  Biso   1.000  C
  H2535    1.0000 0.04870  0.87160  0.04930  Biso   1.000  H
  C4118    1.0000 0.04249  0.85790  0.07774  Biso   1.000  C
  C4119    1.0000 0.03001  0.85974  0.09528  Biso   1.000  C
  H2536    1.0000 0.03170  0.84980  0.10620  Biso   1.000  H
  C4120    1.0000 0.05877  0.84132  0.07718  Biso   1.000  C
  C4121    1.0000 0.08461  0.82433  0.06030  Biso   1.000  C
  C4122    1.0000 0.07589  0.81489  0.09316  Biso   1.000  C
  C4123    1.0000 0.09601  0.78768  0.11178  Biso   1.000  C
  H2537    1.0000 0.10420  0.78630  0.09940  Biso   1.000  H
  C4124    1.0000 0.07952  0.80221  0.11185  Biso   1.000  C
  C4125    1.0000 0.06735  0.80411  0.12960  Biso   1.000  C
  H2538    1.0000 0.05620  0.81400  0.13030  Biso   1.000  H
  C4126    1.0000 0.07192  0.79109  0.14642  Biso   1.000  C
  H2539    1.0000 0.06360  0.79160  0.15870  Biso   1.000  H
  C4127    1.0000 0.08860  0.77746  0.14511  Biso   1.000  C
  H2540    1.0000 0.09160  0.76890  0.15690  Biso   1.000  H
  C4128    1.0000 0.08301  0.73237  0.11138  Biso   1.000  C
  H2541    1.0000 0.08410  0.74300  0.10110  Biso   1.000  H
  C4129    1.0000 0.06540  0.72060  0.11166  Biso   1.000  C
  H2542    1.0000 0.05450  0.72310  0.10190  Biso   1.000  H
  C4130    1.0000 0.06360  0.70470  0.12667  Biso   1.000  C
  H2543    1.0000 0.05160  0.69590  0.12710  Biso   1.000  H
  C4131    1.0000 0.07984  0.70217  0.14076  Biso   1.000  C
  C4132    1.0000 0.09731  0.71498  0.13915  Biso   1.000  C
  H2544    1.0000 0.10850  0.71300  0.14870  Biso   1.000  H
  C4133    1.0000 0.07908  0.68559  0.15698  Biso   1.000  C
  C4134    1.0000 0.12611  0.74941  0.17522  Biso   1.000  C
  N1581    1.0000 0.11692  0.84096  0.01475  Biso   1.000  N
  N1582    1.0000 0.02446  0.86285  0.14301  Biso   1.000  N
  N1583    1.0000 0.01551  0.87503  0.09758  Biso   1.000  N
  N1584    1.0000 0.06091  0.82960  0.09418  Biso   1.000  N
  N1585    1.0000 0.07025  0.83966  0.05971  Biso   1.000  N
  N1586    1.0000 0.08763  0.81113  0.07613  Biso   1.000  N
  N1587    1.0000 0.10075  0.77568  0.12815  Biso   1.000  N
  N1588    1.0000 0.12676  0.75119  0.15762  Biso   1.000  N
  N1589    1.0000 0.09897  0.72991  0.12476  Biso   1.000  N
  N1590    1.0000 0.06397  0.67169  0.15572  Biso   1.000  N
  S317     1.0000 0.04463  0.83696  0.17188  Biso   1.000  S
  S318     1.0000 0.12346  0.74784  0.20072  Biso   1.000  S
  C4135    1.0000 0.10258  0.34028  0.53011  Biso   1.000  C
  H2545    1.0000 0.09440  0.35240  0.53270  Biso   1.000  H
  C4136    1.0000 0.09914  0.32258  0.54250  Biso   1.000  C
  C4137    1.0000 0.11072  0.30477  0.53862  Biso   1.000  C
  H2546    1.0000 0.10920  0.29260  0.54700  Biso   1.000  H
  C4138    1.0000 0.12482  0.30514  0.52190  Biso   1.000  C
  H2547    1.0000 0.13240  0.29290  0.51820  Biso   1.000  H
  C4139    1.0000 0.12758  0.32314  0.51093  Biso   1.000  C
  H2548    1.0000 0.13760  0.32320  0.49990  Biso   1.000  H
  C4140    1.0000 0.03338  0.35226  0.65467  Biso   1.000  C
  C4141    1.0000 0.01321  0.38852  0.58157  Biso   1.000  C
  H2549    1.0000 0.00320  0.39940  0.58290  Biso   1.000  H
  C4142    1.0000 0.02462  0.38740  0.56334  Biso   1.000  C
  H2550    1.0000 0.02200  0.39690  0.55220  Biso   1.000  H
  C4143    1.0000 0.04007  0.37221  0.56142  Biso   1.000  C
  H2551    1.0000 0.04870  0.37160  0.54930  Biso   1.000  H
  C4144    1.0000 0.04249  0.35790  0.57774  Biso   1.000  C
  C4145    1.0000 0.03001  0.35974  0.59528  Biso   1.000  C
  H2552    1.0000 0.03170  0.34980  0.60620  Biso   1.000  H
  C4146    1.0000 0.05877  0.34132  0.57718  Biso   1.000  C
  C4147    1.0000 0.08461  0.32433  0.56030  Biso   1.000  C
  C4148    1.0000 0.07589  0.31489  0.59316  Biso   1.000  C
  C4149    1.0000 0.09601  0.28768  0.61178  Biso   1.000  C
  H2553    1.0000 0.10420  0.28630  0.59940  Biso   1.000  H
  C4150    1.0000 0.07952  0.30221  0.61185  Biso   1.000  C
  C4151    1.0000 0.06735  0.30411  0.62960  Biso   1.000  C
  H2554    1.0000 0.05620  0.31400  0.63030  Biso   1.000  H
  C4152    1.0000 0.07192  0.29109  0.64642  Biso   1.000  C
  H2555    1.0000 0.06360  0.29160  0.65870  Biso   1.000  H
  C4153    1.0000 0.08860  0.27746  0.64511  Biso   1.000  C
  H2556    1.0000 0.09160  0.26890  0.65690  Biso   1.000  H
  C4154    1.0000 0.08301  0.23237  0.61138  Biso   1.000  C
  H2557    1.0000 0.08410  0.24300  0.60110  Biso   1.000  H
  C4155    1.0000 0.06540  0.22060  0.61166  Biso   1.000  C
  H2558    1.0000 0.05450  0.22310  0.60190  Biso   1.000  H
  C4156    1.0000 0.06360  0.20470  0.62667  Biso   1.000  C
  H2559    1.0000 0.05160  0.19590  0.62710  Biso   1.000  H
  C4157    1.0000 0.07984  0.20217  0.64076  Biso   1.000  C
  C4158    1.0000 0.09731  0.21498  0.63915  Biso   1.000  C
  H2560    1.0000 0.10850  0.21300  0.64870  Biso   1.000  H
  C4159    1.0000 0.07908  0.18559  0.65698  Biso   1.000  C
  C4160    1.0000 0.12611  0.24941  0.67522  Biso   1.000  C
  N1591    1.0000 0.11692  0.34096  0.51475  Biso   1.000  N
  N1592    1.0000 0.02446  0.36285  0.64301  Biso   1.000  N
  N1593    1.0000 0.01551  0.37503  0.59758  Biso   1.000  N
  N1594    1.0000 0.06091  0.32960  0.59418  Biso   1.000  N
  N1595    1.0000 0.07025  0.33966  0.55971  Biso   1.000  N
  N1596    1.0000 0.08763  0.31113  0.57613  Biso   1.000  N
  N1597    1.0000 0.10075  0.27568  0.62815  Biso   1.000  N
  N1598    1.0000 0.12676  0.25119  0.65762  Biso   1.000  N
  N1599    1.0000 0.09897  0.22991  0.62476  Biso   1.000  N
  N1600    1.0000 0.06397  0.17169  0.65572  Biso   1.000  N
  S319     1.0000 0.04463  0.33696  0.67188  Biso   1.000  S
  S320     1.0000 0.12346  0.24784  0.70072  Biso   1.000  S
  C4161    1.0000 0.84028  0.53011  0.60258  Biso   1.000  C
  H2561    1.0000 0.85240  0.53270  0.59440  Biso   1.000  H
  C4162    1.0000 0.82258  0.54250  0.59914  Biso   1.000  C
  C4163    1.0000 0.80477  0.53862  0.61072  Biso   1.000  C
  H2562    1.0000 0.79260  0.54700  0.60920  Biso   1.000  H
  C4164    1.0000 0.80514  0.52190  0.62482  Biso   1.000  C
  H2563    1.0000 0.79290  0.51820  0.63240  Biso   1.000  H
  C4165    1.0000 0.82314  0.51093  0.62758  Biso   1.000  C
  H2564    1.0000 0.82320  0.49990  0.63760  Biso   1.000  H
  C4166    1.0000 0.85226  0.65467  0.53338  Biso   1.000  C
  C4167    1.0000 0.88852  0.58157  0.51321  Biso   1.000  C
  H2565    1.0000 0.89940  0.58290  0.50320  Biso   1.000  H
  C4168    1.0000 0.88740  0.56334  0.52462  Biso   1.000  C
  H2566    1.0000 0.89690  0.55220  0.52200  Biso   1.000  H
  C4169    1.0000 0.87221  0.56142  0.54007  Biso   1.000  C
  H2567    1.0000 0.87160  0.54930  0.54870  Biso   1.000  H
  C4170    1.0000 0.85790  0.57774  0.54249  Biso   1.000  C
  C4171    1.0000 0.85974  0.59528  0.53001  Biso   1.000  C
  H2568    1.0000 0.84980  0.60620  0.53170  Biso   1.000  H
  C4172    1.0000 0.84132  0.57718  0.55877  Biso   1.000  C
  C4173    1.0000 0.82433  0.56030  0.58461  Biso   1.000  C
  C4174    1.0000 0.81489  0.59316  0.57589  Biso   1.000  C
  C4175    1.0000 0.78768  0.61178  0.59601  Biso   1.000  C
  H2569    1.0000 0.78630  0.59940  0.60420  Biso   1.000  H
  C4176    1.0000 0.80221  0.61185  0.57952  Biso   1.000  C
  C4177    1.0000 0.80411  0.62960  0.56735  Biso   1.000  C
  H2570    1.0000 0.81400  0.63030  0.55620  Biso   1.000  H
  C4178    1.0000 0.79109  0.64642  0.57192  Biso   1.000  C
  H2571    1.0000 0.79160  0.65870  0.56360  Biso   1.000  H
  C4179    1.0000 0.77746  0.64511  0.58860  Biso   1.000  C
  H2572    1.0000 0.76890  0.65690  0.59160  Biso   1.000  H
  C4180    1.0000 0.73237  0.61138  0.58301  Biso   1.000  C
  H2573    1.0000 0.74300  0.60110  0.58410  Biso   1.000  H
  C4181    1.0000 0.72060  0.61166  0.56540  Biso   1.000  C
  H2574    1.0000 0.72310  0.60190  0.55450  Biso   1.000  H
  C4182    1.0000 0.70470  0.62667  0.56360  Biso   1.000  C
  H2575    1.0000 0.69590  0.62710  0.55160  Biso   1.000  H
  C4183    1.0000 0.70217  0.64076  0.57984  Biso   1.000  C
  C4184    1.0000 0.71498  0.63915  0.59731  Biso   1.000  C
  H2576    1.0000 0.71300  0.64870  0.60850  Biso   1.000  H
  C4185    1.0000 0.68559  0.65698  0.57908  Biso   1.000  C
  C4186    1.0000 0.74941  0.67522  0.62611  Biso   1.000  C
  N1601    1.0000 0.84096  0.51475  0.61692  Biso   1.000  N
  N1602    1.0000 0.86285  0.64301  0.52446  Biso   1.000  N
  N1603    1.0000 0.87503  0.59758  0.51551  Biso   1.000  N
  N1604    1.0000 0.82960  0.59418  0.56091  Biso   1.000  N
  N1605    1.0000 0.83966  0.55971  0.57025  Biso   1.000  N
  N1606    1.0000 0.81113  0.57613  0.58763  Biso   1.000  N
  N1607    1.0000 0.77568  0.62815  0.60075  Biso   1.000  N
  N1608    1.0000 0.75119  0.65762  0.62676  Biso   1.000  N
  N1609    1.0000 0.72991  0.62476  0.59897  Biso   1.000  N
  N1610    1.0000 0.67169  0.65572  0.56397  Biso   1.000  N
  S321     1.0000 0.83696  0.67188  0.54463  Biso   1.000  S
  S322     1.0000 0.74784  0.70072  0.62346  Biso   1.000  S
  C4187    1.0000 0.84028  0.03011  0.10258  Biso   1.000  C
  H2577    1.0000 0.85240  0.03270  0.09440  Biso   1.000  H
  C4188    1.0000 0.82258  0.04250  0.09914  Biso   1.000  C
  C4189    1.0000 0.80477  0.03862  0.11072  Biso   1.000  C
  H2578    1.0000 0.79260  0.04700  0.10920  Biso   1.000  H
  C4190    1.0000 0.80514  0.02190  0.12482  Biso   1.000  C
  H2579    1.0000 0.79290  0.01820  0.13240  Biso   1.000  H
  C4191    1.0000 0.82314  0.01093  0.12758  Biso   1.000  C
  H2580    1.0000 0.82320  0.99990  0.13760  Biso   1.000  H
  C4192    1.0000 0.85226  0.15467  0.03338  Biso   1.000  C
  C4193    1.0000 0.88852  0.08157  0.01321  Biso   1.000  C
  H2581    1.0000 0.89940  0.08290  0.00320  Biso   1.000  H
  C4194    1.0000 0.88740  0.06334  0.02462  Biso   1.000  C
  H2582    1.0000 0.89690  0.05220  0.02200  Biso   1.000  H
  C4195    1.0000 0.87221  0.06142  0.04007  Biso   1.000  C
  H2583    1.0000 0.87160  0.04930  0.04870  Biso   1.000  H
  C4196    1.0000 0.85790  0.07774  0.04249  Biso   1.000  C
  C4197    1.0000 0.85974  0.09528  0.03001  Biso   1.000  C
  H2584    1.0000 0.84980  0.10620  0.03170  Biso   1.000  H
  C4198    1.0000 0.84132  0.07718  0.05877  Biso   1.000  C
  C4199    1.0000 0.82433  0.06030  0.08461  Biso   1.000  C
  C4200    1.0000 0.81489  0.09316  0.07589  Biso   1.000  C
  C4201    1.0000 0.78768  0.11178  0.09601  Biso   1.000  C
  H2585    1.0000 0.78630  0.09940  0.10420  Biso   1.000  H
  C4202    1.0000 0.80221  0.11185  0.07952  Biso   1.000  C
  C4203    1.0000 0.80411  0.12960  0.06735  Biso   1.000  C
  H2586    1.0000 0.81400  0.13030  0.05620  Biso   1.000  H
  C4204    1.0000 0.79109  0.14642  0.07192  Biso   1.000  C
  H2587    1.0000 0.79160  0.15870  0.06360  Biso   1.000  H
  C4205    1.0000 0.77746  0.14511  0.08860  Biso   1.000  C
  H2588    1.0000 0.76890  0.15690  0.09160  Biso   1.000  H
  C4206    1.0000 0.73237  0.11138  0.08301  Biso   1.000  C
  H2589    1.0000 0.74300  0.10110  0.08410  Biso   1.000  H
  C4207    1.0000 0.72060  0.11166  0.06540  Biso   1.000  C
  H2590    1.0000 0.72310  0.10190  0.05450  Biso   1.000  H
  C4208    1.0000 0.70470  0.12667  0.06360  Biso   1.000  C
  H2591    1.0000 0.69590  0.12710  0.05160  Biso   1.000  H
  C4209    1.0000 0.70217  0.14076  0.07984  Biso   1.000  C
  C4210    1.0000 0.71498  0.13915  0.09731  Biso   1.000  C
  H2592    1.0000 0.71300  0.14870  0.10850  Biso   1.000  H
  C4211    1.0000 0.68559  0.15698  0.07908  Biso   1.000  C
  C4212    1.0000 0.74941  0.17522  0.12611  Biso   1.000  C
  N1611    1.0000 0.84096  0.01475  0.11692  Biso   1.000  N
  N1612    1.0000 0.86285  0.14301  0.02446  Biso   1.000  N
  N1613    1.0000 0.87503  0.09758  0.01551  Biso   1.000  N
  N1614    1.0000 0.82960  0.09418  0.06091  Biso   1.000  N
  N1615    1.0000 0.83966  0.05971  0.07025  Biso   1.000  N
  N1616    1.0000 0.81113  0.07613  0.08763  Biso   1.000  N
  N1617    1.0000 0.77568  0.12815  0.10075  Biso   1.000  N
  N1618    1.0000 0.75119  0.15762  0.12676  Biso   1.000  N
  N1619    1.0000 0.72991  0.12476  0.09897  Biso   1.000  N
  N1620    1.0000 0.67169  0.15572  0.06397  Biso   1.000  N
  S323     1.0000 0.83696  0.17188  0.04463  Biso   1.000  S
  S324     1.0000 0.74784  0.20072  0.12346  Biso   1.000  S
  C4213    1.0000 0.34028  0.53011  0.10258  Biso   1.000  C
  H2593    1.0000 0.35240  0.53270  0.09440  Biso   1.000  H
  C4214    1.0000 0.32258  0.54250  0.09914  Biso   1.000  C
  C4215    1.0000 0.30477  0.53862  0.11072  Biso   1.000  C
  H2594    1.0000 0.29260  0.54700  0.10920  Biso   1.000  H
  C4216    1.0000 0.30514  0.52190  0.12482  Biso   1.000  C
  H2595    1.0000 0.29290  0.51820  0.13240  Biso   1.000  H
  C4217    1.0000 0.32314  0.51093  0.12758  Biso   1.000  C
  H2596    1.0000 0.32320  0.49990  0.13760  Biso   1.000  H
  C4218    1.0000 0.35226  0.65467  0.03338  Biso   1.000  C
  C4219    1.0000 0.38852  0.58157  0.01321  Biso   1.000  C
  H2597    1.0000 0.39940  0.58290  0.00320  Biso   1.000  H
  C4220    1.0000 0.38740  0.56334  0.02462  Biso   1.000  C
  H2598    1.0000 0.39690  0.55220  0.02200  Biso   1.000  H
  C4221    1.0000 0.37221  0.56142  0.04007  Biso   1.000  C
  H2599    1.0000 0.37160  0.54930  0.04870  Biso   1.000  H
  C4222    1.0000 0.35790  0.57774  0.04249  Biso   1.000  C
  C4223    1.0000 0.35974  0.59528  0.03001  Biso   1.000  C
  H2600    1.0000 0.34980  0.60620  0.03170  Biso   1.000  H
  C4224    1.0000 0.34132  0.57718  0.05877  Biso   1.000  C
  C4225    1.0000 0.32433  0.56030  0.08461  Biso   1.000  C
  C4226    1.0000 0.31489  0.59316  0.07589  Biso   1.000  C
  C4227    1.0000 0.28768  0.61178  0.09601  Biso   1.000  C
  H2601    1.0000 0.28630  0.59940  0.10420  Biso   1.000  H
  C4228    1.0000 0.30221  0.61185  0.07952  Biso   1.000  C
  C4229    1.0000 0.30411  0.62960  0.06735  Biso   1.000  C
  H2602    1.0000 0.31400  0.63030  0.05620  Biso   1.000  H
  C4230    1.0000 0.29109  0.64642  0.07192  Biso   1.000  C
  H2603    1.0000 0.29160  0.65870  0.06360  Biso   1.000  H
  C4231    1.0000 0.27746  0.64511  0.08860  Biso   1.000  C
  H2604    1.0000 0.26890  0.65690  0.09160  Biso   1.000  H
  C4232    1.0000 0.23237  0.61138  0.08301  Biso   1.000  C
  H2605    1.0000 0.24300  0.60110  0.08410  Biso   1.000  H
  C4233    1.0000 0.22060  0.61166  0.06540  Biso   1.000  C
  H2606    1.0000 0.22310  0.60190  0.05450  Biso   1.000  H
  C4234    1.0000 0.20470  0.62667  0.06360  Biso   1.000  C
  H2607    1.0000 0.19590  0.62710  0.05160  Biso   1.000  H
  C4235    1.0000 0.20217  0.64076  0.07984  Biso   1.000  C
  C4236    1.0000 0.21498  0.63915  0.09731  Biso   1.000  C
  H2608    1.0000 0.21300  0.64870  0.10850  Biso   1.000  H
  C4237    1.0000 0.18559  0.65698  0.07908  Biso   1.000  C
  C4238    1.0000 0.24941  0.67522  0.12611  Biso   1.000  C
  N1621    1.0000 0.34096  0.51475  0.11692  Biso   1.000  N
  N1622    1.0000 0.36285  0.64301  0.02446  Biso   1.000  N
  N1623    1.0000 0.37503  0.59758  0.01551  Biso   1.000  N
  N1624    1.0000 0.32960  0.59418  0.06091  Biso   1.000  N
  N1625    1.0000 0.33966  0.55971  0.07025  Biso   1.000  N
  N1626    1.0000 0.31113  0.57613  0.08763  Biso   1.000  N
  N1627    1.0000 0.27568  0.62815  0.10075  Biso   1.000  N
  N1628    1.0000 0.25119  0.65762  0.12676  Biso   1.000  N
  N1629    1.0000 0.22991  0.62476  0.09897  Biso   1.000  N
  N1630    1.0000 0.17169  0.65572  0.06397  Biso   1.000  N
  S325     1.0000 0.33696  0.67188  0.04463  Biso   1.000  S
  S326     1.0000 0.24784  0.70072  0.12346  Biso   1.000  S
  C4239    1.0000 0.34028  0.03011  0.60258  Biso   1.000  C
  H2609    1.0000 0.35240  0.03270  0.59440  Biso   1.000  H
  C4240    1.0000 0.32258  0.04250  0.59914  Biso   1.000  C
  C4241    1.0000 0.30477  0.03862  0.61072  Biso   1.000  C
  H2610    1.0000 0.29260  0.04700  0.60920  Biso   1.000  H
  C4242    1.0000 0.30514  0.02190  0.62482  Biso   1.000  C
  H2611    1.0000 0.29290  0.01820  0.63240  Biso   1.000  H
  C4243    1.0000 0.32314  0.01093  0.62758  Biso   1.000  C
  H2612    1.0000 0.32320  0.99990  0.63760  Biso   1.000  H
  C4244    1.0000 0.35226  0.15467  0.53338  Biso   1.000  C
  C4245    1.0000 0.38852  0.08157  0.51321  Biso   1.000  C
  H2613    1.0000 0.39940  0.08290  0.50320  Biso   1.000  H
  C4246    1.0000 0.38740  0.06334  0.52462  Biso   1.000  C
  H2614    1.0000 0.39690  0.05220  0.52200  Biso   1.000  H
  C4247    1.0000 0.37221  0.06142  0.54007  Biso   1.000  C
  H2615    1.0000 0.37160  0.04930  0.54870  Biso   1.000  H
  C4248    1.0000 0.35790  0.07774  0.54249  Biso   1.000  C
  C4249    1.0000 0.35974  0.09528  0.53001  Biso   1.000  C
  H2616    1.0000 0.34980  0.10620  0.53170  Biso   1.000  H
  C4250    1.0000 0.34132  0.07718  0.55877  Biso   1.000  C
  C4251    1.0000 0.32433  0.06030  0.58461  Biso   1.000  C
  C4252    1.0000 0.31489  0.09316  0.57589  Biso   1.000  C
  C4253    1.0000 0.28768  0.11178  0.59601  Biso   1.000  C
  H2617    1.0000 0.28630  0.09940  0.60420  Biso   1.000  H
  C4254    1.0000 0.30221  0.11185  0.57952  Biso   1.000  C
  C4255    1.0000 0.30411  0.12960  0.56735  Biso   1.000  C
  H2618    1.0000 0.31400  0.13030  0.55620  Biso   1.000  H
  C4256    1.0000 0.29109  0.14642  0.57192  Biso   1.000  C
  H2619    1.0000 0.29160  0.15870  0.56360  Biso   1.000  H
  C4257    1.0000 0.27746  0.14511  0.58860  Biso   1.000  C
  H2620    1.0000 0.26890  0.15690  0.59160  Biso   1.000  H
  C4258    1.0000 0.23237  0.11138  0.58301  Biso   1.000  C
  H2621    1.0000 0.24300  0.10110  0.58410  Biso   1.000  H
  C4259    1.0000 0.22060  0.11166  0.56540  Biso   1.000  C
  H2622    1.0000 0.22310  0.10190  0.55450  Biso   1.000  H
  C4260    1.0000 0.20470  0.12667  0.56360  Biso   1.000  C
  H2623    1.0000 0.19590  0.12710  0.55160  Biso   1.000  H
  C4261    1.0000 0.20217  0.14076  0.57984  Biso   1.000  C
  C4262    1.0000 0.21498  0.13915  0.59731  Biso   1.000  C
  H2624    1.0000 0.21300  0.14870  0.60850  Biso   1.000  H
  C4263    1.0000 0.18559  0.15698  0.57908  Biso   1.000  C
  C4264    1.0000 0.24941  0.17522  0.62611  Biso   1.000  C
  N1631    1.0000 0.34096  0.01475  0.61692  Biso   1.000  N
  N1632    1.0000 0.36285  0.14301  0.52446  Biso   1.000  N
  N1633    1.0000 0.37503  0.09758  0.51551  Biso   1.000  N
  N1634    1.0000 0.32960  0.09418  0.56091  Biso   1.000  N
  N1635    1.0000 0.33966  0.05971  0.57025  Biso   1.000  N
  N1636    1.0000 0.31113  0.07613  0.58763  Biso   1.000  N
  N1637    1.0000 0.27568  0.12815  0.60075  Biso   1.000  N
  N1638    1.0000 0.25119  0.15762  0.62676  Biso   1.000  N
  N1639    1.0000 0.22991  0.12476  0.59897  Biso   1.000  N
  N1640    1.0000 0.17169  0.15572  0.56397  Biso   1.000  N
  S327     1.0000 0.33696  0.17188  0.54463  Biso   1.000  S
  S328     1.0000 0.24784  0.20072  0.62346  Biso   1.000  S
  C4265    1.0000 0.40972  0.03011  0.14742  Biso   1.000  C
  H2625    1.0000 0.39760  0.03270  0.15560  Biso   1.000  H
  C4266    1.0000 0.42742  0.04250  0.15086  Biso   1.000  C
  C4267    1.0000 0.44523  0.03862  0.13928  Biso   1.000  C
  H2626    1.0000 0.45740  0.04700  0.14080  Biso   1.000  H
  C4268    1.0000 0.44486  0.02190  0.12518  Biso   1.000  C
  H2627    1.0000 0.45710  0.01820  0.11760  Biso   1.000  H
  C4269    1.0000 0.42686  0.01093  0.12242  Biso   1.000  C
  H2628    1.0000 0.42680  0.99990  0.11240  Biso   1.000  H
  C4270    1.0000 0.39774  0.15467  0.21662  Biso   1.000  C
  C4271    1.0000 0.36148  0.08157  0.23679  Biso   1.000  C
  H2629    1.0000 0.35060  0.08290  0.24680  Biso   1.000  H
  C4272    1.0000 0.36260  0.06334  0.22538  Biso   1.000  C
  H2630    1.0000 0.35310  0.05220  0.22800  Biso   1.000  H
  C4273    1.0000 0.37779  0.06142  0.20993  Biso   1.000  C
  H2631    1.0000 0.37840  0.04930  0.20130  Biso   1.000  H
  C4274    1.0000 0.39210  0.07774  0.20751  Biso   1.000  C
  C4275    1.0000 0.39026  0.09528  0.21999  Biso   1.000  C
  H2632    1.0000 0.40020  0.10620  0.21830  Biso   1.000  H
  C4276    1.0000 0.40868  0.07718  0.19123  Biso   1.000  C
  C4277    1.0000 0.42567  0.06030  0.16539  Biso   1.000  C
  C4278    1.0000 0.43511  0.09316  0.17411  Biso   1.000  C
  C4279    1.0000 0.46232  0.11178  0.15399  Biso   1.000  C
  H2633    1.0000 0.46370  0.09940  0.14580  Biso   1.000  H
  C4280    1.0000 0.44779  0.11185  0.17048  Biso   1.000  C
  C4281    1.0000 0.44589  0.12960  0.18265  Biso   1.000  C
  H2634    1.0000 0.43600  0.13030  0.19380  Biso   1.000  H
  C4282    1.0000 0.45891  0.14642  0.17808  Biso   1.000  C
  H2635    1.0000 0.45840  0.15870  0.18640  Biso   1.000  H
  C4283    1.0000 0.47254  0.14511  0.16140  Biso   1.000  C
  H2636    1.0000 0.48110  0.15690  0.15840  Biso   1.000  H
  C4284    1.0000 0.51763  0.11138  0.16699  Biso   1.000  C
  H2637    1.0000 0.50700  0.10110  0.16590  Biso   1.000  H
  C4285    1.0000 0.52940  0.11166  0.18460  Biso   1.000  C
  H2638    1.0000 0.52690  0.10190  0.19550  Biso   1.000  H
  C4286    1.0000 0.54530  0.12667  0.18640  Biso   1.000  C
  H2639    1.0000 0.55410  0.12710  0.19840  Biso   1.000  H
  C4287    1.0000 0.54783  0.14076  0.17016  Biso   1.000  C
  C4288    1.0000 0.53502  0.13915  0.15269  Biso   1.000  C
  H2640    1.0000 0.53700  0.14870  0.14150  Biso   1.000  H
  C4289    1.0000 0.56441  0.15698  0.17092  Biso   1.000  C
  C4290    1.0000 0.50059  0.17522  0.12389  Biso   1.000  C
  N1641    1.0000 0.40904  0.01475  0.13308  Biso   1.000  N
  N1642    1.0000 0.38715  0.14301  0.22554  Biso   1.000  N
  N1643    1.0000 0.37497  0.09758  0.23449  Biso   1.000  N
  N1644    1.0000 0.42040  0.09418  0.18909  Biso   1.000  N
  N1645    1.0000 0.41034  0.05971  0.17975  Biso   1.000  N
  N1646    1.0000 0.43887  0.07613  0.16237  Biso   1.000  N
  N1647    1.0000 0.47432  0.12815  0.14925  Biso   1.000  N
  N1648    1.0000 0.49881  0.15762  0.12324  Biso   1.000  N
  N1649    1.0000 0.52009  0.12476  0.15103  Biso   1.000  N
  N1650    1.0000 0.57831  0.15572  0.18603  Biso   1.000  N
  S329     1.0000 0.41304  0.17188  0.20537  Biso   1.000  S
  S330     1.0000 0.50216  0.20072  0.12654  Biso   1.000  S
  C4291    1.0000 0.40972  0.53011  0.64742  Biso   1.000  C
  H2641    1.0000 0.39760  0.53270  0.65560  Biso   1.000  H
  C4292    1.0000 0.42742  0.54250  0.65086  Biso   1.000  C
  C4293    1.0000 0.44523  0.53862  0.63928  Biso   1.000  C
  H2642    1.0000 0.45740  0.54700  0.64080  Biso   1.000  H
  C4294    1.0000 0.44486  0.52190  0.62518  Biso   1.000  C
  H2643    1.0000 0.45710  0.51820  0.61760  Biso   1.000  H
  C4295    1.0000 0.42686  0.51093  0.62242  Biso   1.000  C
  H2644    1.0000 0.42680  0.49990  0.61240  Biso   1.000  H
  C4296    1.0000 0.39774  0.65467  0.71662  Biso   1.000  C
  C4297    1.0000 0.36148  0.58157  0.73679  Biso   1.000  C
  H2645    1.0000 0.35060  0.58290  0.74680  Biso   1.000  H
  C4298    1.0000 0.36260  0.56334  0.72538  Biso   1.000  C
  H2646    1.0000 0.35310  0.55220  0.72800  Biso   1.000  H
  C4299    1.0000 0.37779  0.56142  0.70993  Biso   1.000  C
  H2647    1.0000 0.37840  0.54930  0.70130  Biso   1.000  H
  C4300    1.0000 0.39210  0.57774  0.70751  Biso   1.000  C
  C4301    1.0000 0.39026  0.59528  0.71999  Biso   1.000  C
  H2648    1.0000 0.40020  0.60620  0.71830  Biso   1.000  H
  C4302    1.0000 0.40868  0.57718  0.69123  Biso   1.000  C
  C4303    1.0000 0.42567  0.56030  0.66539  Biso   1.000  C
  C4304    1.0000 0.43511  0.59316  0.67411  Biso   1.000  C
  C4305    1.0000 0.46232  0.61178  0.65399  Biso   1.000  C
  H2649    1.0000 0.46370  0.59940  0.64580  Biso   1.000  H
  C4306    1.0000 0.44779  0.61185  0.67048  Biso   1.000  C
  C4307    1.0000 0.44589  0.62960  0.68265  Biso   1.000  C
  H2650    1.0000 0.43600  0.63030  0.69380  Biso   1.000  H
  C4308    1.0000 0.45891  0.64642  0.67808  Biso   1.000  C
  H2651    1.0000 0.45840  0.65870  0.68640  Biso   1.000  H
  C4309    1.0000 0.47254  0.64511  0.66140  Biso   1.000  C
  H2652    1.0000 0.48110  0.65690  0.65840  Biso   1.000  H
  C4310    1.0000 0.51763  0.61138  0.66699  Biso   1.000  C
  H2653    1.0000 0.50700  0.60110  0.66590  Biso   1.000  H
  C4311    1.0000 0.52940  0.61166  0.68460  Biso   1.000  C
  H2654    1.0000 0.52690  0.60190  0.69550  Biso   1.000  H
  C4312    1.0000 0.54530  0.62667  0.68640  Biso   1.000  C
  H2655    1.0000 0.55410  0.62710  0.69840  Biso   1.000  H
  C4313    1.0000 0.54783  0.64076  0.67016  Biso   1.000  C
  C4314    1.0000 0.53502  0.63915  0.65269  Biso   1.000  C
  H2656    1.0000 0.53700  0.64870  0.64150  Biso   1.000  H
  C4315    1.0000 0.56441  0.65698  0.67092  Biso   1.000  C
  C4316    1.0000 0.50059  0.67522  0.62389  Biso   1.000  C
  N1651    1.0000 0.40904  0.51475  0.63308  Biso   1.000  N
  N1652    1.0000 0.38715  0.64301  0.72554  Biso   1.000  N
  N1653    1.0000 0.37497  0.59758  0.73449  Biso   1.000  N
  N1654    1.0000 0.42040  0.59418  0.68909  Biso   1.000  N
  N1655    1.0000 0.41034  0.55971  0.67975  Biso   1.000  N
  N1656    1.0000 0.43887  0.57613  0.66237  Biso   1.000  N
  N1657    1.0000 0.47432  0.62815  0.64925  Biso   1.000  N
  N1658    1.0000 0.49881  0.65762  0.62324  Biso   1.000  N
  N1659    1.0000 0.52009  0.62476  0.65103  Biso   1.000  N
  N1660    1.0000 0.57831  0.65572  0.68603  Biso   1.000  N
  S331     1.0000 0.41304  0.67188  0.70537  Biso   1.000  S
  S332     1.0000 0.50216  0.70072  0.62654  Biso   1.000  S
  C4317    1.0000 0.90972  0.03011  0.64742  Biso   1.000  C
  H2657    1.0000 0.89760  0.03270  0.65560  Biso   1.000  H
  C4318    1.0000 0.92742  0.04250  0.65086  Biso   1.000  C
  C4319    1.0000 0.94523  0.03862  0.63928  Biso   1.000  C
  H2658    1.0000 0.95740  0.04700  0.64080  Biso   1.000  H
  C4320    1.0000 0.94486  0.02190  0.62518  Biso   1.000  C
  H2659    1.0000 0.95710  0.01820  0.61760  Biso   1.000  H
  C4321    1.0000 0.92686  0.01093  0.62242  Biso   1.000  C
  H2660    1.0000 0.92680  0.99990  0.61240  Biso   1.000  H
  C4322    1.0000 0.89774  0.15467  0.71662  Biso   1.000  C
  C4323    1.0000 0.86148  0.08157  0.73679  Biso   1.000  C
  H2661    1.0000 0.85060  0.08290  0.74680  Biso   1.000  H
  C4324    1.0000 0.86260  0.06334  0.72538  Biso   1.000  C
  H2662    1.0000 0.85310  0.05220  0.72800  Biso   1.000  H
  C4325    1.0000 0.87779  0.06142  0.70993  Biso   1.000  C
  H2663    1.0000 0.87840  0.04930  0.70130  Biso   1.000  H
  C4326    1.0000 0.89210  0.07774  0.70751  Biso   1.000  C
  C4327    1.0000 0.89026  0.09528  0.71999  Biso   1.000  C
  H2664    1.0000 0.90020  0.10620  0.71830  Biso   1.000  H
  C4328    1.0000 0.90868  0.07718  0.69123  Biso   1.000  C
  C4329    1.0000 0.92567  0.06030  0.66539  Biso   1.000  C
  C4330    1.0000 0.93511  0.09316  0.67411  Biso   1.000  C
  C4331    1.0000 0.96232  0.11178  0.65399  Biso   1.000  C
  H2665    1.0000 0.96370  0.09940  0.64580  Biso   1.000  H
  C4332    1.0000 0.94779  0.11185  0.67048  Biso   1.000  C
  C4333    1.0000 0.94589  0.12960  0.68265  Biso   1.000  C
  H2666    1.0000 0.93600  0.13030  0.69380  Biso   1.000  H
  C4334    1.0000 0.95891  0.14642  0.67808  Biso   1.000  C
  H2667    1.0000 0.95840  0.15870  0.68640  Biso   1.000  H
  C4335    1.0000 0.97254  0.14511  0.66140  Biso   1.000  C
  H2668    1.0000 0.98110  0.15690  0.65840  Biso   1.000  H
  C4336    1.0000 0.01763  0.11138  0.66699  Biso   1.000  C
  H2669    1.0000 0.00700  0.10110  0.66590  Biso   1.000  H
  C4337    1.0000 0.02940  0.11166  0.68460  Biso   1.000  C
  H2670    1.0000 0.02690  0.10190  0.69550  Biso   1.000  H
  C4338    1.0000 0.04530  0.12667  0.68640  Biso   1.000  C
  H2671    1.0000 0.05410  0.12710  0.69840  Biso   1.000  H
  C4339    1.0000 0.04783  0.14076  0.67016  Biso   1.000  C
  C4340    1.0000 0.03502  0.13915  0.65269  Biso   1.000  C
  H2672    1.0000 0.03700  0.14870  0.64150  Biso   1.000  H
  C4341    1.0000 0.06441  0.15698  0.67092  Biso   1.000  C
  C4342    1.0000 0.00059  0.17522  0.62389  Biso   1.000  C
  N1661    1.0000 0.90904  0.01475  0.63308  Biso   1.000  N
  N1662    1.0000 0.88715  0.14301  0.72554  Biso   1.000  N
  N1663    1.0000 0.87497  0.09758  0.73449  Biso   1.000  N
  N1664    1.0000 0.92040  0.09418  0.68909  Biso   1.000  N
  N1665    1.0000 0.91034  0.05971  0.67975  Biso   1.000  N
  N1666    1.0000 0.93887  0.07613  0.66237  Biso   1.000  N
  N1667    1.0000 0.97432  0.12815  0.64925  Biso   1.000  N
  N1668    1.0000 0.99881  0.15762  0.62324  Biso   1.000  N
  N1669    1.0000 0.02009  0.12476  0.65103  Biso   1.000  N
  N1670    1.0000 0.07831  0.15572  0.68603  Biso   1.000  N
  S333     1.0000 0.91304  0.17188  0.70537  Biso   1.000  S
  S334     1.0000 0.00216  0.20072  0.62654  Biso   1.000  S
  C4343    1.0000 0.90972  0.53011  0.14742  Biso   1.000  C
  H2673    1.0000 0.89760  0.53270  0.15560  Biso   1.000  H
  C4344    1.0000 0.92742  0.54250  0.15086  Biso   1.000  C
  C4345    1.0000 0.94523  0.53862  0.13928  Biso   1.000  C
  H2674    1.0000 0.95740  0.54700  0.14080  Biso   1.000  H
  C4346    1.0000 0.94486  0.52190  0.12518  Biso   1.000  C
  H2675    1.0000 0.95710  0.51820  0.11760  Biso   1.000  H
  C4347    1.0000 0.92686  0.51093  0.12242  Biso   1.000  C
  H2676    1.0000 0.92680  0.49990  0.11240  Biso   1.000  H
  C4348    1.0000 0.89774  0.65467  0.21662  Biso   1.000  C
  C4349    1.0000 0.86148  0.58157  0.23679  Biso   1.000  C
  H2677    1.0000 0.85060  0.58290  0.24680  Biso   1.000  H
  C4350    1.0000 0.86260  0.56334  0.22538  Biso   1.000  C
  H2678    1.0000 0.85310  0.55220  0.22800  Biso   1.000  H
  C4351    1.0000 0.87779  0.56142  0.20993  Biso   1.000  C
  H2679    1.0000 0.87840  0.54930  0.20130  Biso   1.000  H
  C4352    1.0000 0.89210  0.57774  0.20751  Biso   1.000  C
  C4353    1.0000 0.89026  0.59528  0.21999  Biso   1.000  C
  H2680    1.0000 0.90020  0.60620  0.21830  Biso   1.000  H
  C4354    1.0000 0.90868  0.57718  0.19123  Biso   1.000  C
  C4355    1.0000 0.92567  0.56030  0.16539  Biso   1.000  C
  C4356    1.0000 0.93511  0.59316  0.17411  Biso   1.000  C
  C4357    1.0000 0.96232  0.61178  0.15399  Biso   1.000  C
  H2681    1.0000 0.96370  0.59940  0.14580  Biso   1.000  H
  C4358    1.0000 0.94779  0.61185  0.17048  Biso   1.000  C
  C4359    1.0000 0.94589  0.62960  0.18265  Biso   1.000  C
  H2682    1.0000 0.93600  0.63030  0.19380  Biso   1.000  H
  C4360    1.0000 0.95891  0.64642  0.17808  Biso   1.000  C
  H2683    1.0000 0.95840  0.65870  0.18640  Biso   1.000  H
  C4361    1.0000 0.97254  0.64511  0.16140  Biso   1.000  C
  H2684    1.0000 0.98110  0.65690  0.15840  Biso   1.000  H
  C4362    1.0000 0.01763  0.61138  0.16699  Biso   1.000  C
  H2685    1.0000 0.00700  0.60110  0.16590  Biso   1.000  H
  C4363    1.0000 0.02940  0.61166  0.18460  Biso   1.000  C
  H2686    1.0000 0.02690  0.60190  0.19550  Biso   1.000  H
  C4364    1.0000 0.04530  0.62667  0.18640  Biso   1.000  C
  H2687    1.0000 0.05410  0.62710  0.19840  Biso   1.000  H
  C4365    1.0000 0.04783  0.64076  0.17016  Biso   1.000  C
  C4366    1.0000 0.03502  0.63915  0.15269  Biso   1.000  C
  H2688    1.0000 0.03700  0.64870  0.14150  Biso   1.000  H
  C4367    1.0000 0.06441  0.65698  0.17092  Biso   1.000  C
  C4368    1.0000 0.00059  0.67522  0.12389  Biso   1.000  C
  N1671    1.0000 0.90904  0.51475  0.13308  Biso   1.000  N
  N1672    1.0000 0.88715  0.64301  0.22554  Biso   1.000  N
  N1673    1.0000 0.87497  0.59758  0.23449  Biso   1.000  N
  N1674    1.0000 0.92040  0.59418  0.18909  Biso   1.000  N
  N1675    1.0000 0.91034  0.55971  0.17975  Biso   1.000  N
  N1676    1.0000 0.93887  0.57613  0.16237  Biso   1.000  N
  N1677    1.0000 0.97432  0.62815  0.14925  Biso   1.000  N
  N1678    1.0000 0.99881  0.65762  0.12324  Biso   1.000  N
  N1679    1.0000 0.02009  0.62476  0.15103  Biso   1.000  N
  N1680    1.0000 0.07831  0.65572  0.18603  Biso   1.000  N
  S335     1.0000 0.91304  0.67188  0.20537  Biso   1.000  S
  S336     1.0000 0.00216  0.70072  0.12654  Biso   1.000  S
  C4369    1.0000 0.90972  0.71989  0.10258  Biso   1.000  C
  H2689    1.0000 0.89760  0.71730  0.09440  Biso   1.000  H
  C4370    1.0000 0.92742  0.70750  0.09914  Biso   1.000  C
  C4371    1.0000 0.94523  0.71138  0.11072  Biso   1.000  C
  H2690    1.0000 0.95740  0.70300  0.10920  Biso   1.000  H
  C4372    1.0000 0.94486  0.72810  0.12482  Biso   1.000  C
  H2691    1.0000 0.95710  0.73180  0.13240  Biso   1.000  H
  C4373    1.0000 0.92686  0.73907  0.12758  Biso   1.000  C
  H2692    1.0000 0.92680  0.75010  0.13760  Biso   1.000  H
  C4374    1.0000 0.89774  0.59533  0.03338  Biso   1.000  C
  C4375    1.0000 0.86148  0.66843  0.01321  Biso   1.000  C
  H2693    1.0000 0.85060  0.66710  0.00320  Biso   1.000  H
  C4376    1.0000 0.86260  0.68666  0.02462  Biso   1.000  C
  H2694    1.0000 0.85310  0.69780  0.02200  Biso   1.000  H
  C4377    1.0000 0.87779  0.68858  0.04007  Biso   1.000  C
  H2695    1.0000 0.87840  0.70070  0.04870  Biso   1.000  H
  C4378    1.0000 0.89210  0.67226  0.04249  Biso   1.000  C
  C4379    1.0000 0.89026  0.65472  0.03001  Biso   1.000  C
  H2696    1.0000 0.90020  0.64380  0.03170  Biso   1.000  H
  C4380    1.0000 0.90868  0.67282  0.05877  Biso   1.000  C
  C4381    1.0000 0.92567  0.68970  0.08461  Biso   1.000  C
  C4382    1.0000 0.93511  0.65684  0.07589  Biso   1.000  C
  C4383    1.0000 0.96232  0.63822  0.09601  Biso   1.000  C
  H2697    1.0000 0.96370  0.65060  0.10420  Biso   1.000  H
  C4384    1.0000 0.94779  0.63815  0.07952  Biso   1.000  C
  C4385    1.0000 0.94589  0.62040  0.06735  Biso   1.000  C
  H2698    1.0000 0.93600  0.61970  0.05620  Biso   1.000  H
  C4386    1.0000 0.95891  0.60358  0.07192  Biso   1.000  C
  H2699    1.0000 0.95840  0.59130  0.06360  Biso   1.000  H
  C4387    1.0000 0.97254  0.60489  0.08860  Biso   1.000  C
  H2700    1.0000 0.98110  0.59310  0.09160  Biso   1.000  H
  C4388    1.0000 0.01763  0.63862  0.08301  Biso   1.000  C
  H2701    1.0000 0.00700  0.64890  0.08410  Biso   1.000  H
  C4389    1.0000 0.02940  0.63834  0.06540  Biso   1.000  C
  H2702    1.0000 0.02690  0.64810  0.05450  Biso   1.000  H
  C4390    1.0000 0.04530  0.62333  0.06360  Biso   1.000  C
  H2703    1.0000 0.05410  0.62290  0.05160  Biso   1.000  H
  C4391    1.0000 0.04783  0.60924  0.07984  Biso   1.000  C
  C4392    1.0000 0.03502  0.61085  0.09731  Biso   1.000  C
  H2704    1.0000 0.03700  0.60130  0.10850  Biso   1.000  H
  C4393    1.0000 0.06441  0.59302  0.07908  Biso   1.000  C
  C4394    1.0000 0.00059  0.57478  0.12611  Biso   1.000  C
  N1681    1.0000 0.90904  0.73525  0.11692  Biso   1.000  N
  N1682    1.0000 0.88715  0.60699  0.02446  Biso   1.000  N
  N1683    1.0000 0.87497  0.65242  0.01551  Biso   1.000  N
  N1684    1.0000 0.92040  0.65582  0.06091  Biso   1.000  N
  N1685    1.0000 0.91034  0.69029  0.07025  Biso   1.000  N
  N1686    1.0000 0.93887  0.67387  0.08763  Biso   1.000  N
  N1687    1.0000 0.97432  0.62185  0.10075  Biso   1.000  N
  N1688    1.0000 0.99881  0.59238  0.12676  Biso   1.000  N
  N1689    1.0000 0.02009  0.62524  0.09897  Biso   1.000  N
  N1690    1.0000 0.07831  0.59428  0.06397  Biso   1.000  N
  S337     1.0000 0.91304  0.57812  0.04463  Biso   1.000  S
  S338     1.0000 0.00216  0.54928  0.12346  Biso   1.000  S
  C4395    1.0000 0.90972  0.21989  0.60258  Biso   1.000  C
  H2705    1.0000 0.89760  0.21730  0.59440  Biso   1.000  H
  C4396    1.0000 0.92742  0.20750  0.59914  Biso   1.000  C
  C4397    1.0000 0.94523  0.21138  0.61072  Biso   1.000  C
  H2706    1.0000 0.95740  0.20300  0.60920  Biso   1.000  H
  C4398    1.0000 0.94486  0.22810  0.62482  Biso   1.000  C
  H2707    1.0000 0.95710  0.23180  0.63240  Biso   1.000  H
  C4399    1.0000 0.92686  0.23907  0.62758  Biso   1.000  C
  H2708    1.0000 0.92680  0.25010  0.63760  Biso   1.000  H
  C4400    1.0000 0.89774  0.09533  0.53338  Biso   1.000  C
  C4401    1.0000 0.86148  0.16843  0.51321  Biso   1.000  C
  H2709    1.0000 0.85060  0.16710  0.50320  Biso   1.000  H
  C4402    1.0000 0.86260  0.18666  0.52462  Biso   1.000  C
  H2710    1.0000 0.85310  0.19780  0.52200  Biso   1.000  H
  C4403    1.0000 0.87779  0.18858  0.54007  Biso   1.000  C
  H2711    1.0000 0.87840  0.20070  0.54870  Biso   1.000  H
  C4404    1.0000 0.89210  0.17226  0.54249  Biso   1.000  C
  C4405    1.0000 0.89026  0.15472  0.53001  Biso   1.000  C
  H2712    1.0000 0.90020  0.14380  0.53170  Biso   1.000  H
  C4406    1.0000 0.90868  0.17282  0.55877  Biso   1.000  C
  C4407    1.0000 0.92567  0.18970  0.58461  Biso   1.000  C
  C4408    1.0000 0.93511  0.15684  0.57589  Biso   1.000  C
  C4409    1.0000 0.96232  0.13822  0.59601  Biso   1.000  C
  H2713    1.0000 0.96370  0.15060  0.60420  Biso   1.000  H
  C4410    1.0000 0.94779  0.13815  0.57952  Biso   1.000  C
  C4411    1.0000 0.94589  0.12040  0.56735  Biso   1.000  C
  H2714    1.0000 0.93600  0.11970  0.55620  Biso   1.000  H
  C4412    1.0000 0.95891  0.10358  0.57192  Biso   1.000  C
  H2715    1.0000 0.95840  0.09130  0.56360  Biso   1.000  H
  C4413    1.0000 0.97254  0.10489  0.58860  Biso   1.000  C
  H2716    1.0000 0.98110  0.09310  0.59160  Biso   1.000  H
  C4414    1.0000 0.01763  0.13862  0.58301  Biso   1.000  C
  H2717    1.0000 0.00700  0.14890  0.58410  Biso   1.000  H
  C4415    1.0000 0.02940  0.13834  0.56540  Biso   1.000  C
  H2718    1.0000 0.02690  0.14810  0.55450  Biso   1.000  H
  C4416    1.0000 0.04530  0.12333  0.56360  Biso   1.000  C
  H2719    1.0000 0.05410  0.12290  0.55160  Biso   1.000  H
  C4417    1.0000 0.04783  0.10924  0.57984  Biso   1.000  C
  C4418    1.0000 0.03502  0.11085  0.59731  Biso   1.000  C
  H2720    1.0000 0.03700  0.10130  0.60850  Biso   1.000  H
  C4419    1.0000 0.06441  0.09302  0.57908  Biso   1.000  C
  C4420    1.0000 0.00059  0.07478  0.62611  Biso   1.000  C
  N1691    1.0000 0.90904  0.23525  0.61692  Biso   1.000  N
  N1692    1.0000 0.88715  0.10699  0.52446  Biso   1.000  N
  N1693    1.0000 0.87497  0.15242  0.51551  Biso   1.000  N
  N1694    1.0000 0.92040  0.15582  0.56091  Biso   1.000  N
  N1695    1.0000 0.91034  0.19029  0.57025  Biso   1.000  N
  N1696    1.0000 0.93887  0.17387  0.58763  Biso   1.000  N
  N1697    1.0000 0.97432  0.12185  0.60075  Biso   1.000  N
  N1698    1.0000 0.99881  0.09238  0.62676  Biso   1.000  N
  N1699    1.0000 0.02009  0.12524  0.59897  Biso   1.000  N
  N1700    1.0000 0.07831  0.09428  0.56397  Biso   1.000  N
  S339     1.0000 0.91304  0.07812  0.54463  Biso   1.000  S
  S340     1.0000 0.00216  0.04928  0.62346  Biso   1.000  S
  C4421    1.0000 0.40972  0.71989  0.60258  Biso   1.000  C
  H2721    1.0000 0.39760  0.71730  0.59440  Biso   1.000  H
  C4422    1.0000 0.42742  0.70750  0.59914  Biso   1.000  C
  C4423    1.0000 0.44523  0.71138  0.61072  Biso   1.000  C
  H2722    1.0000 0.45740  0.70300  0.60920  Biso   1.000  H
  C4424    1.0000 0.44486  0.72810  0.62482  Biso   1.000  C
  H2723    1.0000 0.45710  0.73180  0.63240  Biso   1.000  H
  C4425    1.0000 0.42686  0.73907  0.62758  Biso   1.000  C
  H2724    1.0000 0.42680  0.75010  0.63760  Biso   1.000  H
  C4426    1.0000 0.39774  0.59533  0.53338  Biso   1.000  C
  C4427    1.0000 0.36148  0.66843  0.51321  Biso   1.000  C
  H2725    1.0000 0.35060  0.66710  0.50320  Biso   1.000  H
  C4428    1.0000 0.36260  0.68666  0.52462  Biso   1.000  C
  H2726    1.0000 0.35310  0.69780  0.52200  Biso   1.000  H
  C4429    1.0000 0.37779  0.68858  0.54007  Biso   1.000  C
  H2727    1.0000 0.37840  0.70070  0.54870  Biso   1.000  H
  C4430    1.0000 0.39210  0.67226  0.54249  Biso   1.000  C
  C4431    1.0000 0.39026  0.65472  0.53001  Biso   1.000  C
  H2728    1.0000 0.40020  0.64380  0.53170  Biso   1.000  H
  C4432    1.0000 0.40868  0.67282  0.55877  Biso   1.000  C
  C4433    1.0000 0.42567  0.68970  0.58461  Biso   1.000  C
  C4434    1.0000 0.43511  0.65684  0.57589  Biso   1.000  C
  C4435    1.0000 0.46232  0.63822  0.59601  Biso   1.000  C
  H2729    1.0000 0.46370  0.65060  0.60420  Biso   1.000  H
  C4436    1.0000 0.44779  0.63815  0.57952  Biso   1.000  C
  C4437    1.0000 0.44589  0.62040  0.56735  Biso   1.000  C
  H2730    1.0000 0.43600  0.61970  0.55620  Biso   1.000  H
  C4438    1.0000 0.45891  0.60358  0.57192  Biso   1.000  C
  H2731    1.0000 0.45840  0.59130  0.56360  Biso   1.000  H
  C4439    1.0000 0.47254  0.60489  0.58860  Biso   1.000  C
  H2732    1.0000 0.48110  0.59310  0.59160  Biso   1.000  H
  C4440    1.0000 0.51763  0.63862  0.58301  Biso   1.000  C
  H2733    1.0000 0.50700  0.64890  0.58410  Biso   1.000  H
  C4441    1.0000 0.52940  0.63834  0.56540  Biso   1.000  C
  H2734    1.0000 0.52690  0.64810  0.55450  Biso   1.000  H
  C4442    1.0000 0.54530  0.62333  0.56360  Biso   1.000  C
  H2735    1.0000 0.55410  0.62290  0.55160  Biso   1.000  H
  C4443    1.0000 0.54783  0.60924  0.57984  Biso   1.000  C
  C4444    1.0000 0.53502  0.61085  0.59731  Biso   1.000  C
  H2736    1.0000 0.53700  0.60130  0.60850  Biso   1.000  H
  C4445    1.0000 0.56441  0.59302  0.57908  Biso   1.000  C
  C4446    1.0000 0.50059  0.57478  0.62611  Biso   1.000  C
  N1701    1.0000 0.40904  0.73525  0.61692  Biso   1.000  N
  N1702    1.0000 0.38715  0.60699  0.52446  Biso   1.000  N
  N1703    1.0000 0.37497  0.65242  0.51551  Biso   1.000  N
  N1704    1.0000 0.42040  0.65582  0.56091  Biso   1.000  N
  N1705    1.0000 0.41034  0.69029  0.57025  Biso   1.000  N
  N1706    1.0000 0.43887  0.67387  0.58763  Biso   1.000  N
  N1707    1.0000 0.47432  0.62185  0.60075  Biso   1.000  N
  N1708    1.0000 0.49881  0.59238  0.62676  Biso   1.000  N
  N1709    1.0000 0.52009  0.62524  0.59897  Biso   1.000  N
  N1710    1.0000 0.57831  0.59428  0.56397  Biso   1.000  N
  S341     1.0000 0.41304  0.57812  0.54463  Biso   1.000  S
  S342     1.0000 0.50216  0.54928  0.62346  Biso   1.000  S
  C4447    1.0000 0.40972  0.21989  0.10258  Biso   1.000  C
  H2737    1.0000 0.39760  0.21730  0.09440  Biso   1.000  H
  C4448    1.0000 0.42742  0.20750  0.09914  Biso   1.000  C
  C4449    1.0000 0.44523  0.21138  0.11072  Biso   1.000  C
  H2738    1.0000 0.45740  0.20300  0.10920  Biso   1.000  H
  C4450    1.0000 0.44486  0.22810  0.12482  Biso   1.000  C
  H2739    1.0000 0.45710  0.23180  0.13240  Biso   1.000  H
  C4451    1.0000 0.42686  0.23907  0.12758  Biso   1.000  C
  H2740    1.0000 0.42680  0.25010  0.13760  Biso   1.000  H
  C4452    1.0000 0.39774  0.09533  0.03338  Biso   1.000  C
  C4453    1.0000 0.36148  0.16843  0.01321  Biso   1.000  C
  H2741    1.0000 0.35060  0.16710  0.00320  Biso   1.000  H
  C4454    1.0000 0.36260  0.18666  0.02462  Biso   1.000  C
  H2742    1.0000 0.35310  0.19780  0.02200  Biso   1.000  H
  C4455    1.0000 0.37779  0.18858  0.04007  Biso   1.000  C
  H2743    1.0000 0.37840  0.20070  0.04870  Biso   1.000  H
  C4456    1.0000 0.39210  0.17226  0.04249  Biso   1.000  C
  C4457    1.0000 0.39026  0.15472  0.03001  Biso   1.000  C
  H2744    1.0000 0.40020  0.14380  0.03170  Biso   1.000  H
  C4458    1.0000 0.40868  0.17282  0.05877  Biso   1.000  C
  C4459    1.0000 0.42567  0.18970  0.08461  Biso   1.000  C
  C4460    1.0000 0.43511  0.15684  0.07589  Biso   1.000  C
  C4461    1.0000 0.46232  0.13822  0.09601  Biso   1.000  C
  H2745    1.0000 0.46370  0.15060  0.10420  Biso   1.000  H
  C4462    1.0000 0.44779  0.13815  0.07952  Biso   1.000  C
  C4463    1.0000 0.44589  0.12040  0.06735  Biso   1.000  C
  H2746    1.0000 0.43600  0.11970  0.05620  Biso   1.000  H
  C4464    1.0000 0.45891  0.10358  0.07192  Biso   1.000  C
  H2747    1.0000 0.45840  0.09130  0.06360  Biso   1.000  H
  C4465    1.0000 0.47254  0.10489  0.08860  Biso   1.000  C
  H2748    1.0000 0.48110  0.09310  0.09160  Biso   1.000  H
  C4466    1.0000 0.51763  0.13862  0.08301  Biso   1.000  C
  H2749    1.0000 0.50700  0.14890  0.08410  Biso   1.000  H
  C4467    1.0000 0.52940  0.13834  0.06540  Biso   1.000  C
  H2750    1.0000 0.52690  0.14810  0.05450  Biso   1.000  H
  C4468    1.0000 0.54530  0.12333  0.06360  Biso   1.000  C
  H2751    1.0000 0.55410  0.12290  0.05160  Biso   1.000  H
  C4469    1.0000 0.54783  0.10924  0.07984  Biso   1.000  C
  C4470    1.0000 0.53502  0.11085  0.09731  Biso   1.000  C
  H2752    1.0000 0.53700  0.10130  0.10850  Biso   1.000  H
  C4471    1.0000 0.56441  0.09302  0.07908  Biso   1.000  C
  C4472    1.0000 0.50059  0.07478  0.12611  Biso   1.000  C
  N1711    1.0000 0.40904  0.23525  0.11692  Biso   1.000  N
  N1712    1.0000 0.38715  0.10699  0.02446  Biso   1.000  N
  N1713    1.0000 0.37497  0.15242  0.01551  Biso   1.000  N
  N1714    1.0000 0.42040  0.15582  0.06091  Biso   1.000  N
  N1715    1.0000 0.41034  0.19029  0.07025  Biso   1.000  N
  N1716    1.0000 0.43887  0.17387  0.08763  Biso   1.000  N
  N1717    1.0000 0.47432  0.12185  0.10075  Biso   1.000  N
  N1718    1.0000 0.49881  0.09238  0.12676  Biso   1.000  N
  N1719    1.0000 0.52009  0.12524  0.09897  Biso   1.000  N
  N1720    1.0000 0.57831  0.09428  0.06397  Biso   1.000  N
  S343     1.0000 0.41304  0.07812  0.04463  Biso   1.000  S
  S344     1.0000 0.50216  0.04928  0.12346  Biso   1.000  S
  C4473    1.0000 0.34028  0.21989  0.64742  Biso   1.000  C
  H2753    1.0000 0.35240  0.21730  0.65560  Biso   1.000  H
  C4474    1.0000 0.32258  0.20750  0.65086  Biso   1.000  C
  C4475    1.0000 0.30477  0.21138  0.63928  Biso   1.000  C
  H2754    1.0000 0.29260  0.20300  0.64080  Biso   1.000  H
  C4476    1.0000 0.30514  0.22810  0.62518  Biso   1.000  C
  H2755    1.0000 0.29290  0.23180  0.61760  Biso   1.000  H
  C4477    1.0000 0.32314  0.23907  0.62242  Biso   1.000  C
  H2756    1.0000 0.32320  0.25010  0.61240  Biso   1.000  H
  C4478    1.0000 0.35226  0.09533  0.71662  Biso   1.000  C
  C4479    1.0000 0.38852  0.16843  0.73679  Biso   1.000  C
  H2757    1.0000 0.39940  0.16710  0.74680  Biso   1.000  H
  C4480    1.0000 0.38740  0.18666  0.72538  Biso   1.000  C
  H2758    1.0000 0.39690  0.19780  0.72800  Biso   1.000  H
  C4481    1.0000 0.37221  0.18858  0.70993  Biso   1.000  C
  H2759    1.0000 0.37160  0.20070  0.70130  Biso   1.000  H
  C4482    1.0000 0.35790  0.17226  0.70751  Biso   1.000  C
  C4483    1.0000 0.35974  0.15472  0.71999  Biso   1.000  C
  H2760    1.0000 0.34980  0.14380  0.71830  Biso   1.000  H
  C4484    1.0000 0.34132  0.17282  0.69123  Biso   1.000  C
  C4485    1.0000 0.32433  0.18970  0.66539  Biso   1.000  C
  C4486    1.0000 0.31489  0.15684  0.67411  Biso   1.000  C
  C4487    1.0000 0.28768  0.13822  0.65399  Biso   1.000  C
  H2761    1.0000 0.28630  0.15060  0.64580  Biso   1.000  H
  C4488    1.0000 0.30221  0.13815  0.67048  Biso   1.000  C
  C4489    1.0000 0.30411  0.12040  0.68265  Biso   1.000  C
  H2762    1.0000 0.31400  0.11970  0.69380  Biso   1.000  H
  C4490    1.0000 0.29109  0.10358  0.67808  Biso   1.000  C
  H2763    1.0000 0.29160  0.09130  0.68640  Biso   1.000  H
  C4491    1.0000 0.27746  0.10489  0.66140  Biso   1.000  C
  H2764    1.0000 0.26890  0.09310  0.65840  Biso   1.000  H
  C4492    1.0000 0.23237  0.13862  0.66699  Biso   1.000  C
  H2765    1.0000 0.24300  0.14890  0.66590  Biso   1.000  H
  C4493    1.0000 0.22060  0.13834  0.68460  Biso   1.000  C
  H2766    1.0000 0.22310  0.14810  0.69550  Biso   1.000  H
  C4494    1.0000 0.20470  0.12333  0.68640  Biso   1.000  C
  H2767    1.0000 0.19590  0.12290  0.69840  Biso   1.000  H
  C4495    1.0000 0.20217  0.10924  0.67016  Biso   1.000  C
  C4496    1.0000 0.21498  0.11085  0.65269  Biso   1.000  C
  H2768    1.0000 0.21300  0.10130  0.64150  Biso   1.000  H
  C4497    1.0000 0.18559  0.09302  0.67092  Biso   1.000  C
  C4498    1.0000 0.24941  0.07478  0.62389  Biso   1.000  C
  N1721    1.0000 0.34096  0.23525  0.63308  Biso   1.000  N
  N1722    1.0000 0.36285  0.10699  0.72554  Biso   1.000  N
  N1723    1.0000 0.37503  0.15242  0.73449  Biso   1.000  N
  N1724    1.0000 0.32960  0.15582  0.68909  Biso   1.000  N
  N1725    1.0000 0.33966  0.19029  0.67975  Biso   1.000  N
  N1726    1.0000 0.31113  0.17387  0.66237  Biso   1.000  N
  N1727    1.0000 0.27568  0.12185  0.64925  Biso   1.000  N
  N1728    1.0000 0.25119  0.09238  0.62324  Biso   1.000  N
  N1729    1.0000 0.22991  0.12524  0.65103  Biso   1.000  N
  N1730    1.0000 0.17169  0.09428  0.68603  Biso   1.000  N
  S345     1.0000 0.33696  0.07812  0.70537  Biso   1.000  S
  S346     1.0000 0.24784  0.04928  0.62654  Biso   1.000  S
  C4499    1.0000 0.34028  0.71989  0.14742  Biso   1.000  C
  H2769    1.0000 0.35240  0.71730  0.15560  Biso   1.000  H
  C4500    1.0000 0.32258  0.70750  0.15086  Biso   1.000  C
  C4501    1.0000 0.30477  0.71138  0.13928  Biso   1.000  C
  H2770    1.0000 0.29260  0.70300  0.14080  Biso   1.000  H
  C4502    1.0000 0.30514  0.72810  0.12518  Biso   1.000  C
  H2771    1.0000 0.29290  0.73180  0.11760  Biso   1.000  H
  C4503    1.0000 0.32314  0.73907  0.12242  Biso   1.000  C
  H2772    1.0000 0.32320  0.75010  0.11240  Biso   1.000  H
  C4504    1.0000 0.35226  0.59533  0.21662  Biso   1.000  C
  C4505    1.0000 0.38852  0.66843  0.23679  Biso   1.000  C
  H2773    1.0000 0.39940  0.66710  0.24680  Biso   1.000  H
  C4506    1.0000 0.38740  0.68666  0.22538  Biso   1.000  C
  H2774    1.0000 0.39690  0.69780  0.22800  Biso   1.000  H
  C4507    1.0000 0.37221  0.68858  0.20993  Biso   1.000  C
  H2775    1.0000 0.37160  0.70070  0.20130  Biso   1.000  H
  C4508    1.0000 0.35790  0.67226  0.20751  Biso   1.000  C
  C4509    1.0000 0.35974  0.65472  0.21999  Biso   1.000  C
  H2776    1.0000 0.34980  0.64380  0.21830  Biso   1.000  H
  C4510    1.0000 0.34132  0.67282  0.19123  Biso   1.000  C
  C4511    1.0000 0.32433  0.68970  0.16539  Biso   1.000  C
  C4512    1.0000 0.31489  0.65684  0.17411  Biso   1.000  C
  C4513    1.0000 0.28768  0.63822  0.15399  Biso   1.000  C
  H2777    1.0000 0.28630  0.65060  0.14580  Biso   1.000  H
  C4514    1.0000 0.30221  0.63815  0.17048  Biso   1.000  C
  C4515    1.0000 0.30411  0.62040  0.18265  Biso   1.000  C
  H2778    1.0000 0.31400  0.61970  0.19380  Biso   1.000  H
  C4516    1.0000 0.29109  0.60358  0.17808  Biso   1.000  C
  H2779    1.0000 0.29160  0.59130  0.18640  Biso   1.000  H
  C4517    1.0000 0.27746  0.60489  0.16140  Biso   1.000  C
  H2780    1.0000 0.26890  0.59310  0.15840  Biso   1.000  H
  C4518    1.0000 0.23237  0.63862  0.16699  Biso   1.000  C
  H2781    1.0000 0.24300  0.64890  0.16590  Biso   1.000  H
  C4519    1.0000 0.22060  0.63834  0.18460  Biso   1.000  C
  H2782    1.0000 0.22310  0.64810  0.19550  Biso   1.000  H
  C4520    1.0000 0.20470  0.62333  0.18640  Biso   1.000  C
  H2783    1.0000 0.19590  0.62290  0.19840  Biso   1.000  H
  C4521    1.0000 0.20217  0.60924  0.17016  Biso   1.000  C
  C4522    1.0000 0.21498  0.61085  0.15269  Biso   1.000  C
  H2784    1.0000 0.21300  0.60130  0.14150  Biso   1.000  H
  C4523    1.0000 0.18559  0.59302  0.17092  Biso   1.000  C
  C4524    1.0000 0.24941  0.57478  0.12389  Biso   1.000  C
  N1731    1.0000 0.34096  0.73525  0.13308  Biso   1.000  N
  N1732    1.0000 0.36285  0.60699  0.22554  Biso   1.000  N
  N1733    1.0000 0.37503  0.65242  0.23449  Biso   1.000  N
  N1734    1.0000 0.32960  0.65582  0.18909  Biso   1.000  N
  N1735    1.0000 0.33966  0.69029  0.17975  Biso   1.000  N
  N1736    1.0000 0.31113  0.67387  0.16237  Biso   1.000  N
  N1737    1.0000 0.27568  0.62185  0.14925  Biso   1.000  N
  N1738    1.0000 0.25119  0.59238  0.12324  Biso   1.000  N
  N1739    1.0000 0.22991  0.62524  0.15103  Biso   1.000  N
  N1740    1.0000 0.17169  0.59428  0.18603  Biso   1.000  N
  S347     1.0000 0.33696  0.57812  0.20537  Biso   1.000  S
  S348     1.0000 0.24784  0.54928  0.12654  Biso   1.000  S
  C4525    1.0000 0.84028  0.21989  0.14742  Biso   1.000  C
  H2785    1.0000 0.85240  0.21730  0.15560  Biso   1.000  H
  C4526    1.0000 0.82258  0.20750  0.15086  Biso   1.000  C
  C4527    1.0000 0.80477  0.21138  0.13928  Biso   1.000  C
  H2786    1.0000 0.79260  0.20300  0.14080  Biso   1.000  H
  C4528    1.0000 0.80514  0.22810  0.12518  Biso   1.000  C
  H2787    1.0000 0.79290  0.23180  0.11760  Biso   1.000  H
  C4529    1.0000 0.82314  0.23907  0.12242  Biso   1.000  C
  H2788    1.0000 0.82320  0.25010  0.11240  Biso   1.000  H
  C4530    1.0000 0.85226  0.09533  0.21662  Biso   1.000  C
  C4531    1.0000 0.88852  0.16843  0.23679  Biso   1.000  C
  H2789    1.0000 0.89940  0.16710  0.24680  Biso   1.000  H
  C4532    1.0000 0.88740  0.18666  0.22538  Biso   1.000  C
  H2790    1.0000 0.89690  0.19780  0.22800  Biso   1.000  H
  C4533    1.0000 0.87221  0.18858  0.20993  Biso   1.000  C
  H2791    1.0000 0.87160  0.20070  0.20130  Biso   1.000  H
  C4534    1.0000 0.85790  0.17226  0.20751  Biso   1.000  C
  C4535    1.0000 0.85974  0.15472  0.21999  Biso   1.000  C
  H2792    1.0000 0.84980  0.14380  0.21830  Biso   1.000  H
  C4536    1.0000 0.84132  0.17282  0.19123  Biso   1.000  C
  C4537    1.0000 0.82433  0.18970  0.16539  Biso   1.000  C
  C4538    1.0000 0.81489  0.15684  0.17411  Biso   1.000  C
  C4539    1.0000 0.78768  0.13822  0.15399  Biso   1.000  C
  H2793    1.0000 0.78630  0.15060  0.14580  Biso   1.000  H
  C4540    1.0000 0.80221  0.13815  0.17048  Biso   1.000  C
  C4541    1.0000 0.80411  0.12040  0.18265  Biso   1.000  C
  H2794    1.0000 0.81400  0.11970  0.19380  Biso   1.000  H
  C4542    1.0000 0.79109  0.10358  0.17808  Biso   1.000  C
  H2795    1.0000 0.79160  0.09130  0.18640  Biso   1.000  H
  C4543    1.0000 0.77746  0.10489  0.16140  Biso   1.000  C
  H2796    1.0000 0.76890  0.09310  0.15840  Biso   1.000  H
  C4544    1.0000 0.73237  0.13862  0.16699  Biso   1.000  C
  H2797    1.0000 0.74300  0.14890  0.16590  Biso   1.000  H
  C4545    1.0000 0.72060  0.13834  0.18460  Biso   1.000  C
  H2798    1.0000 0.72310  0.14810  0.19550  Biso   1.000  H
  C4546    1.0000 0.70470  0.12333  0.18640  Biso   1.000  C
  H2799    1.0000 0.69590  0.12290  0.19840  Biso   1.000  H
  C4547    1.0000 0.70217  0.10924  0.17016  Biso   1.000  C
  C4548    1.0000 0.71498  0.11085  0.15269  Biso   1.000  C
  H2800    1.0000 0.71300  0.10130  0.14150  Biso   1.000  H
  C4549    1.0000 0.68559  0.09302  0.17092  Biso   1.000  C
  C4550    1.0000 0.74941  0.07478  0.12389  Biso   1.000  C
  N1741    1.0000 0.84096  0.23525  0.13308  Biso   1.000  N
  N1742    1.0000 0.86285  0.10699  0.22554  Biso   1.000  N
  N1743    1.0000 0.87503  0.15242  0.23449  Biso   1.000  N
  N1744    1.0000 0.82960  0.15582  0.18909  Biso   1.000  N
  N1745    1.0000 0.83966  0.19029  0.17975  Biso   1.000  N
  N1746    1.0000 0.81113  0.17387  0.16237  Biso   1.000  N
  N1747    1.0000 0.77568  0.12185  0.14925  Biso   1.000  N
  N1748    1.0000 0.75119  0.09238  0.12324  Biso   1.000  N
  N1749    1.0000 0.72991  0.12524  0.15103  Biso   1.000  N
  N1750    1.0000 0.67169  0.09428  0.18603  Biso   1.000  N
  S349     1.0000 0.83696  0.07812  0.20537  Biso   1.000  S
  S350     1.0000 0.74784  0.04928  0.12654  Biso   1.000  S
  C4551    1.0000 0.84028  0.71989  0.64742  Biso   1.000  C
  H2801    1.0000 0.85240  0.71730  0.65560  Biso   1.000  H
  C4552    1.0000 0.82258  0.70750  0.65086  Biso   1.000  C
  C4553    1.0000 0.80477  0.71138  0.63928  Biso   1.000  C
  H2802    1.0000 0.79260  0.70300  0.64080  Biso   1.000  H
  C4554    1.0000 0.80514  0.72810  0.62518  Biso   1.000  C
  H2803    1.0000 0.79290  0.73180  0.61760  Biso   1.000  H
  C4555    1.0000 0.82314  0.73907  0.62242  Biso   1.000  C
  H2804    1.0000 0.82320  0.75010  0.61240  Biso   1.000  H
  C4556    1.0000 0.85226  0.59533  0.71662  Biso   1.000  C
  C4557    1.0000 0.88852  0.66843  0.73679  Biso   1.000  C
  H2805    1.0000 0.89940  0.66710  0.74680  Biso   1.000  H
  C4558    1.0000 0.88740  0.68666  0.72538  Biso   1.000  C
  H2806    1.0000 0.89690  0.69780  0.72800  Biso   1.000  H
  C4559    1.0000 0.87221  0.68858  0.70993  Biso   1.000  C
  H2807    1.0000 0.87160  0.70070  0.70130  Biso   1.000  H
  C4560    1.0000 0.85790  0.67226  0.70751  Biso   1.000  C
  C4561    1.0000 0.85974  0.65472  0.71999  Biso   1.000  C
  H2808    1.0000 0.84980  0.64380  0.71830  Biso   1.000  H
  C4562    1.0000 0.84132  0.67282  0.69123  Biso   1.000  C
  C4563    1.0000 0.82433  0.68970  0.66539  Biso   1.000  C
  C4564    1.0000 0.81489  0.65684  0.67411  Biso   1.000  C
  C4565    1.0000 0.78768  0.63822  0.65399  Biso   1.000  C
  H2809    1.0000 0.78630  0.65060  0.64580  Biso   1.000  H
  C4566    1.0000 0.80221  0.63815  0.67048  Biso   1.000  C
  C4567    1.0000 0.80411  0.62040  0.68265  Biso   1.000  C
  H2810    1.0000 0.81400  0.61970  0.69380  Biso   1.000  H
  C4568    1.0000 0.79109  0.60358  0.67808  Biso   1.000  C
  H2811    1.0000 0.79160  0.59130  0.68640  Biso   1.000  H
  C4569    1.0000 0.77746  0.60489  0.66140  Biso   1.000  C
  H2812    1.0000 0.76890  0.59310  0.65840  Biso   1.000  H
  C4570    1.0000 0.73237  0.63862  0.66699  Biso   1.000  C
  H2813    1.0000 0.74300  0.64890  0.66590  Biso   1.000  H
  C4571    1.0000 0.72060  0.63834  0.68460  Biso   1.000  C
  H2814    1.0000 0.72310  0.64810  0.69550  Biso   1.000  H
  C4572    1.0000 0.70470  0.62333  0.68640  Biso   1.000  C
  H2815    1.0000 0.69590  0.62290  0.69840  Biso   1.000  H
  C4573    1.0000 0.70217  0.60924  0.67016  Biso   1.000  C
  C4574    1.0000 0.71498  0.61085  0.65269  Biso   1.000  C
  H2816    1.0000 0.71300  0.60130  0.64150  Biso   1.000  H
  C4575    1.0000 0.68559  0.59302  0.67092  Biso   1.000  C
  C4576    1.0000 0.74941  0.57478  0.62389  Biso   1.000  C
  N1751    1.0000 0.84096  0.73525  0.63308  Biso   1.000  N
  N1752    1.0000 0.86285  0.60699  0.72554  Biso   1.000  N
  N1753    1.0000 0.87503  0.65242  0.73449  Biso   1.000  N
  N1754    1.0000 0.82960  0.65582  0.68909  Biso   1.000  N
  N1755    1.0000 0.83966  0.69029  0.67975  Biso   1.000  N
  N1756    1.0000 0.81113  0.67387  0.66237  Biso   1.000  N
  N1757    1.0000 0.77568  0.62185  0.64925  Biso   1.000  N
  N1758    1.0000 0.75119  0.59238  0.62324  Biso   1.000  N
  N1759    1.0000 0.72991  0.62524  0.65103  Biso   1.000  N
  N1760    1.0000 0.67169  0.59428  0.68603  Biso   1.000  N
  S351     1.0000 0.83696  0.57812  0.70537  Biso   1.000  S
  S352     1.0000 0.74784  0.54928  0.62654  Biso   1.000  S
  C4577    1.0000 0.03011  0.14742  0.40972  Biso   1.000  C
  H2817    1.0000 0.03270  0.15560  0.39760  Biso   1.000  H
  C4578    1.0000 0.04250  0.15086  0.42742  Biso   1.000  C
  C4579    1.0000 0.03862  0.13928  0.44523  Biso   1.000  C
  H2818    1.0000 0.04700  0.14080  0.45740  Biso   1.000  H
  C4580    1.0000 0.02190  0.12518  0.44486  Biso   1.000  C
  H2819    1.0000 0.01820  0.11760  0.45710  Biso   1.000  H
  C4581    1.0000 0.01093  0.12242  0.42686  Biso   1.000  C
  H2820    1.0000 0.99990  0.11240  0.42680  Biso   1.000  H
  C4582    1.0000 0.15467  0.21662  0.39774  Biso   1.000  C
  C4583    1.0000 0.08157  0.23679  0.36148  Biso   1.000  C
  H2821    1.0000 0.08290  0.24680  0.35060  Biso   1.000  H
  C4584    1.0000 0.06334  0.22538  0.36260  Biso   1.000  C
  H2822    1.0000 0.05220  0.22800  0.35310  Biso   1.000  H
  C4585    1.0000 0.06142  0.20993  0.37779  Biso   1.000  C
  H2823    1.0000 0.04930  0.20130  0.37840  Biso   1.000  H
  C4586    1.0000 0.07774  0.20751  0.39210  Biso   1.000  C
  C4587    1.0000 0.09528  0.21999  0.39026  Biso   1.000  C
  H2824    1.0000 0.10620  0.21830  0.40020  Biso   1.000  H
  C4588    1.0000 0.07718  0.19123  0.40868  Biso   1.000  C
  C4589    1.0000 0.06030  0.16539  0.42567  Biso   1.000  C
  C4590    1.0000 0.09316  0.17411  0.43511  Biso   1.000  C
  C4591    1.0000 0.11178  0.15399  0.46232  Biso   1.000  C
  H2825    1.0000 0.09940  0.14580  0.46370  Biso   1.000  H
  C4592    1.0000 0.11185  0.17048  0.44779  Biso   1.000  C
  C4593    1.0000 0.12960  0.18265  0.44589  Biso   1.000  C
  H2826    1.0000 0.13030  0.19380  0.43600  Biso   1.000  H
  C4594    1.0000 0.14642  0.17808  0.45891  Biso   1.000  C
  H2827    1.0000 0.15870  0.18640  0.45840  Biso   1.000  H
  C4595    1.0000 0.14511  0.16140  0.47254  Biso   1.000  C
  H2828    1.0000 0.15690  0.15840  0.48110  Biso   1.000  H
  C4596    1.0000 0.11138  0.16699  0.51763  Biso   1.000  C
  H2829    1.0000 0.10110  0.16590  0.50700  Biso   1.000  H
  C4597    1.0000 0.11166  0.18460  0.52940  Biso   1.000  C
  H2830    1.0000 0.10190  0.19550  0.52690  Biso   1.000  H
  C4598    1.0000 0.12667  0.18640  0.54530  Biso   1.000  C
  H2831    1.0000 0.12710  0.19840  0.55410  Biso   1.000  H
  C4599    1.0000 0.14076  0.17016  0.54783  Biso   1.000  C
  C4600    1.0000 0.13915  0.15269  0.53502  Biso   1.000  C
  H2832    1.0000 0.14870  0.14150  0.53700  Biso   1.000  H
  C4601    1.0000 0.15698  0.17092  0.56441  Biso   1.000  C
  C4602    1.0000 0.17522  0.12389  0.50059  Biso   1.000  C
  N1761    1.0000 0.01475  0.13308  0.40904  Biso   1.000  N
  N1762    1.0000 0.14301  0.22554  0.38715  Biso   1.000  N
  N1763    1.0000 0.09758  0.23449  0.37497  Biso   1.000  N
  N1764    1.0000 0.09418  0.18909  0.42040  Biso   1.000  N
  N1765    1.0000 0.05971  0.17975  0.41034  Biso   1.000  N
  N1766    1.0000 0.07613  0.16237  0.43887  Biso   1.000  N
  N1767    1.0000 0.12815  0.14925  0.47432  Biso   1.000  N
  N1768    1.0000 0.15762  0.12324  0.49881  Biso   1.000  N
  N1769    1.0000 0.12476  0.15103  0.52009  Biso   1.000  N
  N1770    1.0000 0.15572  0.18603  0.57831  Biso   1.000  N
  S353     1.0000 0.17188  0.20537  0.41304  Biso   1.000  S
  S354     1.0000 0.20072  0.12654  0.50216  Biso   1.000  S
  C4603    1.0000 0.03011  0.64742  0.90972  Biso   1.000  C
  H2833    1.0000 0.03270  0.65560  0.89760  Biso   1.000  H
  C4604    1.0000 0.04250  0.65086  0.92742  Biso   1.000  C
  C4605    1.0000 0.03862  0.63928  0.94523  Biso   1.000  C
  H2834    1.0000 0.04700  0.64080  0.95740  Biso   1.000  H
  C4606    1.0000 0.02190  0.62518  0.94486  Biso   1.000  C
  H2835    1.0000 0.01820  0.61760  0.95710  Biso   1.000  H
  C4607    1.0000 0.01093  0.62242  0.92686  Biso   1.000  C
  H2836    1.0000 0.99990  0.61240  0.92680  Biso   1.000  H
  C4608    1.0000 0.15467  0.71662  0.89774  Biso   1.000  C
  C4609    1.0000 0.08157  0.73679  0.86148  Biso   1.000  C
  H2837    1.0000 0.08290  0.74680  0.85060  Biso   1.000  H
  C4610    1.0000 0.06334  0.72538  0.86260  Biso   1.000  C
  H2838    1.0000 0.05220  0.72800  0.85310  Biso   1.000  H
  C4611    1.0000 0.06142  0.70993  0.87779  Biso   1.000  C
  H2839    1.0000 0.04930  0.70130  0.87840  Biso   1.000  H
  C4612    1.0000 0.07774  0.70751  0.89210  Biso   1.000  C
  C4613    1.0000 0.09528  0.71999  0.89026  Biso   1.000  C
  H2840    1.0000 0.10620  0.71830  0.90020  Biso   1.000  H
  C4614    1.0000 0.07718  0.69123  0.90868  Biso   1.000  C
  C4615    1.0000 0.06030  0.66539  0.92567  Biso   1.000  C
  C4616    1.0000 0.09316  0.67411  0.93511  Biso   1.000  C
  C4617    1.0000 0.11178  0.65399  0.96232  Biso   1.000  C
  H2841    1.0000 0.09940  0.64580  0.96370  Biso   1.000  H
  C4618    1.0000 0.11185  0.67048  0.94779  Biso   1.000  C
  C4619    1.0000 0.12960  0.68265  0.94589  Biso   1.000  C
  H2842    1.0000 0.13030  0.69380  0.93600  Biso   1.000  H
  C4620    1.0000 0.14642  0.67808  0.95891  Biso   1.000  C
  H2843    1.0000 0.15870  0.68640  0.95840  Biso   1.000  H
  C4621    1.0000 0.14511  0.66140  0.97254  Biso   1.000  C
  H2844    1.0000 0.15690  0.65840  0.98110  Biso   1.000  H
  C4622    1.0000 0.11138  0.66699  0.01763  Biso   1.000  C
  H2845    1.0000 0.10110  0.66590  0.00700  Biso   1.000  H
  C4623    1.0000 0.11166  0.68460  0.02940  Biso   1.000  C
  H2846    1.0000 0.10190  0.69550  0.02690  Biso   1.000  H
  C4624    1.0000 0.12667  0.68640  0.04530  Biso   1.000  C
  H2847    1.0000 0.12710  0.69840  0.05410  Biso   1.000  H
  C4625    1.0000 0.14076  0.67016  0.04783  Biso   1.000  C
  C4626    1.0000 0.13915  0.65269  0.03502  Biso   1.000  C
  H2848    1.0000 0.14870  0.64150  0.03700  Biso   1.000  H
  C4627    1.0000 0.15698  0.67092  0.06441  Biso   1.000  C
  C4628    1.0000 0.17522  0.62389  0.00059  Biso   1.000  C
  N1771    1.0000 0.01475  0.63308  0.90904  Biso   1.000  N
  N1772    1.0000 0.14301  0.72554  0.88715  Biso   1.000  N
  N1773    1.0000 0.09758  0.73449  0.87497  Biso   1.000  N
  N1774    1.0000 0.09418  0.68909  0.92040  Biso   1.000  N
  N1775    1.0000 0.05971  0.67975  0.91034  Biso   1.000  N
  N1776    1.0000 0.07613  0.66237  0.93887  Biso   1.000  N
  N1777    1.0000 0.12815  0.64925  0.97432  Biso   1.000  N
  N1778    1.0000 0.15762  0.62324  0.99881  Biso   1.000  N
  N1779    1.0000 0.12476  0.65103  0.02009  Biso   1.000  N
  N1780    1.0000 0.15572  0.68603  0.07831  Biso   1.000  N
  S355     1.0000 0.17188  0.70537  0.91304  Biso   1.000  S
  S356     1.0000 0.20072  0.62654  0.00216  Biso   1.000  S
  C4629    1.0000 0.53011  0.14742  0.90972  Biso   1.000  C
  H2849    1.0000 0.53270  0.15560  0.89760  Biso   1.000  H
  C4630    1.0000 0.54250  0.15086  0.92742  Biso   1.000  C
  C4631    1.0000 0.53862  0.13928  0.94523  Biso   1.000  C
  H2850    1.0000 0.54700  0.14080  0.95740  Biso   1.000  H
  C4632    1.0000 0.52190  0.12518  0.94486  Biso   1.000  C
  H2851    1.0000 0.51820  0.11760  0.95710  Biso   1.000  H
  C4633    1.0000 0.51093  0.12242  0.92686  Biso   1.000  C
  H2852    1.0000 0.49990  0.11240  0.92680  Biso   1.000  H
  C4634    1.0000 0.65467  0.21662  0.89774  Biso   1.000  C
  C4635    1.0000 0.58157  0.23679  0.86148  Biso   1.000  C
  H2853    1.0000 0.58290  0.24680  0.85060  Biso   1.000  H
  C4636    1.0000 0.56334  0.22538  0.86260  Biso   1.000  C
  H2854    1.0000 0.55220  0.22800  0.85310  Biso   1.000  H
  C4637    1.0000 0.56142  0.20993  0.87779  Biso   1.000  C
  H2855    1.0000 0.54930  0.20130  0.87840  Biso   1.000  H
  C4638    1.0000 0.57774  0.20751  0.89210  Biso   1.000  C
  C4639    1.0000 0.59528  0.21999  0.89026  Biso   1.000  C
  H2856    1.0000 0.60620  0.21830  0.90020  Biso   1.000  H
  C4640    1.0000 0.57718  0.19123  0.90868  Biso   1.000  C
  C4641    1.0000 0.56030  0.16539  0.92567  Biso   1.000  C
  C4642    1.0000 0.59316  0.17411  0.93511  Biso   1.000  C
  C4643    1.0000 0.61178  0.15399  0.96232  Biso   1.000  C
  H2857    1.0000 0.59940  0.14580  0.96370  Biso   1.000  H
  C4644    1.0000 0.61185  0.17048  0.94779  Biso   1.000  C
  C4645    1.0000 0.62960  0.18265  0.94589  Biso   1.000  C
  H2858    1.0000 0.63030  0.19380  0.93600  Biso   1.000  H
  C4646    1.0000 0.64642  0.17808  0.95891  Biso   1.000  C
  H2859    1.0000 0.65870  0.18640  0.95840  Biso   1.000  H
  C4647    1.0000 0.64511  0.16140  0.97254  Biso   1.000  C
  H2860    1.0000 0.65690  0.15840  0.98110  Biso   1.000  H
  C4648    1.0000 0.61138  0.16699  0.01763  Biso   1.000  C
  H2861    1.0000 0.60110  0.16590  0.00700  Biso   1.000  H
  C4649    1.0000 0.61166  0.18460  0.02940  Biso   1.000  C
  H2862    1.0000 0.60190  0.19550  0.02690  Biso   1.000  H
  C4650    1.0000 0.62667  0.18640  0.04530  Biso   1.000  C
  H2863    1.0000 0.62710  0.19840  0.05410  Biso   1.000  H
  C4651    1.0000 0.64076  0.17016  0.04783  Biso   1.000  C
  C4652    1.0000 0.63915  0.15269  0.03502  Biso   1.000  C
  H2864    1.0000 0.64870  0.14150  0.03700  Biso   1.000  H
  C4653    1.0000 0.65698  0.17092  0.06441  Biso   1.000  C
  C4654    1.0000 0.67522  0.12389  0.00059  Biso   1.000  C
  N1781    1.0000 0.51475  0.13308  0.90904  Biso   1.000  N
  N1782    1.0000 0.64301  0.22554  0.88715  Biso   1.000  N
  N1783    1.0000 0.59758  0.23449  0.87497  Biso   1.000  N
  N1784    1.0000 0.59418  0.18909  0.92040  Biso   1.000  N
  N1785    1.0000 0.55971  0.17975  0.91034  Biso   1.000  N
  N1786    1.0000 0.57613  0.16237  0.93887  Biso   1.000  N
  N1787    1.0000 0.62815  0.14925  0.97432  Biso   1.000  N
  N1788    1.0000 0.65762  0.12324  0.99881  Biso   1.000  N
  N1789    1.0000 0.62476  0.15103  0.02009  Biso   1.000  N
  N1790    1.0000 0.65572  0.18603  0.07831  Biso   1.000  N
  S357     1.0000 0.67188  0.20537  0.91304  Biso   1.000  S
  S358     1.0000 0.70072  0.12654  0.00216  Biso   1.000  S
  C4655    1.0000 0.53011  0.64742  0.40972  Biso   1.000  C
  H2865    1.0000 0.53270  0.65560  0.39760  Biso   1.000  H
  C4656    1.0000 0.54250  0.65086  0.42742  Biso   1.000  C
  C4657    1.0000 0.53862  0.63928  0.44523  Biso   1.000  C
  H2866    1.0000 0.54700  0.64080  0.45740  Biso   1.000  H
  C4658    1.0000 0.52190  0.62518  0.44486  Biso   1.000  C
  H2867    1.0000 0.51820  0.61760  0.45710  Biso   1.000  H
  C4659    1.0000 0.51093  0.62242  0.42686  Biso   1.000  C
  H2868    1.0000 0.49990  0.61240  0.42680  Biso   1.000  H
  C4660    1.0000 0.65467  0.71662  0.39774  Biso   1.000  C
  C4661    1.0000 0.58157  0.73679  0.36148  Biso   1.000  C
  H2869    1.0000 0.58290  0.74680  0.35060  Biso   1.000  H
  C4662    1.0000 0.56334  0.72538  0.36260  Biso   1.000  C
  H2870    1.0000 0.55220  0.72800  0.35310  Biso   1.000  H
  C4663    1.0000 0.56142  0.70993  0.37779  Biso   1.000  C
  H2871    1.0000 0.54930  0.70130  0.37840  Biso   1.000  H
  C4664    1.0000 0.57774  0.70751  0.39210  Biso   1.000  C
  C4665    1.0000 0.59528  0.71999  0.39026  Biso   1.000  C
  H2872    1.0000 0.60620  0.71830  0.40020  Biso   1.000  H
  C4666    1.0000 0.57718  0.69123  0.40868  Biso   1.000  C
  C4667    1.0000 0.56030  0.66539  0.42567  Biso   1.000  C
  C4668    1.0000 0.59316  0.67411  0.43511  Biso   1.000  C
  C4669    1.0000 0.61178  0.65399  0.46232  Biso   1.000  C
  H2873    1.0000 0.59940  0.64580  0.46370  Biso   1.000  H
  C4670    1.0000 0.61185  0.67048  0.44779  Biso   1.000  C
  C4671    1.0000 0.62960  0.68265  0.44589  Biso   1.000  C
  H2874    1.0000 0.63030  0.69380  0.43600  Biso   1.000  H
  C4672    1.0000 0.64642  0.67808  0.45891  Biso   1.000  C
  H2875    1.0000 0.65870  0.68640  0.45840  Biso   1.000  H
  C4673    1.0000 0.64511  0.66140  0.47254  Biso   1.000  C
  H2876    1.0000 0.65690  0.65840  0.48110  Biso   1.000  H
  C4674    1.0000 0.61138  0.66699  0.51763  Biso   1.000  C
  H2877    1.0000 0.60110  0.66590  0.50700  Biso   1.000  H
  C4675    1.0000 0.61166  0.68460  0.52940  Biso   1.000  C
  H2878    1.0000 0.60190  0.69550  0.52690  Biso   1.000  H
  C4676    1.0000 0.62667  0.68640  0.54530  Biso   1.000  C
  H2879    1.0000 0.62710  0.69840  0.55410  Biso   1.000  H
  C4677    1.0000 0.64076  0.67016  0.54783  Biso   1.000  C
  C4678    1.0000 0.63915  0.65269  0.53502  Biso   1.000  C
  H2880    1.0000 0.64870  0.64150  0.53700  Biso   1.000  H
  C4679    1.0000 0.65698  0.67092  0.56441  Biso   1.000  C
  C4680    1.0000 0.67522  0.62389  0.50059  Biso   1.000  C
  N1791    1.0000 0.51475  0.63308  0.40904  Biso   1.000  N
  N1792    1.0000 0.64301  0.72554  0.38715  Biso   1.000  N
  N1793    1.0000 0.59758  0.73449  0.37497  Biso   1.000  N
  N1794    1.0000 0.59418  0.68909  0.42040  Biso   1.000  N
  N1795    1.0000 0.55971  0.67975  0.41034  Biso   1.000  N
  N1796    1.0000 0.57613  0.66237  0.43887  Biso   1.000  N
  N1797    1.0000 0.62815  0.64925  0.47432  Biso   1.000  N
  N1798    1.0000 0.65762  0.62324  0.49881  Biso   1.000  N
  N1799    1.0000 0.62476  0.65103  0.52009  Biso   1.000  N
  N1800    1.0000 0.65572  0.68603  0.57831  Biso   1.000  N
  S359     1.0000 0.67188  0.70537  0.41304  Biso   1.000  S
  S360     1.0000 0.70072  0.62654  0.50216  Biso   1.000  S
  C4681    1.0000 0.53011  0.60258  0.84028  Biso   1.000  C
  H2881    1.0000 0.53270  0.59440  0.85240  Biso   1.000  H
  C4682    1.0000 0.54250  0.59914  0.82258  Biso   1.000  C
  C4683    1.0000 0.53862  0.61072  0.80477  Biso   1.000  C
  H2882    1.0000 0.54700  0.60920  0.79260  Biso   1.000  H
  C4684    1.0000 0.52190  0.62482  0.80514  Biso   1.000  C
  H2883    1.0000 0.51820  0.63240  0.79290  Biso   1.000  H
  C4685    1.0000 0.51093  0.62758  0.82314  Biso   1.000  C
  H2884    1.0000 0.49990  0.63760  0.82320  Biso   1.000  H
  C4686    1.0000 0.65467  0.53338  0.85226  Biso   1.000  C
  C4687    1.0000 0.58157  0.51321  0.88852  Biso   1.000  C
  H2885    1.0000 0.58290  0.50320  0.89940  Biso   1.000  H
  C4688    1.0000 0.56334  0.52462  0.88740  Biso   1.000  C
  H2886    1.0000 0.55220  0.52200  0.89690  Biso   1.000  H
  C4689    1.0000 0.56142  0.54007  0.87221  Biso   1.000  C
  H2887    1.0000 0.54930  0.54870  0.87160  Biso   1.000  H
  C4690    1.0000 0.57774  0.54249  0.85790  Biso   1.000  C
  C4691    1.0000 0.59528  0.53001  0.85974  Biso   1.000  C
  H2888    1.0000 0.60620  0.53170  0.84980  Biso   1.000  H
  C4692    1.0000 0.57718  0.55877  0.84132  Biso   1.000  C
  C4693    1.0000 0.56030  0.58461  0.82433  Biso   1.000  C
  C4694    1.0000 0.59316  0.57589  0.81489  Biso   1.000  C
  C4695    1.0000 0.61178  0.59601  0.78768  Biso   1.000  C
  H2889    1.0000 0.59940  0.60420  0.78630  Biso   1.000  H
  C4696    1.0000 0.61185  0.57952  0.80221  Biso   1.000  C
  C4697    1.0000 0.62960  0.56735  0.80411  Biso   1.000  C
  H2890    1.0000 0.63030  0.55620  0.81400  Biso   1.000  H
  C4698    1.0000 0.64642  0.57192  0.79109  Biso   1.000  C
  H2891    1.0000 0.65870  0.56360  0.79160  Biso   1.000  H
  C4699    1.0000 0.64511  0.58860  0.77746  Biso   1.000  C
  H2892    1.0000 0.65690  0.59160  0.76890  Biso   1.000  H
  C4700    1.0000 0.61138  0.58301  0.73237  Biso   1.000  C
  H2893    1.0000 0.60110  0.58410  0.74300  Biso   1.000  H
  C4701    1.0000 0.61166  0.56540  0.72060  Biso   1.000  C
  H2894    1.0000 0.60190  0.55450  0.72310  Biso   1.000  H
  C4702    1.0000 0.62667  0.56360  0.70470  Biso   1.000  C
  H2895    1.0000 0.62710  0.55160  0.69590  Biso   1.000  H
  C4703    1.0000 0.64076  0.57984  0.70217  Biso   1.000  C
  C4704    1.0000 0.63915  0.59731  0.71498  Biso   1.000  C
  H2896    1.0000 0.64870  0.60850  0.71300  Biso   1.000  H
  C4705    1.0000 0.65698  0.57908  0.68559  Biso   1.000  C
  C4706    1.0000 0.67522  0.62611  0.74941  Biso   1.000  C
  N1801    1.0000 0.51475  0.61692  0.84096  Biso   1.000  N
  N1802    1.0000 0.64301  0.52446  0.86285  Biso   1.000  N
  N1803    1.0000 0.59758  0.51551  0.87503  Biso   1.000  N
  N1804    1.0000 0.59418  0.56091  0.82960  Biso   1.000  N
  N1805    1.0000 0.55971  0.57025  0.83966  Biso   1.000  N
  N1806    1.0000 0.57613  0.58763  0.81113  Biso   1.000  N
  N1807    1.0000 0.62815  0.60075  0.77568  Biso   1.000  N
  N1808    1.0000 0.65762  0.62676  0.75119  Biso   1.000  N
  N1809    1.0000 0.62476  0.59897  0.72991  Biso   1.000  N
  N1810    1.0000 0.65572  0.56397  0.67169  Biso   1.000  N
  S361     1.0000 0.67188  0.54463  0.83696  Biso   1.000  S
  S362     1.0000 0.70072  0.62346  0.74784  Biso   1.000  S
  C4707    1.0000 0.53011  0.10258  0.34028  Biso   1.000  C
  H2897    1.0000 0.53270  0.09440  0.35240  Biso   1.000  H
  C4708    1.0000 0.54250  0.09914  0.32258  Biso   1.000  C
  C4709    1.0000 0.53862  0.11072  0.30477  Biso   1.000  C
  H2898    1.0000 0.54700  0.10920  0.29260  Biso   1.000  H
  C4710    1.0000 0.52190  0.12482  0.30514  Biso   1.000  C
  H2899    1.0000 0.51820  0.13240  0.29290  Biso   1.000  H
  C4711    1.0000 0.51093  0.12758  0.32314  Biso   1.000  C
  H2900    1.0000 0.49990  0.13760  0.32320  Biso   1.000  H
  C4712    1.0000 0.65467  0.03338  0.35226  Biso   1.000  C
  C4713    1.0000 0.58157  0.01321  0.38852  Biso   1.000  C
  H2901    1.0000 0.58290  0.00320  0.39940  Biso   1.000  H
  C4714    1.0000 0.56334  0.02462  0.38740  Biso   1.000  C
  H2902    1.0000 0.55220  0.02200  0.39690  Biso   1.000  H
  C4715    1.0000 0.56142  0.04007  0.37221  Biso   1.000  C
  H2903    1.0000 0.54930  0.04870  0.37160  Biso   1.000  H
  C4716    1.0000 0.57774  0.04249  0.35790  Biso   1.000  C
  C4717    1.0000 0.59528  0.03001  0.35974  Biso   1.000  C
  H2904    1.0000 0.60620  0.03170  0.34980  Biso   1.000  H
  C4718    1.0000 0.57718  0.05877  0.34132  Biso   1.000  C
  C4719    1.0000 0.56030  0.08461  0.32433  Biso   1.000  C
  C4720    1.0000 0.59316  0.07589  0.31489  Biso   1.000  C
  C4721    1.0000 0.61178  0.09601  0.28768  Biso   1.000  C
  H2905    1.0000 0.59940  0.10420  0.28630  Biso   1.000  H
  C4722    1.0000 0.61185  0.07952  0.30221  Biso   1.000  C
  C4723    1.0000 0.62960  0.06735  0.30411  Biso   1.000  C
  H2906    1.0000 0.63030  0.05620  0.31400  Biso   1.000  H
  C4724    1.0000 0.64642  0.07192  0.29109  Biso   1.000  C
  H2907    1.0000 0.65870  0.06360  0.29160  Biso   1.000  H
  C4725    1.0000 0.64511  0.08860  0.27746  Biso   1.000  C
  H2908    1.0000 0.65690  0.09160  0.26890  Biso   1.000  H
  C4726    1.0000 0.61138  0.08301  0.23237  Biso   1.000  C
  H2909    1.0000 0.60110  0.08410  0.24300  Biso   1.000  H
  C4727    1.0000 0.61166  0.06540  0.22060  Biso   1.000  C
  H2910    1.0000 0.60190  0.05450  0.22310  Biso   1.000  H
  C4728    1.0000 0.62667  0.06360  0.20470  Biso   1.000  C
  H2911    1.0000 0.62710  0.05160  0.19590  Biso   1.000  H
  C4729    1.0000 0.64076  0.07984  0.20217  Biso   1.000  C
  C4730    1.0000 0.63915  0.09731  0.21498  Biso   1.000  C
  H2912    1.0000 0.64870  0.10850  0.21300  Biso   1.000  H
  C4731    1.0000 0.65698  0.07908  0.18559  Biso   1.000  C
  C4732    1.0000 0.67522  0.12611  0.24941  Biso   1.000  C
  N1811    1.0000 0.51475  0.11692  0.34096  Biso   1.000  N
  N1812    1.0000 0.64301  0.02446  0.36285  Biso   1.000  N
  N1813    1.0000 0.59758  0.01551  0.37503  Biso   1.000  N
  N1814    1.0000 0.59418  0.06091  0.32960  Biso   1.000  N
  N1815    1.0000 0.55971  0.07025  0.33966  Biso   1.000  N
  N1816    1.0000 0.57613  0.08763  0.31113  Biso   1.000  N
  N1817    1.0000 0.62815  0.10075  0.27568  Biso   1.000  N
  N1818    1.0000 0.65762  0.12676  0.25119  Biso   1.000  N
  N1819    1.0000 0.62476  0.09897  0.22991  Biso   1.000  N
  N1820    1.0000 0.65572  0.06397  0.17169  Biso   1.000  N
  S363     1.0000 0.67188  0.04463  0.33696  Biso   1.000  S
  S364     1.0000 0.70072  0.12346  0.24784  Biso   1.000  S
  C4733    1.0000 0.03011  0.60258  0.34028  Biso   1.000  C
  H2913    1.0000 0.03270  0.59440  0.35240  Biso   1.000  H
  C4734    1.0000 0.04250  0.59914  0.32258  Biso   1.000  C
  C4735    1.0000 0.03862  0.61072  0.30477  Biso   1.000  C
  H2914    1.0000 0.04700  0.60920  0.29260  Biso   1.000  H
  C4736    1.0000 0.02190  0.62482  0.30514  Biso   1.000  C
  H2915    1.0000 0.01820  0.63240  0.29290  Biso   1.000  H
  C4737    1.0000 0.01093  0.62758  0.32314  Biso   1.000  C
  H2916    1.0000 0.99990  0.63760  0.32320  Biso   1.000  H
  C4738    1.0000 0.15467  0.53338  0.35226  Biso   1.000  C
  C4739    1.0000 0.08157  0.51321  0.38852  Biso   1.000  C
  H2917    1.0000 0.08290  0.50320  0.39940  Biso   1.000  H
  C4740    1.0000 0.06334  0.52462  0.38740  Biso   1.000  C
  H2918    1.0000 0.05220  0.52200  0.39690  Biso   1.000  H
  C4741    1.0000 0.06142  0.54007  0.37221  Biso   1.000  C
  H2919    1.0000 0.04930  0.54870  0.37160  Biso   1.000  H
  C4742    1.0000 0.07774  0.54249  0.35790  Biso   1.000  C
  C4743    1.0000 0.09528  0.53001  0.35974  Biso   1.000  C
  H2920    1.0000 0.10620  0.53170  0.34980  Biso   1.000  H
  C4744    1.0000 0.07718  0.55877  0.34132  Biso   1.000  C
  C4745    1.0000 0.06030  0.58461  0.32433  Biso   1.000  C
  C4746    1.0000 0.09316  0.57589  0.31489  Biso   1.000  C
  C4747    1.0000 0.11178  0.59601  0.28768  Biso   1.000  C
  H2921    1.0000 0.09940  0.60420  0.28630  Biso   1.000  H
  C4748    1.0000 0.11185  0.57952  0.30221  Biso   1.000  C
  C4749    1.0000 0.12960  0.56735  0.30411  Biso   1.000  C
  H2922    1.0000 0.13030  0.55620  0.31400  Biso   1.000  H
  C4750    1.0000 0.14642  0.57192  0.29109  Biso   1.000  C
  H2923    1.0000 0.15870  0.56360  0.29160  Biso   1.000  H
  C4751    1.0000 0.14511  0.58860  0.27746  Biso   1.000  C
  H2924    1.0000 0.15690  0.59160  0.26890  Biso   1.000  H
  C4752    1.0000 0.11138  0.58301  0.23237  Biso   1.000  C
  H2925    1.0000 0.10110  0.58410  0.24300  Biso   1.000  H
  C4753    1.0000 0.11166  0.56540  0.22060  Biso   1.000  C
  H2926    1.0000 0.10190  0.55450  0.22310  Biso   1.000  H
  C4754    1.0000 0.12667  0.56360  0.20470  Biso   1.000  C
  H2927    1.0000 0.12710  0.55160  0.19590  Biso   1.000  H
  C4755    1.0000 0.14076  0.57984  0.20217  Biso   1.000  C
  C4756    1.0000 0.13915  0.59731  0.21498  Biso   1.000  C
  H2928    1.0000 0.14870  0.60850  0.21300  Biso   1.000  H
  C4757    1.0000 0.15698  0.57908  0.18559  Biso   1.000  C
  C4758    1.0000 0.17522  0.62611  0.24941  Biso   1.000  C
  N1821    1.0000 0.01475  0.61692  0.34096  Biso   1.000  N
  N1822    1.0000 0.14301  0.52446  0.36285  Biso   1.000  N
  N1823    1.0000 0.09758  0.51551  0.37503  Biso   1.000  N
  N1824    1.0000 0.09418  0.56091  0.32960  Biso   1.000  N
  N1825    1.0000 0.05971  0.57025  0.33966  Biso   1.000  N
  N1826    1.0000 0.07613  0.58763  0.31113  Biso   1.000  N
  N1827    1.0000 0.12815  0.60075  0.27568  Biso   1.000  N
  N1828    1.0000 0.15762  0.62676  0.25119  Biso   1.000  N
  N1829    1.0000 0.12476  0.59897  0.22991  Biso   1.000  N
  N1830    1.0000 0.15572  0.56397  0.17169  Biso   1.000  N
  S365     1.0000 0.17188  0.54463  0.33696  Biso   1.000  S
  S366     1.0000 0.20072  0.62346  0.24784  Biso   1.000  S
  C4759    1.0000 0.03011  0.10258  0.84028  Biso   1.000  C
  H2929    1.0000 0.03270  0.09440  0.85240  Biso   1.000  H
  C4760    1.0000 0.04250  0.09914  0.82258  Biso   1.000  C
  C4761    1.0000 0.03862  0.11072  0.80477  Biso   1.000  C
  H2930    1.0000 0.04700  0.10920  0.79260  Biso   1.000  H
  C4762    1.0000 0.02190  0.12482  0.80514  Biso   1.000  C
  H2931    1.0000 0.01820  0.13240  0.79290  Biso   1.000  H
  C4763    1.0000 0.01093  0.12758  0.82314  Biso   1.000  C
  H2932    1.0000 0.99990  0.13760  0.82320  Biso   1.000  H
  C4764    1.0000 0.15467  0.03338  0.85226  Biso   1.000  C
  C4765    1.0000 0.08157  0.01321  0.88852  Biso   1.000  C
  H2933    1.0000 0.08290  0.00320  0.89940  Biso   1.000  H
  C4766    1.0000 0.06334  0.02462  0.88740  Biso   1.000  C
  H2934    1.0000 0.05220  0.02200  0.89690  Biso   1.000  H
  C4767    1.0000 0.06142  0.04007  0.87221  Biso   1.000  C
  H2935    1.0000 0.04930  0.04870  0.87160  Biso   1.000  H
  C4768    1.0000 0.07774  0.04249  0.85790  Biso   1.000  C
  C4769    1.0000 0.09528  0.03001  0.85974  Biso   1.000  C
  H2936    1.0000 0.10620  0.03170  0.84980  Biso   1.000  H
  C4770    1.0000 0.07718  0.05877  0.84132  Biso   1.000  C
  C4771    1.0000 0.06030  0.08461  0.82433  Biso   1.000  C
  C4772    1.0000 0.09316  0.07589  0.81489  Biso   1.000  C
  C4773    1.0000 0.11178  0.09601  0.78768  Biso   1.000  C
  H2937    1.0000 0.09940  0.10420  0.78630  Biso   1.000  H
  C4774    1.0000 0.11185  0.07952  0.80221  Biso   1.000  C
  C4775    1.0000 0.12960  0.06735  0.80411  Biso   1.000  C
  H2938    1.0000 0.13030  0.05620  0.81400  Biso   1.000  H
  C4776    1.0000 0.14642  0.07192  0.79109  Biso   1.000  C
  H2939    1.0000 0.15870  0.06360  0.79160  Biso   1.000  H
  C4777    1.0000 0.14511  0.08860  0.77746  Biso   1.000  C
  H2940    1.0000 0.15690  0.09160  0.76890  Biso   1.000  H
  C4778    1.0000 0.11138  0.08301  0.73237  Biso   1.000  C
  H2941    1.0000 0.10110  0.08410  0.74300  Biso   1.000  H
  C4779    1.0000 0.11166  0.06540  0.72060  Biso   1.000  C
  H2942    1.0000 0.10190  0.05450  0.72310  Biso   1.000  H
  C4780    1.0000 0.12667  0.06360  0.70470  Biso   1.000  C
  H2943    1.0000 0.12710  0.05160  0.69590  Biso   1.000  H
  C4781    1.0000 0.14076  0.07984  0.70217  Biso   1.000  C
  C4782    1.0000 0.13915  0.09731  0.71498  Biso   1.000  C
  H2944    1.0000 0.14870  0.10850  0.71300  Biso   1.000  H
  C4783    1.0000 0.15698  0.07908  0.68559  Biso   1.000  C
  C4784    1.0000 0.17522  0.12611  0.74941  Biso   1.000  C
  N1831    1.0000 0.01475  0.11692  0.84096  Biso   1.000  N
  N1832    1.0000 0.14301  0.02446  0.86285  Biso   1.000  N
  N1833    1.0000 0.09758  0.01551  0.87503  Biso   1.000  N
  N1834    1.0000 0.09418  0.06091  0.82960  Biso   1.000  N
  N1835    1.0000 0.05971  0.07025  0.83966  Biso   1.000  N
  N1836    1.0000 0.07613  0.08763  0.81113  Biso   1.000  N
  N1837    1.0000 0.12815  0.10075  0.77568  Biso   1.000  N
  N1838    1.0000 0.15762  0.12676  0.75119  Biso   1.000  N
  N1839    1.0000 0.12476  0.09897  0.72991  Biso   1.000  N
  N1840    1.0000 0.15572  0.06397  0.67169  Biso   1.000  N
  S367     1.0000 0.17188  0.04463  0.83696  Biso   1.000  S
  S368     1.0000 0.20072  0.12346  0.74784  Biso   1.000  S
  C4785    1.0000 0.21989  0.64742  0.34028  Biso   1.000  C
  H2945    1.0000 0.21730  0.65560  0.35240  Biso   1.000  H
  C4786    1.0000 0.20750  0.65086  0.32258  Biso   1.000  C
  C4787    1.0000 0.21138  0.63928  0.30477  Biso   1.000  C
  H2946    1.0000 0.20300  0.64080  0.29260  Biso   1.000  H
  C4788    1.0000 0.22810  0.62518  0.30514  Biso   1.000  C
  H2947    1.0000 0.23180  0.61760  0.29290  Biso   1.000  H
  C4789    1.0000 0.23907  0.62242  0.32314  Biso   1.000  C
  H2948    1.0000 0.25010  0.61240  0.32320  Biso   1.000  H
  C4790    1.0000 0.09533  0.71662  0.35226  Biso   1.000  C
  C4791    1.0000 0.16843  0.73679  0.38852  Biso   1.000  C
  H2949    1.0000 0.16710  0.74680  0.39940  Biso   1.000  H
  C4792    1.0000 0.18666  0.72538  0.38740  Biso   1.000  C
  H2950    1.0000 0.19780  0.72800  0.39690  Biso   1.000  H
  C4793    1.0000 0.18858  0.70993  0.37221  Biso   1.000  C
  H2951    1.0000 0.20070  0.70130  0.37160  Biso   1.000  H
  C4794    1.0000 0.17226  0.70751  0.35790  Biso   1.000  C
  C4795    1.0000 0.15472  0.71999  0.35974  Biso   1.000  C
  H2952    1.0000 0.14380  0.71830  0.34980  Biso   1.000  H
  C4796    1.0000 0.17282  0.69123  0.34132  Biso   1.000  C
  C4797    1.0000 0.18970  0.66539  0.32433  Biso   1.000  C
  C4798    1.0000 0.15684  0.67411  0.31489  Biso   1.000  C
  C4799    1.0000 0.13822  0.65399  0.28768  Biso   1.000  C
  H2953    1.0000 0.15060  0.64580  0.28630  Biso   1.000  H
  C4800    1.0000 0.13815  0.67048  0.30221  Biso   1.000  C
  C4801    1.0000 0.12040  0.68265  0.30411  Biso   1.000  C
  H2954    1.0000 0.11970  0.69380  0.31400  Biso   1.000  H
  C4802    1.0000 0.10358  0.67808  0.29109  Biso   1.000  C
  H2955    1.0000 0.09130  0.68640  0.29160  Biso   1.000  H
  C4803    1.0000 0.10489  0.66140  0.27746  Biso   1.000  C
  H2956    1.0000 0.09310  0.65840  0.26890  Biso   1.000  H
  C4804    1.0000 0.13862  0.66699  0.23237  Biso   1.000  C
  H2957    1.0000 0.14890  0.66590  0.24300  Biso   1.000  H
  C4805    1.0000 0.13834  0.68460  0.22060  Biso   1.000  C
  H2958    1.0000 0.14810  0.69550  0.22310  Biso   1.000  H
  C4806    1.0000 0.12333  0.68640  0.20470  Biso   1.000  C
  H2959    1.0000 0.12290  0.69840  0.19590  Biso   1.000  H
  C4807    1.0000 0.10924  0.67016  0.20217  Biso   1.000  C
  C4808    1.0000 0.11085  0.65269  0.21498  Biso   1.000  C
  H2960    1.0000 0.10130  0.64150  0.21300  Biso   1.000  H
  C4809    1.0000 0.09302  0.67092  0.18559  Biso   1.000  C
  C4810    1.0000 0.07478  0.62389  0.24941  Biso   1.000  C
  N1841    1.0000 0.23525  0.63308  0.34096  Biso   1.000  N
  N1842    1.0000 0.10699  0.72554  0.36285  Biso   1.000  N
  N1843    1.0000 0.15242  0.73449  0.37503  Biso   1.000  N
  N1844    1.0000 0.15582  0.68909  0.32960  Biso   1.000  N
  N1845    1.0000 0.19029  0.67975  0.33966  Biso   1.000  N
  N1846    1.0000 0.17387  0.66237  0.31113  Biso   1.000  N
  N1847    1.0000 0.12185  0.64925  0.27568  Biso   1.000  N
  N1848    1.0000 0.09238  0.62324  0.25119  Biso   1.000  N
  N1849    1.0000 0.12524  0.65103  0.22991  Biso   1.000  N
  N1850    1.0000 0.09428  0.68603  0.17169  Biso   1.000  N
  S369     1.0000 0.07812  0.70537  0.33696  Biso   1.000  S
  S370     1.0000 0.04928  0.62654  0.24784  Biso   1.000  S
  C4811    1.0000 0.21989  0.14742  0.84028  Biso   1.000  C
  H2961    1.0000 0.21730  0.15560  0.85240  Biso   1.000  H
  C4812    1.0000 0.20750  0.15086  0.82258  Biso   1.000  C
  C4813    1.0000 0.21138  0.13928  0.80477  Biso   1.000  C
  H2962    1.0000 0.20300  0.14080  0.79260  Biso   1.000  H
  C4814    1.0000 0.22810  0.12518  0.80514  Biso   1.000  C
  H2963    1.0000 0.23180  0.11760  0.79290  Biso   1.000  H
  C4815    1.0000 0.23907  0.12242  0.82314  Biso   1.000  C
  H2964    1.0000 0.25010  0.11240  0.82320  Biso   1.000  H
  C4816    1.0000 0.09533  0.21662  0.85226  Biso   1.000  C
  C4817    1.0000 0.16843  0.23679  0.88852  Biso   1.000  C
  H2965    1.0000 0.16710  0.24680  0.89940  Biso   1.000  H
  C4818    1.0000 0.18666  0.22538  0.88740  Biso   1.000  C
  H2966    1.0000 0.19780  0.22800  0.89690  Biso   1.000  H
  C4819    1.0000 0.18858  0.20993  0.87221  Biso   1.000  C
  H2967    1.0000 0.20070  0.20130  0.87160  Biso   1.000  H
  C4820    1.0000 0.17226  0.20751  0.85790  Biso   1.000  C
  C4821    1.0000 0.15472  0.21999  0.85974  Biso   1.000  C
  H2968    1.0000 0.14380  0.21830  0.84980  Biso   1.000  H
  C4822    1.0000 0.17282  0.19123  0.84132  Biso   1.000  C
  C4823    1.0000 0.18970  0.16539  0.82433  Biso   1.000  C
  C4824    1.0000 0.15684  0.17411  0.81489  Biso   1.000  C
  C4825    1.0000 0.13822  0.15399  0.78768  Biso   1.000  C
  H2969    1.0000 0.15060  0.14580  0.78630  Biso   1.000  H
  C4826    1.0000 0.13815  0.17048  0.80221  Biso   1.000  C
  C4827    1.0000 0.12040  0.18265  0.80411  Biso   1.000  C
  H2970    1.0000 0.11970  0.19380  0.81400  Biso   1.000  H
  C4828    1.0000 0.10358  0.17808  0.79109  Biso   1.000  C
  H2971    1.0000 0.09130  0.18640  0.79160  Biso   1.000  H
  C4829    1.0000 0.10489  0.16140  0.77746  Biso   1.000  C
  H2972    1.0000 0.09310  0.15840  0.76890  Biso   1.000  H
  C4830    1.0000 0.13862  0.16699  0.73237  Biso   1.000  C
  H2973    1.0000 0.14890  0.16590  0.74300  Biso   1.000  H
  C4831    1.0000 0.13834  0.18460  0.72060  Biso   1.000  C
  H2974    1.0000 0.14810  0.19550  0.72310  Biso   1.000  H
  C4832    1.0000 0.12333  0.18640  0.70470  Biso   1.000  C
  H2975    1.0000 0.12290  0.19840  0.69590  Biso   1.000  H
  C4833    1.0000 0.10924  0.17016  0.70217  Biso   1.000  C
  C4834    1.0000 0.11085  0.15269  0.71498  Biso   1.000  C
  H2976    1.0000 0.10130  0.14150  0.71300  Biso   1.000  H
  C4835    1.0000 0.09302  0.17092  0.68559  Biso   1.000  C
  C4836    1.0000 0.07478  0.12389  0.74941  Biso   1.000  C
  N1851    1.0000 0.23525  0.13308  0.84096  Biso   1.000  N
  N1852    1.0000 0.10699  0.22554  0.86285  Biso   1.000  N
  N1853    1.0000 0.15242  0.23449  0.87503  Biso   1.000  N
  N1854    1.0000 0.15582  0.18909  0.82960  Biso   1.000  N
  N1855    1.0000 0.19029  0.17975  0.83966  Biso   1.000  N
  N1856    1.0000 0.17387  0.16237  0.81113  Biso   1.000  N
  N1857    1.0000 0.12185  0.14925  0.77568  Biso   1.000  N
  N1858    1.0000 0.09238  0.12324  0.75119  Biso   1.000  N
  N1859    1.0000 0.12524  0.15103  0.72991  Biso   1.000  N
  N1860    1.0000 0.09428  0.18603  0.67169  Biso   1.000  N
  S371     1.0000 0.07812  0.20537  0.83696  Biso   1.000  S
  S372     1.0000 0.04928  0.12654  0.74784  Biso   1.000  S
  C4837    1.0000 0.71989  0.64742  0.84028  Biso   1.000  C
  H2977    1.0000 0.71730  0.65560  0.85240  Biso   1.000  H
  C4838    1.0000 0.70750  0.65086  0.82258  Biso   1.000  C
  C4839    1.0000 0.71138  0.63928  0.80477  Biso   1.000  C
  H2978    1.0000 0.70300  0.64080  0.79260  Biso   1.000  H
  C4840    1.0000 0.72810  0.62518  0.80514  Biso   1.000  C
  H2979    1.0000 0.73180  0.61760  0.79290  Biso   1.000  H
  C4841    1.0000 0.73907  0.62242  0.82314  Biso   1.000  C
  H2980    1.0000 0.75010  0.61240  0.82320  Biso   1.000  H
  C4842    1.0000 0.59533  0.71662  0.85226  Biso   1.000  C
  C4843    1.0000 0.66843  0.73679  0.88852  Biso   1.000  C
  H2981    1.0000 0.66710  0.74680  0.89940  Biso   1.000  H
  C4844    1.0000 0.68666  0.72538  0.88740  Biso   1.000  C
  H2982    1.0000 0.69780  0.72800  0.89690  Biso   1.000  H
  C4845    1.0000 0.68858  0.70993  0.87221  Biso   1.000  C
  H2983    1.0000 0.70070  0.70130  0.87160  Biso   1.000  H
  C4846    1.0000 0.67226  0.70751  0.85790  Biso   1.000  C
  C4847    1.0000 0.65472  0.71999  0.85974  Biso   1.000  C
  H2984    1.0000 0.64380  0.71830  0.84980  Biso   1.000  H
  C4848    1.0000 0.67282  0.69123  0.84132  Biso   1.000  C
  C4849    1.0000 0.68970  0.66539  0.82433  Biso   1.000  C
  C4850    1.0000 0.65684  0.67411  0.81489  Biso   1.000  C
  C4851    1.0000 0.63822  0.65399  0.78768  Biso   1.000  C
  H2985    1.0000 0.65060  0.64580  0.78630  Biso   1.000  H
  C4852    1.0000 0.63815  0.67048  0.80221  Biso   1.000  C
  C4853    1.0000 0.62040  0.68265  0.80411  Biso   1.000  C
  H2986    1.0000 0.61970  0.69380  0.81400  Biso   1.000  H
  C4854    1.0000 0.60358  0.67808  0.79109  Biso   1.000  C
  H2987    1.0000 0.59130  0.68640  0.79160  Biso   1.000  H
  C4855    1.0000 0.60489  0.66140  0.77746  Biso   1.000  C
  H2988    1.0000 0.59310  0.65840  0.76890  Biso   1.000  H
  C4856    1.0000 0.63862  0.66699  0.73237  Biso   1.000  C
  H2989    1.0000 0.64890  0.66590  0.74300  Biso   1.000  H
  C4857    1.0000 0.63834  0.68460  0.72060  Biso   1.000  C
  H2990    1.0000 0.64810  0.69550  0.72310  Biso   1.000  H
  C4858    1.0000 0.62333  0.68640  0.70470  Biso   1.000  C
  H2991    1.0000 0.62290  0.69840  0.69590  Biso   1.000  H
  C4859    1.0000 0.60924  0.67016  0.70217  Biso   1.000  C
  C4860    1.0000 0.61085  0.65269  0.71498  Biso   1.000  C
  H2992    1.0000 0.60130  0.64150  0.71300  Biso   1.000  H
  C4861    1.0000 0.59302  0.67092  0.68559  Biso   1.000  C
  C4862    1.0000 0.57478  0.62389  0.74941  Biso   1.000  C
  N1861    1.0000 0.73525  0.63308  0.84096  Biso   1.000  N
  N1862    1.0000 0.60699  0.72554  0.86285  Biso   1.000  N
  N1863    1.0000 0.65242  0.73449  0.87503  Biso   1.000  N
  N1864    1.0000 0.65582  0.68909  0.82960  Biso   1.000  N
  N1865    1.0000 0.69029  0.67975  0.83966  Biso   1.000  N
  N1866    1.0000 0.67387  0.66237  0.81113  Biso   1.000  N
  N1867    1.0000 0.62185  0.64925  0.77568  Biso   1.000  N
  N1868    1.0000 0.59238  0.62324  0.75119  Biso   1.000  N
  N1869    1.0000 0.62524  0.65103  0.72991  Biso   1.000  N
  N1870    1.0000 0.59428  0.68603  0.67169  Biso   1.000  N
  S373     1.0000 0.57812  0.70537  0.83696  Biso   1.000  S
  S374     1.0000 0.54928  0.62654  0.74784  Biso   1.000  S
  C4863    1.0000 0.71989  0.14742  0.34028  Biso   1.000  C
  H2993    1.0000 0.71730  0.15560  0.35240  Biso   1.000  H
  C4864    1.0000 0.70750  0.15086  0.32258  Biso   1.000  C
  C4865    1.0000 0.71138  0.13928  0.30477  Biso   1.000  C
  H2994    1.0000 0.70300  0.14080  0.29260  Biso   1.000  H
  C4866    1.0000 0.72810  0.12518  0.30514  Biso   1.000  C
  H2995    1.0000 0.73180  0.11760  0.29290  Biso   1.000  H
  C4867    1.0000 0.73907  0.12242  0.32314  Biso   1.000  C
  H2996    1.0000 0.75010  0.11240  0.32320  Biso   1.000  H
  C4868    1.0000 0.59533  0.21662  0.35226  Biso   1.000  C
  C4869    1.0000 0.66843  0.23679  0.38852  Biso   1.000  C
  H2997    1.0000 0.66710  0.24680  0.39940  Biso   1.000  H
  C4870    1.0000 0.68666  0.22538  0.38740  Biso   1.000  C
  H2998    1.0000 0.69780  0.22800  0.39690  Biso   1.000  H
  C4871    1.0000 0.68858  0.20993  0.37221  Biso   1.000  C
  H2999    1.0000 0.70070  0.20130  0.37160  Biso   1.000  H
  C4872    1.0000 0.67226  0.20751  0.35790  Biso   1.000  C
  C4873    1.0000 0.65472  0.21999  0.35974  Biso   1.000  C
  H3000    1.0000 0.64380  0.21830  0.34980  Biso   1.000  H
  C4874    1.0000 0.67282  0.19123  0.34132  Biso   1.000  C
  C4875    1.0000 0.68970  0.16539  0.32433  Biso   1.000  C
  C4876    1.0000 0.65684  0.17411  0.31489  Biso   1.000  C
  C4877    1.0000 0.63822  0.15399  0.28768  Biso   1.000  C
  H3001    1.0000 0.65060  0.14580  0.28630  Biso   1.000  H
  C4878    1.0000 0.63815  0.17048  0.30221  Biso   1.000  C
  C4879    1.0000 0.62040  0.18265  0.30411  Biso   1.000  C
  H3002    1.0000 0.61970  0.19380  0.31400  Biso   1.000  H
  C4880    1.0000 0.60358  0.17808  0.29109  Biso   1.000  C
  H3003    1.0000 0.59130  0.18640  0.29160  Biso   1.000  H
  C4881    1.0000 0.60489  0.16140  0.27746  Biso   1.000  C
  H3004    1.0000 0.59310  0.15840  0.26890  Biso   1.000  H
  C4882    1.0000 0.63862  0.16699  0.23237  Biso   1.000  C
  H3005    1.0000 0.64890  0.16590  0.24300  Biso   1.000  H
  C4883    1.0000 0.63834  0.18460  0.22060  Biso   1.000  C
  H3006    1.0000 0.64810  0.19550  0.22310  Biso   1.000  H
  C4884    1.0000 0.62333  0.18640  0.20470  Biso   1.000  C
  H3007    1.0000 0.62290  0.19840  0.19590  Biso   1.000  H
  C4885    1.0000 0.60924  0.17016  0.20217  Biso   1.000  C
  C4886    1.0000 0.61085  0.15269  0.21498  Biso   1.000  C
  H3008    1.0000 0.60130  0.14150  0.21300  Biso   1.000  H
  C4887    1.0000 0.59302  0.17092  0.18559  Biso   1.000  C
  C4888    1.0000 0.57478  0.12389  0.24941  Biso   1.000  C
  N1871    1.0000 0.73525  0.13308  0.34096  Biso   1.000  N
  N1872    1.0000 0.60699  0.22554  0.36285  Biso   1.000  N
  N1873    1.0000 0.65242  0.23449  0.37503  Biso   1.000  N
  N1874    1.0000 0.65582  0.18909  0.32960  Biso   1.000  N
  N1875    1.0000 0.69029  0.17975  0.33966  Biso   1.000  N
  N1876    1.0000 0.67387  0.16237  0.31113  Biso   1.000  N
  N1877    1.0000 0.62185  0.14925  0.27568  Biso   1.000  N
  N1878    1.0000 0.59238  0.12324  0.25119  Biso   1.000  N
  N1879    1.0000 0.62524  0.15103  0.22991  Biso   1.000  N
  N1880    1.0000 0.59428  0.18603  0.17169  Biso   1.000  N
  S375     1.0000 0.57812  0.20537  0.33696  Biso   1.000  S
  S376     1.0000 0.54928  0.12654  0.24784  Biso   1.000  S
  C4889    1.0000 0.71989  0.10258  0.90972  Biso   1.000  C
  H3009    1.0000 0.71730  0.09440  0.89760  Biso   1.000  H
  C4890    1.0000 0.70750  0.09914  0.92742  Biso   1.000  C
  C4891    1.0000 0.71138  0.11072  0.94523  Biso   1.000  C
  H3010    1.0000 0.70300  0.10920  0.95740  Biso   1.000  H
  C4892    1.0000 0.72810  0.12482  0.94486  Biso   1.000  C
  H3011    1.0000 0.73180  0.13240  0.95710  Biso   1.000  H
  C4893    1.0000 0.73907  0.12758  0.92686  Biso   1.000  C
  H3012    1.0000 0.75010  0.13760  0.92680  Biso   1.000  H
  C4894    1.0000 0.59533  0.03338  0.89774  Biso   1.000  C
  C4895    1.0000 0.66843  0.01321  0.86148  Biso   1.000  C
  H3013    1.0000 0.66710  0.00320  0.85060  Biso   1.000  H
  C4896    1.0000 0.68666  0.02462  0.86260  Biso   1.000  C
  H3014    1.0000 0.69780  0.02200  0.85310  Biso   1.000  H
  C4897    1.0000 0.68858  0.04007  0.87779  Biso   1.000  C
  H3015    1.0000 0.70070  0.04870  0.87840  Biso   1.000  H
  C4898    1.0000 0.67226  0.04249  0.89210  Biso   1.000  C
  C4899    1.0000 0.65472  0.03001  0.89026  Biso   1.000  C
  H3016    1.0000 0.64380  0.03170  0.90020  Biso   1.000  H
  C4900    1.0000 0.67282  0.05877  0.90868  Biso   1.000  C
  C4901    1.0000 0.68970  0.08461  0.92567  Biso   1.000  C
  C4902    1.0000 0.65684  0.07589  0.93511  Biso   1.000  C
  C4903    1.0000 0.63822  0.09601  0.96232  Biso   1.000  C
  H3017    1.0000 0.65060  0.10420  0.96370  Biso   1.000  H
  C4904    1.0000 0.63815  0.07952  0.94779  Biso   1.000  C
  C4905    1.0000 0.62040  0.06735  0.94589  Biso   1.000  C
  H3018    1.0000 0.61970  0.05620  0.93600  Biso   1.000  H
  C4906    1.0000 0.60358  0.07192  0.95891  Biso   1.000  C
  H3019    1.0000 0.59130  0.06360  0.95840  Biso   1.000  H
  C4907    1.0000 0.60489  0.08860  0.97254  Biso   1.000  C
  H3020    1.0000 0.59310  0.09160  0.98110  Biso   1.000  H
  C4908    1.0000 0.63862  0.08301  0.01763  Biso   1.000  C
  H3021    1.0000 0.64890  0.08410  0.00700  Biso   1.000  H
  C4909    1.0000 0.63834  0.06540  0.02940  Biso   1.000  C
  H3022    1.0000 0.64810  0.05450  0.02690  Biso   1.000  H
  C4910    1.0000 0.62333  0.06360  0.04530  Biso   1.000  C
  H3023    1.0000 0.62290  0.05160  0.05410  Biso   1.000  H
  C4911    1.0000 0.60924  0.07984  0.04783  Biso   1.000  C
  C4912    1.0000 0.61085  0.09731  0.03502  Biso   1.000  C
  H3024    1.0000 0.60130  0.10850  0.03700  Biso   1.000  H
  C4913    1.0000 0.59302  0.07908  0.06441  Biso   1.000  C
  C4914    1.0000 0.57478  0.12611  0.00059  Biso   1.000  C
  N1881    1.0000 0.73525  0.11692  0.90904  Biso   1.000  N
  N1882    1.0000 0.60699  0.02446  0.88715  Biso   1.000  N
  N1883    1.0000 0.65242  0.01551  0.87497  Biso   1.000  N
  N1884    1.0000 0.65582  0.06091  0.92040  Biso   1.000  N
  N1885    1.0000 0.69029  0.07025  0.91034  Biso   1.000  N
  N1886    1.0000 0.67387  0.08763  0.93887  Biso   1.000  N
  N1887    1.0000 0.62185  0.10075  0.97432  Biso   1.000  N
  N1888    1.0000 0.59238  0.12676  0.99881  Biso   1.000  N
  N1889    1.0000 0.62524  0.09897  0.02009  Biso   1.000  N
  N1890    1.0000 0.59428  0.06397  0.07831  Biso   1.000  N
  S377     1.0000 0.57812  0.04463  0.91304  Biso   1.000  S
  S378     1.0000 0.54928  0.12346  0.00216  Biso   1.000  S
  C4915    1.0000 0.71989  0.60258  0.40972  Biso   1.000  C
  H3025    1.0000 0.71730  0.59440  0.39760  Biso   1.000  H
  C4916    1.0000 0.70750  0.59914  0.42742  Biso   1.000  C
  C4917    1.0000 0.71138  0.61072  0.44523  Biso   1.000  C
  H3026    1.0000 0.70300  0.60920  0.45740  Biso   1.000  H
  C4918    1.0000 0.72810  0.62482  0.44486  Biso   1.000  C
  H3027    1.0000 0.73180  0.63240  0.45710  Biso   1.000  H
  C4919    1.0000 0.73907  0.62758  0.42686  Biso   1.000  C
  H3028    1.0000 0.75010  0.63760  0.42680  Biso   1.000  H
  C4920    1.0000 0.59533  0.53338  0.39774  Biso   1.000  C
  C4921    1.0000 0.66843  0.51321  0.36148  Biso   1.000  C
  H3029    1.0000 0.66710  0.50320  0.35060  Biso   1.000  H
  C4922    1.0000 0.68666  0.52462  0.36260  Biso   1.000  C
  H3030    1.0000 0.69780  0.52200  0.35310  Biso   1.000  H
  C4923    1.0000 0.68858  0.54007  0.37779  Biso   1.000  C
  H3031    1.0000 0.70070  0.54870  0.37840  Biso   1.000  H
  C4924    1.0000 0.67226  0.54249  0.39210  Biso   1.000  C
  C4925    1.0000 0.65472  0.53001  0.39026  Biso   1.000  C
  H3032    1.0000 0.64380  0.53170  0.40020  Biso   1.000  H
  C4926    1.0000 0.67282  0.55877  0.40868  Biso   1.000  C
  C4927    1.0000 0.68970  0.58461  0.42567  Biso   1.000  C
  C4928    1.0000 0.65684  0.57589  0.43511  Biso   1.000  C
  C4929    1.0000 0.63822  0.59601  0.46232  Biso   1.000  C
  H3033    1.0000 0.65060  0.60420  0.46370  Biso   1.000  H
  C4930    1.0000 0.63815  0.57952  0.44779  Biso   1.000  C
  C4931    1.0000 0.62040  0.56735  0.44589  Biso   1.000  C
  H3034    1.0000 0.61970  0.55620  0.43600  Biso   1.000  H
  C4932    1.0000 0.60358  0.57192  0.45891  Biso   1.000  C
  H3035    1.0000 0.59130  0.56360  0.45840  Biso   1.000  H
  C4933    1.0000 0.60489  0.58860  0.47254  Biso   1.000  C
  H3036    1.0000 0.59310  0.59160  0.48110  Biso   1.000  H
  C4934    1.0000 0.63862  0.58301  0.51763  Biso   1.000  C
  H3037    1.0000 0.64890  0.58410  0.50700  Biso   1.000  H
  C4935    1.0000 0.63834  0.56540  0.52940  Biso   1.000  C
  H3038    1.0000 0.64810  0.55450  0.52690  Biso   1.000  H
  C4936    1.0000 0.62333  0.56360  0.54530  Biso   1.000  C
  H3039    1.0000 0.62290  0.55160  0.55410  Biso   1.000  H
  C4937    1.0000 0.60924  0.57984  0.54783  Biso   1.000  C
  C4938    1.0000 0.61085  0.59731  0.53502  Biso   1.000  C
  H3040    1.0000 0.60130  0.60850  0.53700  Biso   1.000  H
  C4939    1.0000 0.59302  0.57908  0.56441  Biso   1.000  C
  C4940    1.0000 0.57478  0.62611  0.50059  Biso   1.000  C
  N1891    1.0000 0.73525  0.61692  0.40904  Biso   1.000  N
  N1892    1.0000 0.60699  0.52446  0.38715  Biso   1.000  N
  N1893    1.0000 0.65242  0.51551  0.37497  Biso   1.000  N
  N1894    1.0000 0.65582  0.56091  0.42040  Biso   1.000  N
  N1895    1.0000 0.69029  0.57025  0.41034  Biso   1.000  N
  N1896    1.0000 0.67387  0.58763  0.43887  Biso   1.000  N
  N1897    1.0000 0.62185  0.60075  0.47432  Biso   1.000  N
  N1898    1.0000 0.59238  0.62676  0.49881  Biso   1.000  N
  N1899    1.0000 0.62524  0.59897  0.52009  Biso   1.000  N
  N1900    1.0000 0.59428  0.56397  0.57831  Biso   1.000  N
  S379     1.0000 0.57812  0.54463  0.41304  Biso   1.000  S
  S380     1.0000 0.54928  0.62346  0.50216  Biso   1.000  S
  C4941    1.0000 0.21989  0.10258  0.40972  Biso   1.000  C
  H3041    1.0000 0.21730  0.09440  0.39760  Biso   1.000  H
  C4942    1.0000 0.20750  0.09914  0.42742  Biso   1.000  C
  C4943    1.0000 0.21138  0.11072  0.44523  Biso   1.000  C
  H3042    1.0000 0.20300  0.10920  0.45740  Biso   1.000  H
  C4944    1.0000 0.22810  0.12482  0.44486  Biso   1.000  C
  H3043    1.0000 0.23180  0.13240  0.45710  Biso   1.000  H
  C4945    1.0000 0.23907  0.12758  0.42686  Biso   1.000  C
  H3044    1.0000 0.25010  0.13760  0.42680  Biso   1.000  H
  C4946    1.0000 0.09533  0.03338  0.39774  Biso   1.000  C
  C4947    1.0000 0.16843  0.01321  0.36148  Biso   1.000  C
  H3045    1.0000 0.16710  0.00320  0.35060  Biso   1.000  H
  C4948    1.0000 0.18666  0.02462  0.36260  Biso   1.000  C
  H3046    1.0000 0.19780  0.02200  0.35310  Biso   1.000  H
  C4949    1.0000 0.18858  0.04007  0.37779  Biso   1.000  C
  H3047    1.0000 0.20070  0.04870  0.37840  Biso   1.000  H
  C4950    1.0000 0.17226  0.04249  0.39210  Biso   1.000  C
  C4951    1.0000 0.15472  0.03001  0.39026  Biso   1.000  C
  H3048    1.0000 0.14380  0.03170  0.40020  Biso   1.000  H
  C4952    1.0000 0.17282  0.05877  0.40868  Biso   1.000  C
  C4953    1.0000 0.18970  0.08461  0.42567  Biso   1.000  C
  C4954    1.0000 0.15684  0.07589  0.43511  Biso   1.000  C
  C4955    1.0000 0.13822  0.09601  0.46232  Biso   1.000  C
  H3049    1.0000 0.15060  0.10420  0.46370  Biso   1.000  H
  C4956    1.0000 0.13815  0.07952  0.44779  Biso   1.000  C
  C4957    1.0000 0.12040  0.06735  0.44589  Biso   1.000  C
  H3050    1.0000 0.11970  0.05620  0.43600  Biso   1.000  H
  C4958    1.0000 0.10358  0.07192  0.45891  Biso   1.000  C
  H3051    1.0000 0.09130  0.06360  0.45840  Biso   1.000  H
  C4959    1.0000 0.10489  0.08860  0.47254  Biso   1.000  C
  H3052    1.0000 0.09310  0.09160  0.48110  Biso   1.000  H
  C4960    1.0000 0.13862  0.08301  0.51763  Biso   1.000  C
  H3053    1.0000 0.14890  0.08410  0.50700  Biso   1.000  H
  C4961    1.0000 0.13834  0.06540  0.52940  Biso   1.000  C
  H3054    1.0000 0.14810  0.05450  0.52690  Biso   1.000  H
  C4962    1.0000 0.12333  0.06360  0.54530  Biso   1.000  C
  H3055    1.0000 0.12290  0.05160  0.55410  Biso   1.000  H
  C4963    1.0000 0.10924  0.07984  0.54783  Biso   1.000  C
  C4964    1.0000 0.11085  0.09731  0.53502  Biso   1.000  C
  H3056    1.0000 0.10130  0.10850  0.53700  Biso   1.000  H
  C4965    1.0000 0.09302  0.07908  0.56441  Biso   1.000  C
  C4966    1.0000 0.07478  0.12611  0.50059  Biso   1.000  C
  N1901    1.0000 0.23525  0.11692  0.40904  Biso   1.000  N
  N1902    1.0000 0.10699  0.02446  0.38715  Biso   1.000  N
  N1903    1.0000 0.15242  0.01551  0.37497  Biso   1.000  N
  N1904    1.0000 0.15582  0.06091  0.42040  Biso   1.000  N
  N1905    1.0000 0.19029  0.07025  0.41034  Biso   1.000  N
  N1906    1.0000 0.17387  0.08763  0.43887  Biso   1.000  N
  N1907    1.0000 0.12185  0.10075  0.47432  Biso   1.000  N
  N1908    1.0000 0.09238  0.12676  0.49881  Biso   1.000  N
  N1909    1.0000 0.12524  0.09897  0.52009  Biso   1.000  N
  N1910    1.0000 0.09428  0.06397  0.57831  Biso   1.000  N
  S381     1.0000 0.07812  0.04463  0.41304  Biso   1.000  S
  S382     1.0000 0.04928  0.12346  0.50216  Biso   1.000  S
  C4967    1.0000 0.21989  0.60258  0.90972  Biso   1.000  C
  H3057    1.0000 0.21730  0.59440  0.89760  Biso   1.000  H
  C4968    1.0000 0.20750  0.59914  0.92742  Biso   1.000  C
  C4969    1.0000 0.21138  0.61072  0.94523  Biso   1.000  C
  H3058    1.0000 0.20300  0.60920  0.95740  Biso   1.000  H
  C4970    1.0000 0.22810  0.62482  0.94486  Biso   1.000  C
  H3059    1.0000 0.23180  0.63240  0.95710  Biso   1.000  H
  C4971    1.0000 0.23907  0.62758  0.92686  Biso   1.000  C
  H3060    1.0000 0.25010  0.63760  0.92680  Biso   1.000  H
  C4972    1.0000 0.09533  0.53338  0.89774  Biso   1.000  C
  C4973    1.0000 0.16843  0.51321  0.86148  Biso   1.000  C
  H3061    1.0000 0.16710  0.50320  0.85060  Biso   1.000  H
  C4974    1.0000 0.18666  0.52462  0.86260  Biso   1.000  C
  H3062    1.0000 0.19780  0.52200  0.85310  Biso   1.000  H
  C4975    1.0000 0.18858  0.54007  0.87779  Biso   1.000  C
  H3063    1.0000 0.20070  0.54870  0.87840  Biso   1.000  H
  C4976    1.0000 0.17226  0.54249  0.89210  Biso   1.000  C
  C4977    1.0000 0.15472  0.53001  0.89026  Biso   1.000  C
  H3064    1.0000 0.14380  0.53170  0.90020  Biso   1.000  H
  C4978    1.0000 0.17282  0.55877  0.90868  Biso   1.000  C
  C4979    1.0000 0.18970  0.58461  0.92567  Biso   1.000  C
  C4980    1.0000 0.15684  0.57589  0.93511  Biso   1.000  C
  C4981    1.0000 0.13822  0.59601  0.96232  Biso   1.000  C
  H3065    1.0000 0.15060  0.60420  0.96370  Biso   1.000  H
  C4982    1.0000 0.13815  0.57952  0.94779  Biso   1.000  C
  C4983    1.0000 0.12040  0.56735  0.94589  Biso   1.000  C
  H3066    1.0000 0.11970  0.55620  0.93600  Biso   1.000  H
  C4984    1.0000 0.10358  0.57192  0.95891  Biso   1.000  C
  H3067    1.0000 0.09130  0.56360  0.95840  Biso   1.000  H
  C4985    1.0000 0.10489  0.58860  0.97254  Biso   1.000  C
  H3068    1.0000 0.09310  0.59160  0.98110  Biso   1.000  H
  C4986    1.0000 0.13862  0.58301  0.01763  Biso   1.000  C
  H3069    1.0000 0.14890  0.58410  0.00700  Biso   1.000  H
  C4987    1.0000 0.13834  0.56540  0.02940  Biso   1.000  C
  H3070    1.0000 0.14810  0.55450  0.02690  Biso   1.000  H
  C4988    1.0000 0.12333  0.56360  0.04530  Biso   1.000  C
  H3071    1.0000 0.12290  0.55160  0.05410  Biso   1.000  H
  C4989    1.0000 0.10924  0.57984  0.04783  Biso   1.000  C
  C4990    1.0000 0.11085  0.59731  0.03502  Biso   1.000  C
  H3072    1.0000 0.10130  0.60850  0.03700  Biso   1.000  H
  C4991    1.0000 0.09302  0.57908  0.06441  Biso   1.000  C
  C4992    1.0000 0.07478  0.62611  0.00059  Biso   1.000  C
  N1911    1.0000 0.23525  0.61692  0.90904  Biso   1.000  N
  N1912    1.0000 0.10699  0.52446  0.88715  Biso   1.000  N
  N1913    1.0000 0.15242  0.51551  0.87497  Biso   1.000  N
  N1914    1.0000 0.15582  0.56091  0.92040  Biso   1.000  N
  N1915    1.0000 0.19029  0.57025  0.91034  Biso   1.000  N
  N1916    1.0000 0.17387  0.58763  0.93887  Biso   1.000  N
  N1917    1.0000 0.12185  0.60075  0.97432  Biso   1.000  N
  N1918    1.0000 0.09238  0.62676  0.99881  Biso   1.000  N
  N1919    1.0000 0.12524  0.59897  0.02009  Biso   1.000  N
  N1920    1.0000 0.09428  0.56397  0.07831  Biso   1.000  N
  S383     1.0000 0.07812  0.54463  0.91304  Biso   1.000  S
  S384     1.0000 0.04928  0.62346  0.00216  Biso   1.000  S
  Co1      1.0000 0.37182  0.50000  0.12182  Biso   1.000  Co
  Co2      1.0000 0.37182  0.00000  0.62182  Biso   1.000  Co
  Co3      1.0000 0.87182  0.50000  0.62182  Biso   1.000  Co
  Co4      1.0000 0.87182  0.00000  0.12182  Biso   1.000  Co
  Co5      1.0000 0.87818  0.25000  0.62182  Biso   1.000  Co
  Co6      1.0000 0.87818  0.75000  0.12182  Biso   1.000  Co
  Co7      1.0000 0.37818  0.25000  0.12182  Biso   1.000  Co
  Co8      1.0000 0.37818  0.75000  0.62182  Biso   1.000  Co
  Co9      1.0000 0.37818  0.00000  0.12818  Biso   1.000  Co
  Co10     1.0000 0.37818  0.50000  0.62818  Biso   1.000  Co
  Co11     1.0000 0.87818  0.00000  0.62818  Biso   1.000  Co
  Co12     1.0000 0.87818  0.50000  0.12818  Biso   1.000  Co
  Co13     1.0000 0.87182  0.75000  0.62818  Biso   1.000  Co
  Co14     1.0000 0.87182  0.25000  0.12818  Biso   1.000  Co
  Co15     1.0000 0.37182  0.75000  0.12818  Biso   1.000  Co
  Co16     1.0000 0.37182  0.25000  0.62818  Biso   1.000  Co
  Co17     1.0000 0.12182  0.37182  0.50000  Biso   1.000  Co
  Co18     1.0000 0.12182  0.87182  0.00000  Biso   1.000  Co
  Co19     1.0000 0.62182  0.37182  0.00000  Biso   1.000  Co
  Co20     1.0000 0.62182  0.87182  0.50000  Biso   1.000  Co
  Co21     1.0000 0.62182  0.87818  0.25000  Biso   1.000  Co
  Co22     1.0000 0.62182  0.37818  0.75000  Biso   1.000  Co
  Co23     1.0000 0.12182  0.87818  0.75000  Biso   1.000  Co
  Co24     1.0000 0.12182  0.37818  0.25000  Biso   1.000  Co
  Co25     1.0000 0.12818  0.37818  0.00000  Biso   1.000  Co
  Co26     1.0000 0.12818  0.87818  0.50000  Biso   1.000  Co
  Co27     1.0000 0.62818  0.37818  0.50000  Biso   1.000  Co
  Co28     1.0000 0.62818  0.87818  0.00000  Biso   1.000  Co
  Co29     1.0000 0.62818  0.87182  0.75000  Biso   1.000  Co
  Co30     1.0000 0.62818  0.37182  0.25000  Biso   1.000  Co
  Co31     1.0000 0.12818  0.87182  0.25000  Biso   1.000  Co
  Co32     1.0000 0.12818  0.37182  0.75000  Biso   1.000  Co
  Co33     1.0000 0.50000  0.12182  0.37182  Biso   1.000  Co
  Co34     1.0000 0.50000  0.62182  0.87182  Biso   1.000  Co
  Co35     1.0000 0.00000  0.12182  0.87182  Biso   1.000  Co
  Co36     1.0000 0.00000  0.62182  0.37182  Biso   1.000  Co
  Co37     1.0000 0.25000  0.62182  0.87818  Biso   1.000  Co
  Co38     1.0000 0.25000  0.12182  0.37818  Biso   1.000  Co
  Co39     1.0000 0.75000  0.62182  0.37818  Biso   1.000  Co
  Co40     1.0000 0.75000  0.12182  0.87818  Biso   1.000  Co
  Co41     1.0000 0.00000  0.12818  0.37818  Biso   1.000  Co
  Co42     1.0000 0.00000  0.62818  0.87818  Biso   1.000  Co
  Co43     1.0000 0.50000  0.12818  0.87818  Biso   1.000  Co
  Co44     1.0000 0.50000  0.62818  0.37818  Biso   1.000  Co
  Co45     1.0000 0.75000  0.62818  0.87182  Biso   1.000  Co
  Co46     1.0000 0.75000  0.12818  0.37182  Biso   1.000  Co
  Co47     1.0000 0.25000  0.62818  0.37182  Biso   1.000  Co
  Co48     1.0000 0.25000  0.12818  0.87182  Biso   1.000  Co
  Co49     1.0000 0.62818  0.50000  0.87818  Biso   1.000  Co
  Co50     1.0000 0.62818  0.00000  0.37818  Biso   1.000  Co
  Co51     1.0000 0.12818  0.50000  0.37818  Biso   1.000  Co
  Co52     1.0000 0.12818  0.00000  0.87818  Biso   1.000  Co
  Co53     1.0000 0.12182  0.75000  0.37818  Biso   1.000  Co
  Co54     1.0000 0.12182  0.25000  0.87818  Biso   1.000  Co
  Co55     1.0000 0.62182  0.75000  0.87818  Biso   1.000  Co
  Co56     1.0000 0.62182  0.25000  0.37818  Biso   1.000  Co
  Co57     1.0000 0.62182  0.00000  0.87182  Biso   1.000  Co
  Co58     1.0000 0.62182  0.50000  0.37182  Biso   1.000  Co
  Co59     1.0000 0.12182  0.00000  0.37182  Biso   1.000  Co
  Co60     1.0000 0.12182  0.50000  0.87182  Biso   1.000  Co
  Co61     1.0000 0.12818  0.25000  0.37182  Biso   1.000  Co
  Co62     1.0000 0.12818  0.75000  0.87182  Biso   1.000  Co
  Co63     1.0000 0.62818  0.25000  0.87182  Biso   1.000  Co
  Co64     1.0000 0.62818  0.75000  0.37182  Biso   1.000  Co
  Co65     1.0000 0.87818  0.62818  0.50000  Biso   1.000  Co
  Co66     1.0000 0.87818  0.12818  0.00000  Biso   1.000  Co
  Co67     1.0000 0.37818  0.62818  0.00000  Biso   1.000  Co
  Co68     1.0000 0.37818  0.12818  0.50000  Biso   1.000  Co
  Co69     1.0000 0.37818  0.12182  0.75000  Biso   1.000  Co
  Co70     1.0000 0.37818  0.62182  0.25000  Biso   1.000  Co
  Co71     1.0000 0.87818  0.12182  0.25000  Biso   1.000  Co
  Co72     1.0000 0.87818  0.62182  0.75000  Biso   1.000  Co
  Co73     1.0000 0.87182  0.62182  0.00000  Biso   1.000  Co
  Co74     1.0000 0.87182  0.12182  0.50000  Biso   1.000  Co
  Co75     1.0000 0.37182  0.62182  0.50000  Biso   1.000  Co
  Co76     1.0000 0.37182  0.12182  0.00000  Biso   1.000  Co
  Co77     1.0000 0.37182  0.12818  0.25000  Biso   1.000  Co
  Co78     1.0000 0.37182  0.62818  0.75000  Biso   1.000  Co
  Co79     1.0000 0.87182  0.12818  0.75000  Biso   1.000  Co
  Co80     1.0000 0.87182  0.62818  0.25000  Biso   1.000  Co
  Co81     1.0000 0.50000  0.87818  0.62818  Biso   1.000  Co
  Co82     1.0000 0.50000  0.37818  0.12818  Biso   1.000  Co
  Co83     1.0000 0.00000  0.87818  0.12818  Biso   1.000  Co
  Co84     1.0000 0.00000  0.37818  0.62818  Biso   1.000  Co
  Co85     1.0000 0.75000  0.37818  0.12182  Biso   1.000  Co
  Co86     1.0000 0.75000  0.87818  0.62182  Biso   1.000  Co
  Co87     1.0000 0.25000  0.37818  0.62182  Biso   1.000  Co
  Co88     1.0000 0.25000  0.87818  0.12182  Biso   1.000  Co
  Co89     1.0000 0.00000  0.87182  0.62182  Biso   1.000  Co
  Co90     1.0000 0.00000  0.37182  0.12182  Biso   1.000  Co
  Co91     1.0000 0.50000  0.87182  0.12182  Biso   1.000  Co
  Co92     1.0000 0.50000  0.37182  0.62182  Biso   1.000  Co
  Co93     1.0000 0.25000  0.37182  0.12818  Biso   1.000  Co
  Co94     1.0000 0.25000  0.87182  0.62818  Biso   1.000  Co
  Co95     1.0000 0.75000  0.37182  0.62818  Biso   1.000  Co
  Co96     1.0000 0.75000  0.87182  0.12818  Biso   1.000  Co
  Co97     1.0000 0.49791  0.62500  0.12500  Biso   1.000  Co
  Co98     1.0000 0.49791  0.12500  0.62500  Biso   1.000  Co
  Co99     1.0000 0.75209  0.12500  0.62500  Biso   1.000  Co
  Co100    1.0000 0.75209  0.62500  0.12500  Biso   1.000  Co
  Co101    1.0000 0.25209  0.12500  0.12500  Biso   1.000  Co
  Co102    1.0000 0.25209  0.62500  0.62500  Biso   1.000  Co
  Co103    1.0000 0.99791  0.62500  0.62500  Biso   1.000  Co
  Co104    1.0000 0.99791  0.12500  0.12500  Biso   1.000  Co
  Co105    1.0000 0.12500  0.49791  0.62500  Biso   1.000  Co
  Co106    1.0000 0.12500  0.99791  0.12500  Biso   1.000  Co
  Co107    1.0000 0.62500  0.75209  0.12500  Biso   1.000  Co
  Co108    1.0000 0.62500  0.25209  0.62500  Biso   1.000  Co
  Co109    1.0000 0.12500  0.25209  0.12500  Biso   1.000  Co
  Co110    1.0000 0.12500  0.75209  0.62500  Biso   1.000  Co
  Co111    1.0000 0.62500  0.99791  0.62500  Biso   1.000  Co
  Co112    1.0000 0.62500  0.49791  0.12500  Biso   1.000  Co
  Co113    1.0000 0.62500  0.12500  0.49791  Biso   1.000  Co
  Co114    1.0000 0.12500  0.12500  0.99791  Biso   1.000  Co
  Co115    1.0000 0.12500  0.62500  0.75209  Biso   1.000  Co
  Co116    1.0000 0.62500  0.62500  0.25209  Biso   1.000  Co
  Co117    1.0000 0.12500  0.12500  0.25209  Biso   1.000  Co
  Co118    1.0000 0.62500  0.12500  0.75209  Biso   1.000  Co
  Co119    1.0000 0.62500  0.62500  0.99791  Biso   1.000  Co
  Co120    1.0000 0.12500  0.62500  0.49791  Biso   1.000  Co
  Co121    1.0000 0.37500  0.74791  0.87500  Biso   1.000  Co
  Co122    1.0000 0.87500  0.74791  0.37500  Biso   1.000  Co
  Co123    1.0000 0.87500  0.00209  0.37500  Biso   1.000  Co
  Co124    1.0000 0.37500  0.00209  0.87500  Biso   1.000  Co
  Co125    1.0000 0.87500  0.50209  0.87500  Biso   1.000  Co
  Co126    1.0000 0.37500  0.50209  0.37500  Biso   1.000  Co
  Co127    1.0000 0.37500  0.24791  0.37500  Biso   1.000  Co
  Co128    1.0000 0.87500  0.24791  0.87500  Biso   1.000  Co
  Co129    1.0000 0.24791  0.37500  0.37500  Biso   1.000  Co
  Co130    1.0000 0.24791  0.87500  0.87500  Biso   1.000  Co
  Co131    1.0000 0.50209  0.87500  0.87500  Biso   1.000  Co
  Co132    1.0000 0.50209  0.37500  0.37500  Biso   1.000  Co
  Co133    1.0000 0.00209  0.37500  0.87500  Biso   1.000  Co
  Co134    1.0000 0.00209  0.87500  0.37500  Biso   1.000  Co
  Co135    1.0000 0.74791  0.87500  0.37500  Biso   1.000  Co
  Co136    1.0000 0.74791  0.37500  0.87500  Biso   1.000  Co
  Co137    1.0000 0.87500  0.87500  0.50209  Biso   1.000  Co
  Co138    1.0000 0.87500  0.37500  0.00209  Biso   1.000  Co
  Co139    1.0000 0.37500  0.37500  0.24791  Biso   1.000  Co
  Co140    1.0000 0.37500  0.87500  0.74791  Biso   1.000  Co
  Co141    1.0000 0.87500  0.37500  0.74791  Biso   1.000  Co
  Co142    1.0000 0.87500  0.87500  0.24791  Biso   1.000  Co
  Co143    1.0000 0.37500  0.87500  0.00209  Biso   1.000  Co
  Co144    1.0000 0.37500  0.37500  0.50209  Biso   1.000  Co
  Co145    1.0000 0.50209  0.37500  0.87500  Biso   1.000  Co
  Co146    1.0000 0.50209  0.87500  0.37500  Biso   1.000  Co
  Co147    1.0000 0.24791  0.87500  0.37500  Biso   1.000  Co
  Co148    1.0000 0.24791  0.37500  0.87500  Biso   1.000  Co
  Co149    1.0000 0.74791  0.87500  0.87500  Biso   1.000  Co
  Co150    1.0000 0.74791  0.37500  0.37500  Biso   1.000  Co
  Co151    1.0000 0.00209  0.37500  0.37500  Biso   1.000  Co
  Co152    1.0000 0.00209  0.87500  0.87500  Biso   1.000  Co
  Co153    1.0000 0.87500  0.50209  0.37500  Biso   1.000  Co
  Co154    1.0000 0.87500  0.00209  0.87500  Biso   1.000  Co
  Co155    1.0000 0.37500  0.24791  0.87500  Biso   1.000  Co
  Co156    1.0000 0.37500  0.74791  0.37500  Biso   1.000  Co
  Co157    1.0000 0.87500  0.74791  0.87500  Biso   1.000  Co
  Co158    1.0000 0.87500  0.24791  0.37500  Biso   1.000  Co
  Co159    1.0000 0.37500  0.00209  0.37500  Biso   1.000  Co
  Co160    1.0000 0.37500  0.50209  0.87500  Biso   1.000  Co
  Co161    1.0000 0.37500  0.87500  0.50209  Biso   1.000  Co
  Co162    1.0000 0.87500  0.87500  0.00209  Biso   1.000  Co
  Co163    1.0000 0.87500  0.37500  0.24791  Biso   1.000  Co
  Co164    1.0000 0.37500  0.37500  0.74791  Biso   1.000  Co
  Co165    1.0000 0.87500  0.87500  0.74791  Biso   1.000  Co
  Co166    1.0000 0.37500  0.87500  0.24791  Biso   1.000  Co
  Co167    1.0000 0.37500  0.37500  0.00209  Biso   1.000  Co
  Co168    1.0000 0.87500  0.37500  0.50209  Biso   1.000  Co
  Co169    1.0000 0.62500  0.25209  0.12500  Biso   1.000  Co
  Co170    1.0000 0.12500  0.25209  0.62500  Biso   1.000  Co
  Co171    1.0000 0.12500  0.99791  0.62500  Biso   1.000  Co
  Co172    1.0000 0.62500  0.99791  0.12500  Biso   1.000  Co
  Co173    1.0000 0.12500  0.49791  0.12500  Biso   1.000  Co
  Co174    1.0000 0.62500  0.49791  0.62500  Biso   1.000  Co
  Co175    1.0000 0.62500  0.75209  0.62500  Biso   1.000  Co
  Co176    1.0000 0.12500  0.75209  0.12500  Biso   1.000  Co
  Co177    1.0000 0.75209  0.62500  0.62500  Biso   1.000  Co
  Co178    1.0000 0.75209  0.12500  0.12500  Biso   1.000  Co
  Co179    1.0000 0.49791  0.12500  0.12500  Biso   1.000  Co
  Co180    1.0000 0.49791  0.62500  0.62500  Biso   1.000  Co
  Co181    1.0000 0.99791  0.62500  0.12500  Biso   1.000  Co
  Co182    1.0000 0.99791  0.12500  0.62500  Biso   1.000  Co
  Co183    1.0000 0.25209  0.12500  0.62500  Biso   1.000  Co
  Co184    1.0000 0.25209  0.62500  0.12500  Biso   1.000  Co
  Co185    1.0000 0.12500  0.12500  0.49791  Biso   1.000  Co
  Co186    1.0000 0.12500  0.62500  0.99791  Biso   1.000  Co
  Co187    1.0000 0.62500  0.62500  0.75209  Biso   1.000  Co
  Co188    1.0000 0.62500  0.12500  0.25209  Biso   1.000  Co
  Co189    1.0000 0.12500  0.62500  0.25209  Biso   1.000  Co
  Co190    1.0000 0.12500  0.12500  0.75209  Biso   1.000  Co
  Co191    1.0000 0.62500  0.12500  0.99791  Biso   1.000  Co
  Co192    1.0000 0.62500  0.62500  0.49791  Biso   1.000  Co
