data_image0
_cell_length_a       13.7247
_cell_length_b       27.787
_cell_length_c       45.881
_cell_angle_alpha    90
_cell_angle_beta     90
_cell_angle_gamma    90

_symmetry_space_group_name_H-M    P 1
_symmetry_int_tables_number       1

loop_
  _symmetry_equiv_pos_as_xyz
  'x, y, z'

loop_
  _atom_site_label
  _atom_site_occupancy
  _atom_site_fract_x
  _atom_site_fract_y
  _atom_site_fract_z
  _atom_site_thermal_displace_type
  _atom_site_B_iso_or_equiv
  _atom_site_type_symbol
  Zn1      1.0000 0.84829  0.74554  0.81349  Biso   1.000  Zn
  Zn2      1.0000 0.14432  0.94750  0.57474  Biso   1.000  Zn
  Zn3      1.0000 0.14154  0.47252  0.59039  Biso   1.000  Zn
  Zn4      1.0000 0.15171  0.75446  0.31349  Biso   1.000  Zn
  Zn5      1.0000 0.85568  0.55250  0.07474  Biso   1.000  Zn
  Zn6      1.0000 0.85846  0.02748  0.09039  Biso   1.000  Zn
  Zn7      1.0000 0.34829  0.25446  0.68651  Biso   1.000  Zn
  Zn8      1.0000 0.64432  0.05250  0.92526  Biso   1.000  Zn
  Zn9      1.0000 0.64154  0.52748  0.90961  Biso   1.000  Zn
  Zn10     1.0000 0.65171  0.24554  0.18651  Biso   1.000  Zn
  Zn11     1.0000 0.35568  0.44750  0.42526  Biso   1.000  Zn
  Zn12     1.0000 0.35846  0.97252  0.40961  Biso   1.000  Zn
  H1       1.0000 0.95030  0.80600  0.76850  Biso   1.000  H
  H2       1.0000 0.00770  0.79900  0.72080  Biso   1.000  H
  H3       1.0000 0.98450  0.65400  0.72910  Biso   1.000  H
  H4       1.0000 0.92490  0.66520  0.77590  Biso   1.000  H
  H5       1.0000 0.04600  0.84790  0.66090  Biso   1.000  H
  H6       1.0000 0.07190  0.91590  0.63320  Biso   1.000  H
  H7       1.0000 0.13620  0.83870  0.56410  Biso   1.000  H
  H8       1.0000 0.10790  0.76800  0.58910  Biso   1.000  H
  H9       1.0000 0.08790  0.65120  0.59340  Biso   1.000  H
  H10      1.0000 0.11070  0.57580  0.57280  Biso   1.000  H
  H11      1.0000 0.08360  0.51300  0.64920  Biso   1.000  H
  H12      1.0000 0.05560  0.58620  0.67180  Biso   1.000  H
  H13      1.0000 0.80940  0.68860  0.86660  Biso   1.000  H
  H14      1.0000 0.89110  0.65220  0.90540  Biso   1.000  H
  H15      1.0000 0.14640  0.68360  0.86560  Biso   1.000  H
  H16      1.0000 0.05820  0.72190  0.82930  Biso   1.000  H
  H17      1.0000 0.89150  0.61760  0.97260  Biso   1.000  H
  H18      1.0000 0.13540  0.55570  0.00500  Biso   1.000  H
  H19      1.0000 0.34590  0.57090  0.96910  Biso   1.000  H
  H20      1.0000 0.32630  0.60680  0.88400  Biso   1.000  H
  H21      1.0000 0.04990  0.53480  0.04590  Biso   1.000  H
  H22      1.0000 0.81190  0.59470  0.01520  Biso   1.000  H
  H23      1.0000 0.50350  0.54260  0.96060  Biso   1.000  H
  H24      1.0000 0.48400  0.57820  0.87740  Biso   1.000  H
  H25      1.0000 0.04970  0.69400  0.26850  Biso   1.000  H
  H26      1.0000 0.99230  0.70100  0.22080  Biso   1.000  H
  H27      1.0000 0.01550  0.84600  0.22910  Biso   1.000  H
  H28      1.0000 0.07510  0.83480  0.27590  Biso   1.000  H
  H29      1.0000 0.95400  0.65210  0.16090  Biso   1.000  H
  H30      1.0000 0.92810  0.58410  0.13320  Biso   1.000  H
  H31      1.0000 0.86380  0.66130  0.06410  Biso   1.000  H
  H32      1.0000 0.89210  0.73200  0.08910  Biso   1.000  H
  H33      1.0000 0.91210  0.84880  0.09340  Biso   1.000  H
  H34      1.0000 0.88930  0.92420  0.07280  Biso   1.000  H
  H35      1.0000 0.91640  0.98700  0.14920  Biso   1.000  H
  H36      1.0000 0.94440  0.91380  0.17180  Biso   1.000  H
  H37      1.0000 0.19060  0.81140  0.36660  Biso   1.000  H
  H38      1.0000 0.10890  0.84780  0.40540  Biso   1.000  H
  H39      1.0000 0.85360  0.81640  0.36560  Biso   1.000  H
  H40      1.0000 0.94180  0.77810  0.32930  Biso   1.000  H
  H41      1.0000 0.10850  0.88240  0.47260  Biso   1.000  H
  H42      1.0000 0.86460  0.94430  0.50500  Biso   1.000  H
  H43      1.0000 0.65410  0.92910  0.46910  Biso   1.000  H
  H44      1.0000 0.67370  0.89320  0.38400  Biso   1.000  H
  H45      1.0000 0.95010  0.96520  0.54590  Biso   1.000  H
  H46      1.0000 0.18810  0.90530  0.51520  Biso   1.000  H
  H47      1.0000 0.49650  0.95740  0.46060  Biso   1.000  H
  H48      1.0000 0.51600  0.92180  0.37740  Biso   1.000  H
  H49      1.0000 0.45030  0.19400  0.73150  Biso   1.000  H
  H50      1.0000 0.50770  0.20100  0.77920  Biso   1.000  H
  H51      1.0000 0.48450  0.34600  0.77090  Biso   1.000  H
  H52      1.0000 0.42490  0.33480  0.72410  Biso   1.000  H
  H53      1.0000 0.54600  0.15210  0.83910  Biso   1.000  H
  H54      1.0000 0.57190  0.08410  0.86680  Biso   1.000  H
  H55      1.0000 0.63620  0.16130  0.93590  Biso   1.000  H
  H56      1.0000 0.60790  0.23200  0.91090  Biso   1.000  H
  H57      1.0000 0.58790  0.34880  0.90660  Biso   1.000  H
  H58      1.0000 0.61070  0.42420  0.92720  Biso   1.000  H
  H59      1.0000 0.58360  0.48700  0.85080  Biso   1.000  H
  H60      1.0000 0.55560  0.41380  0.82820  Biso   1.000  H
  H61      1.0000 0.30940  0.31140  0.63340  Biso   1.000  H
  H62      1.0000 0.39110  0.34780  0.59460  Biso   1.000  H
  H63      1.0000 0.64640  0.31640  0.63440  Biso   1.000  H
  H64      1.0000 0.55820  0.27810  0.67070  Biso   1.000  H
  H65      1.0000 0.39150  0.38240  0.52740  Biso   1.000  H
  H66      1.0000 0.63540  0.44430  0.49500  Biso   1.000  H
  H67      1.0000 0.84590  0.42910  0.53090  Biso   1.000  H
  H68      1.0000 0.82630  0.39320  0.61600  Biso   1.000  H
  H69      1.0000 0.54990  0.46520  0.45410  Biso   1.000  H
  H70      1.0000 0.31190  0.40530  0.48480  Biso   1.000  H
  H71      1.0000 0.00350  0.45740  0.53940  Biso   1.000  H
  H72      1.0000 0.98400  0.42180  0.62260  Biso   1.000  H
  H73      1.0000 0.54970  0.30600  0.23150  Biso   1.000  H
  H74      1.0000 0.49230  0.29900  0.27920  Biso   1.000  H
  H75      1.0000 0.51550  0.15400  0.27090  Biso   1.000  H
  H76      1.0000 0.57510  0.16520  0.22410  Biso   1.000  H
  H77      1.0000 0.45400  0.34790  0.33910  Biso   1.000  H
  H78      1.0000 0.42810  0.41590  0.36680  Biso   1.000  H
  H79      1.0000 0.36380  0.33870  0.43590  Biso   1.000  H
  H80      1.0000 0.39210  0.26800  0.41090  Biso   1.000  H
  H81      1.0000 0.41210  0.15120  0.40660  Biso   1.000  H
  H82      1.0000 0.38930  0.07580  0.42720  Biso   1.000  H
  H83      1.0000 0.41640  0.01300  0.35080  Biso   1.000  H
  H84      1.0000 0.44440  0.08620  0.32820  Biso   1.000  H
  H85      1.0000 0.69060  0.18860  0.13340  Biso   1.000  H
  H86      1.0000 0.60890  0.15220  0.09460  Biso   1.000  H
  H87      1.0000 0.35360  0.18360  0.13440  Biso   1.000  H
  H88      1.0000 0.44180  0.22190  0.17070  Biso   1.000  H
  H89      1.0000 0.60850  0.11760  0.02740  Biso   1.000  H
  H90      1.0000 0.36460  0.05570  0.99500  Biso   1.000  H
  H91      1.0000 0.15410  0.07090  0.03090  Biso   1.000  H
  H92      1.0000 0.17370  0.10680  0.11600  Biso   1.000  H
  H93      1.0000 0.45010  0.03480  0.95410  Biso   1.000  H
  H94      1.0000 0.68810  0.09470  0.98480  Biso   1.000  H
  H95      1.0000 0.99650  0.04260  0.03940  Biso   1.000  H
  H96      1.0000 0.01600  0.07820  0.12260  Biso   1.000  H
  C1       1.0000 0.95540  0.77490  0.76005  Biso   1.000  C
  C2       1.0000 0.99020  0.77110  0.73168  Biso   1.000  C
  C3       1.0000 0.99860  0.72590  0.71975  Biso   1.000  C
  C4       1.0000 0.97600  0.68560  0.73661  Biso   1.000  C
  C5       1.0000 0.94100  0.69260  0.76447  Biso   1.000  C
  C6       1.0000 0.02700  0.71990  0.68855  Biso   1.000  C
  C7       1.0000 0.06120  0.75610  0.64552  Biso   1.000  C
  C8       1.0000 0.05990  0.67420  0.64880  Biso   1.000  C
  C9       1.0000 0.07580  0.80000  0.62807  Biso   1.000  C
  C10      1.0000 0.06440  0.84510  0.64097  Biso   1.000  C
  C11      1.0000 0.08030  0.88530  0.62432  Biso   1.000  C
  C12      1.0000 0.11720  0.84040  0.58397  Biso   1.000  C
  C13      1.0000 0.10140  0.79800  0.59878  Biso   1.000  C
  C14      1.0000 0.07070  0.62730  0.63506  Biso   1.000  C
  C15      1.0000 0.08670  0.62330  0.60532  Biso   1.000  C
  C16      1.0000 0.10100  0.57810  0.59330  Biso   1.000  C
  C17      1.0000 0.08460  0.54140  0.63780  Biso   1.000  C
  C18      1.0000 0.06830  0.58500  0.65140  Biso   1.000  C
  C19      1.0000 0.87860  0.68820  0.86666  Biso   1.000  C
  C20      1.0000 0.92680  0.66600  0.88976  Biso   1.000  C
  C21      1.0000 0.02750  0.66420  0.88950  Biso   1.000  C
  C22      1.0000 0.07730  0.68470  0.86650  Biso   1.000  C
  C23      1.0000 0.02380  0.70710  0.84490  Biso   1.000  C
  C24      1.0000 0.07950  0.64060  0.91386  Biso   1.000  C
  C25      1.0000 0.07810  0.60590  0.95819  Biso   1.000  C
  C26      1.0000 0.21660  0.60680  0.93178  Biso   1.000  C
  C27      1.0000 0.02440  0.59080  0.98492  Biso   1.000  C
  C28      1.0000 0.92570  0.60130  0.98766  Biso   1.000  C
  C29      1.0000 0.06900  0.56480  0.00680  Biso   1.000  C
  C30      1.0000 0.31990  0.59110  0.92710  Biso   1.000  C
  C31      1.0000 0.37310  0.57230  0.95010  Biso   1.000  C
  C32      1.0000 0.36140  0.59360  0.90000  Biso   1.000  C
  C33      1.0000 0.01750  0.55230  0.03098  Biso   1.000  C
  C34      1.0000 0.87900  0.58720  0.01304  Biso   1.000  C
  C35      1.0000 0.46680  0.55560  0.94490  Biso   1.000  C
  C36      1.0000 0.45530  0.57640  0.89620  Biso   1.000  C
  C37      1.0000 0.04460  0.72510  0.26005  Biso   1.000  C
  C38      1.0000 0.00980  0.72890  0.23168  Biso   1.000  C
  C39      1.0000 0.00140  0.77410  0.21975  Biso   1.000  C
  C40      1.0000 0.02400  0.81440  0.23661  Biso   1.000  C
  C41      1.0000 0.05900  0.80740  0.26447  Biso   1.000  C
  C42      1.0000 0.97300  0.78010  0.18855  Biso   1.000  C
  C43      1.0000 0.93880  0.74390  0.14552  Biso   1.000  C
  C44      1.0000 0.94010  0.82580  0.14880  Biso   1.000  C
  C45      1.0000 0.92420  0.70000  0.12807  Biso   1.000  C
  C46      1.0000 0.93560  0.65490  0.14097  Biso   1.000  C
  C47      1.0000 0.91970  0.61470  0.12432  Biso   1.000  C
  C48      1.0000 0.88280  0.65960  0.08397  Biso   1.000  C
  C49      1.0000 0.89860  0.70200  0.09878  Biso   1.000  C
  C50      1.0000 0.92930  0.87270  0.13506  Biso   1.000  C
  C51      1.0000 0.91330  0.87670  0.10532  Biso   1.000  C
  C52      1.0000 0.89900  0.92190  0.09330  Biso   1.000  C
  C53      1.0000 0.91540  0.95860  0.13780  Biso   1.000  C
  C54      1.0000 0.93170  0.91500  0.15140  Biso   1.000  C
  C55      1.0000 0.12140  0.81180  0.36666  Biso   1.000  C
  C56      1.0000 0.07320  0.83400  0.38976  Biso   1.000  C
  C57      1.0000 0.97250  0.83580  0.38950  Biso   1.000  C
  C58      1.0000 0.92270  0.81530  0.36650  Biso   1.000  C
  C59      1.0000 0.97620  0.79290  0.34490  Biso   1.000  C
  C60      1.0000 0.92050  0.85940  0.41386  Biso   1.000  C
  C61      1.0000 0.92190  0.89410  0.45819  Biso   1.000  C
  C62      1.0000 0.78340  0.89320  0.43178  Biso   1.000  C
  C63      1.0000 0.97560  0.90920  0.48492  Biso   1.000  C
  C64      1.0000 0.07430  0.89870  0.48766  Biso   1.000  C
  C65      1.0000 0.93100  0.93520  0.50680  Biso   1.000  C
  C66      1.0000 0.68010  0.90890  0.42710  Biso   1.000  C
  C67      1.0000 0.62690  0.92770  0.45010  Biso   1.000  C
  C68      1.0000 0.63860  0.90640  0.40000  Biso   1.000  C
  C69      1.0000 0.98250  0.94770  0.53098  Biso   1.000  C
  C70      1.0000 0.12100  0.91280  0.51304  Biso   1.000  C
  C71      1.0000 0.53320  0.94440  0.44490  Biso   1.000  C
  C72      1.0000 0.54470  0.92360  0.39620  Biso   1.000  C
  C73      1.0000 0.45540  0.22510  0.73995  Biso   1.000  C
  C74      1.0000 0.49020  0.22890  0.76832  Biso   1.000  C
  C75      1.0000 0.49860  0.27410  0.78025  Biso   1.000  C
  C76      1.0000 0.47600  0.31440  0.76339  Biso   1.000  C
  C77      1.0000 0.44100  0.30740  0.73553  Biso   1.000  C
  C78      1.0000 0.52700  0.28010  0.81145  Biso   1.000  C
  C79      1.0000 0.56120  0.24390  0.85448  Biso   1.000  C
  C80      1.0000 0.55990  0.32580  0.85120  Biso   1.000  C
  C81      1.0000 0.57580  0.20000  0.87193  Biso   1.000  C
  C82      1.0000 0.56440  0.15490  0.85903  Biso   1.000  C
  C83      1.0000 0.58030  0.11470  0.87568  Biso   1.000  C
  C84      1.0000 0.61720  0.15960  0.91603  Biso   1.000  C
  C85      1.0000 0.60140  0.20200  0.90122  Biso   1.000  C
  C86      1.0000 0.57070  0.37270  0.86494  Biso   1.000  C
  C87      1.0000 0.58670  0.37670  0.89468  Biso   1.000  C
  C88      1.0000 0.60100  0.42190  0.90670  Biso   1.000  C
  C89      1.0000 0.58460  0.45860  0.86220  Biso   1.000  C
  C90      1.0000 0.56830  0.41500  0.84860  Biso   1.000  C
  C91      1.0000 0.37860  0.31180  0.63334  Biso   1.000  C
  C92      1.0000 0.42680  0.33400  0.61024  Biso   1.000  C
  C93      1.0000 0.52750  0.33580  0.61050  Biso   1.000  C
  C94      1.0000 0.57730  0.31530  0.63350  Biso   1.000  C
  C95      1.0000 0.52380  0.29290  0.65510  Biso   1.000  C
  C96      1.0000 0.57950  0.35940  0.58614  Biso   1.000  C
  C97      1.0000 0.57810  0.39410  0.54181  Biso   1.000  C
  C98      1.0000 0.71660  0.39320  0.56822  Biso   1.000  C
  C99      1.0000 0.52440  0.40920  0.51508  Biso   1.000  C
  C100     1.0000 0.42570  0.39870  0.51234  Biso   1.000  C
  C101     1.0000 0.56900  0.43520  0.49320  Biso   1.000  C
  C102     1.0000 0.81990  0.40890  0.57290  Biso   1.000  C
  C103     1.0000 0.87310  0.42770  0.54990  Biso   1.000  C
  C104     1.0000 0.86140  0.40640  0.60000  Biso   1.000  C
  C105     1.0000 0.51750  0.44770  0.46902  Biso   1.000  C
  C106     1.0000 0.37900  0.41280  0.48696  Biso   1.000  C
  C107     1.0000 0.96680  0.44440  0.55510  Biso   1.000  C
  C108     1.0000 0.95530  0.42360  0.60380  Biso   1.000  C
  C109     1.0000 0.54460  0.27490  0.23995  Biso   1.000  C
  C110     1.0000 0.50980  0.27110  0.26832  Biso   1.000  C
  C111     1.0000 0.50140  0.22590  0.28025  Biso   1.000  C
  C112     1.0000 0.52400  0.18560  0.26339  Biso   1.000  C
  C113     1.0000 0.55900  0.19260  0.23553  Biso   1.000  C
  C114     1.0000 0.47300  0.21990  0.31145  Biso   1.000  C
  C115     1.0000 0.43880  0.25610  0.35448  Biso   1.000  C
  C116     1.0000 0.44010  0.17420  0.35120  Biso   1.000  C
  C117     1.0000 0.42420  0.30000  0.37193  Biso   1.000  C
  C118     1.0000 0.43560  0.34510  0.35903  Biso   1.000  C
  C119     1.0000 0.41970  0.38530  0.37568  Biso   1.000  C
  C120     1.0000 0.38280  0.34040  0.41603  Biso   1.000  C
  C121     1.0000 0.39860  0.29800  0.40122  Biso   1.000  C
  C122     1.0000 0.42930  0.12730  0.36494  Biso   1.000  C
  C123     1.0000 0.41330  0.12330  0.39468  Biso   1.000  C
  C124     1.0000 0.39900  0.07810  0.40670  Biso   1.000  C
  C125     1.0000 0.41540  0.04140  0.36220  Biso   1.000  C
  C126     1.0000 0.43170  0.08500  0.34860  Biso   1.000  C
  C127     1.0000 0.62140  0.18820  0.13334  Biso   1.000  C
  C128     1.0000 0.57320  0.16600  0.11024  Biso   1.000  C
  C129     1.0000 0.47250  0.16420  0.11050  Biso   1.000  C
  C130     1.0000 0.42270  0.18470  0.13350  Biso   1.000  C
  C131     1.0000 0.47620  0.20710  0.15510  Biso   1.000  C
  C132     1.0000 0.42050  0.14060  0.08614  Biso   1.000  C
  C133     1.0000 0.42190  0.10590  0.04181  Biso   1.000  C
  C134     1.0000 0.28340  0.10680  0.06822  Biso   1.000  C
  C135     1.0000 0.47560  0.09080  0.01508  Biso   1.000  C
  C136     1.0000 0.57430  0.10130  0.01234  Biso   1.000  C
  C137     1.0000 0.43100  0.06480  0.99320  Biso   1.000  C
  C138     1.0000 0.18010  0.09110  0.07290  Biso   1.000  C
  C139     1.0000 0.12690  0.07230  0.04990  Biso   1.000  C
  C140     1.0000 0.13860  0.09360  0.10000  Biso   1.000  C
  C141     1.0000 0.48250  0.05230  0.96902  Biso   1.000  C
  C142     1.0000 0.62100  0.08720  0.98696  Biso   1.000  C
  C143     1.0000 0.03320  0.05560  0.05510  Biso   1.000  C
  C144     1.0000 0.04470  0.07640  0.10380  Biso   1.000  C
  I1       1.0000 0.83950  0.83544  0.82480  Biso   1.000  I
  I2       1.0000 0.69096  0.69735  0.80666  Biso   1.000  I
  I3       1.0000 0.05080  0.01406  0.60107  Biso   1.000  I
  I4       1.0000 0.32775  0.94213  0.56675  Biso   1.000  I
  I5       1.0000 0.22459  0.42602  0.63142  Biso   1.000  I
  I6       1.0000 0.22266  0.48921  0.54132  Biso   1.000  I
  I7       1.0000 0.16050  0.66456  0.32480  Biso   1.000  I
  I8       1.0000 0.30904  0.80265  0.30666  Biso   1.000  I
  I9       1.0000 0.94920  0.48594  0.10107  Biso   1.000  I
  I10      1.0000 0.67225  0.55787  0.06675  Biso   1.000  I
  I11      1.0000 0.77541  0.07398  0.13142  Biso   1.000  I
  I12      1.0000 0.77734  0.01079  0.04132  Biso   1.000  I
  I13      1.0000 0.33950  0.16456  0.67520  Biso   1.000  I
  I14      1.0000 0.19096  0.30265  0.69334  Biso   1.000  I
  I15      1.0000 0.55080  0.98594  0.89893  Biso   1.000  I
  I16      1.0000 0.82775  0.05787  0.93325  Biso   1.000  I
  I17      1.0000 0.72459  0.57398  0.86858  Biso   1.000  I
  I18      1.0000 0.72266  0.51079  0.95868  Biso   1.000  I
  I19      1.0000 0.66050  0.33544  0.17520  Biso   1.000  I
  I20      1.0000 0.80904  0.19735  0.19334  Biso   1.000  I
  I21      1.0000 0.44920  0.51406  0.39893  Biso   1.000  I
  I22      1.0000 0.17225  0.44213  0.43325  Biso   1.000  I
  I23      1.0000 0.27541  0.92602  0.36858  Biso   1.000  I
  I24      1.0000 0.27734  0.98921  0.45868  Biso   1.000  I
  N1       1.0000 0.92880  0.73660  0.77598  Biso   1.000  N
  N2       1.0000 0.03940  0.76130  0.67353  Biso   1.000  N
  N3       1.0000 0.07250  0.71340  0.63190  Biso   1.000  N
  N4       1.0000 0.03570  0.67600  0.67753  Biso   1.000  N
  N5       1.0000 0.10700  0.88400  0.59627  Biso   1.000  N
  N6       1.0000 0.10170  0.53750  0.60913  Biso   1.000  N
  N7       1.0000 0.92660  0.70900  0.84455  Biso   1.000  N
  N8       1.0000 0.02810  0.62920  0.93779  Biso   1.000  N
  N9       1.0000 0.17230  0.59380  0.95684  Biso   1.000  N
  N10      1.0000 0.17500  0.63090  0.90974  Biso   1.000  N
  N11      1.0000 0.92340  0.56360  0.03478  Biso   1.000  N
  N12      1.0000 0.50690  0.55750  0.91817  Biso   1.000  N
  N13      1.0000 0.07120  0.76340  0.27598  Biso   1.000  N
  N14      1.0000 0.96060  0.73870  0.17353  Biso   1.000  N
  N15      1.0000 0.92750  0.78660  0.13190  Biso   1.000  N
  N16      1.0000 0.96430  0.82400  0.17753  Biso   1.000  N
  N17      1.0000 0.89300  0.61600  0.09627  Biso   1.000  N
  N18      1.0000 0.89830  0.96250  0.10913  Biso   1.000  N
  N19      1.0000 0.07340  0.79100  0.34455  Biso   1.000  N
  N20      1.0000 0.97190  0.87080  0.43779  Biso   1.000  N
  N21      1.0000 0.82770  0.90620  0.45684  Biso   1.000  N
  N22      1.0000 0.82500  0.86910  0.40974  Biso   1.000  N
  N23      1.0000 0.07660  0.93640  0.53478  Biso   1.000  N
  N24      1.0000 0.49310  0.94250  0.41817  Biso   1.000  N
  N25      1.0000 0.42880  0.26340  0.72402  Biso   1.000  N
  N26      1.0000 0.53940  0.23870  0.82647  Biso   1.000  N
  N27      1.0000 0.57250  0.28660  0.86810  Biso   1.000  N
  N28      1.0000 0.53570  0.32400  0.82247  Biso   1.000  N
  N29      1.0000 0.60700  0.11600  0.90373  Biso   1.000  N
  N30      1.0000 0.60170  0.46250  0.89087  Biso   1.000  N
  N31      1.0000 0.42660  0.29100  0.65545  Biso   1.000  N
  N32      1.0000 0.52810  0.37080  0.56221  Biso   1.000  N
  N33      1.0000 0.67230  0.40620  0.54316  Biso   1.000  N
  N34      1.0000 0.67500  0.36910  0.59026  Biso   1.000  N
  N35      1.0000 0.42340  0.43640  0.46522  Biso   1.000  N
  N36      1.0000 0.00690  0.44250  0.58183  Biso   1.000  N
  N37      1.0000 0.57120  0.23660  0.22402  Biso   1.000  N
  N38      1.0000 0.46060  0.26130  0.32647  Biso   1.000  N
  N39      1.0000 0.42750  0.21340  0.36810  Biso   1.000  N
  N40      1.0000 0.46430  0.17600  0.32247  Biso   1.000  N
  N41      1.0000 0.39300  0.38400  0.40373  Biso   1.000  N
  N42      1.0000 0.39830  0.03750  0.39087  Biso   1.000  N
  N43      1.0000 0.57340  0.20900  0.15545  Biso   1.000  N
  N44      1.0000 0.47190  0.12920  0.06221  Biso   1.000  N
  N45      1.0000 0.32770  0.09380  0.04316  Biso   1.000  N
  N46      1.0000 0.32500  0.13090  0.09026  Biso   1.000  N
  N47      1.0000 0.57660  0.06360  0.96522  Biso   1.000  N
  N48      1.0000 0.99310  0.05750  0.08183  Biso   1.000  N
  Zn13     1.0000 0.15171  0.25446  0.18651  Biso   1.000  Zn
  Zn14     1.0000 0.85568  0.05250  0.42526  Biso   1.000  Zn
  Zn15     1.0000 0.85846  0.52748  0.40961  Biso   1.000  Zn
  Zn16     1.0000 0.84829  0.24554  0.68651  Biso   1.000  Zn
  Zn17     1.0000 0.14432  0.44750  0.92526  Biso   1.000  Zn
  Zn18     1.0000 0.14154  0.97252  0.90961  Biso   1.000  Zn
  Zn19     1.0000 0.65171  0.74554  0.31349  Biso   1.000  Zn
  Zn20     1.0000 0.35568  0.94750  0.07474  Biso   1.000  Zn
  Zn21     1.0000 0.35846  0.47252  0.09039  Biso   1.000  Zn
  Zn22     1.0000 0.34829  0.75446  0.81349  Biso   1.000  Zn
  Zn23     1.0000 0.64432  0.55250  0.57474  Biso   1.000  Zn
  Zn24     1.0000 0.64154  0.02748  0.59039  Biso   1.000  Zn
  H97      1.0000 0.04970  0.19400  0.23150  Biso   1.000  H
  H98      1.0000 0.99230  0.20100  0.27920  Biso   1.000  H
  H99      1.0000 0.01550  0.34600  0.27090  Biso   1.000  H
  H100     1.0000 0.07510  0.33480  0.22410  Biso   1.000  H
  H101     1.0000 0.95400  0.15210  0.33910  Biso   1.000  H
  H102     1.0000 0.92810  0.08410  0.36680  Biso   1.000  H
  H103     1.0000 0.86380  0.16130  0.43590  Biso   1.000  H
  H104     1.0000 0.89210  0.23200  0.41090  Biso   1.000  H
  H105     1.0000 0.91210  0.34880  0.40660  Biso   1.000  H
  H106     1.0000 0.88930  0.42420  0.42720  Biso   1.000  H
  H107     1.0000 0.91640  0.48700  0.35080  Biso   1.000  H
  H108     1.0000 0.94440  0.41380  0.32820  Biso   1.000  H
  H109     1.0000 0.19060  0.31140  0.13340  Biso   1.000  H
  H110     1.0000 0.10890  0.34780  0.09460  Biso   1.000  H
  H111     1.0000 0.85360  0.31640  0.13440  Biso   1.000  H
  H112     1.0000 0.94180  0.27810  0.17070  Biso   1.000  H
  H113     1.0000 0.10850  0.38240  0.02740  Biso   1.000  H
  H114     1.0000 0.86460  0.44430  0.99500  Biso   1.000  H
  H115     1.0000 0.65410  0.42910  0.03090  Biso   1.000  H
  H116     1.0000 0.67370  0.39320  0.11600  Biso   1.000  H
  H117     1.0000 0.95010  0.46520  0.95410  Biso   1.000  H
  H118     1.0000 0.18810  0.40530  0.98480  Biso   1.000  H
  H119     1.0000 0.49650  0.45740  0.03940  Biso   1.000  H
  H120     1.0000 0.51600  0.42180  0.12260  Biso   1.000  H
  H121     1.0000 0.95030  0.30600  0.73150  Biso   1.000  H
  H122     1.0000 0.00770  0.29900  0.77920  Biso   1.000  H
  H123     1.0000 0.98450  0.15400  0.77090  Biso   1.000  H
  H124     1.0000 0.92490  0.16520  0.72410  Biso   1.000  H
  H125     1.0000 0.04600  0.34790  0.83910  Biso   1.000  H
  H126     1.0000 0.07190  0.41590  0.86680  Biso   1.000  H
  H127     1.0000 0.13620  0.33870  0.93590  Biso   1.000  H
  H128     1.0000 0.10790  0.26800  0.91090  Biso   1.000  H
  H129     1.0000 0.08790  0.15120  0.90660  Biso   1.000  H
  H130     1.0000 0.11070  0.07580  0.92720  Biso   1.000  H
  H131     1.0000 0.08360  0.01300  0.85080  Biso   1.000  H
  H132     1.0000 0.05560  0.08620  0.82820  Biso   1.000  H
  H133     1.0000 0.80940  0.18860  0.63340  Biso   1.000  H
  H134     1.0000 0.89110  0.15220  0.59460  Biso   1.000  H
  H135     1.0000 0.14640  0.18360  0.63440  Biso   1.000  H
  H136     1.0000 0.05820  0.22190  0.67070  Biso   1.000  H
  H137     1.0000 0.89150  0.11760  0.52740  Biso   1.000  H
  H138     1.0000 0.13540  0.05570  0.49500  Biso   1.000  H
  H139     1.0000 0.34590  0.07090  0.53090  Biso   1.000  H
  H140     1.0000 0.32630  0.10680  0.61600  Biso   1.000  H
  H141     1.0000 0.04990  0.03480  0.45410  Biso   1.000  H
  H142     1.0000 0.81190  0.09470  0.48480  Biso   1.000  H
  H143     1.0000 0.50350  0.04260  0.53940  Biso   1.000  H
  H144     1.0000 0.48400  0.07820  0.62260  Biso   1.000  H
  H145     1.0000 0.54970  0.80600  0.26850  Biso   1.000  H
  H146     1.0000 0.49230  0.79900  0.22080  Biso   1.000  H
  H147     1.0000 0.51550  0.65400  0.22910  Biso   1.000  H
  H148     1.0000 0.57510  0.66520  0.27590  Biso   1.000  H
  H149     1.0000 0.45400  0.84790  0.16090  Biso   1.000  H
  H150     1.0000 0.42810  0.91590  0.13320  Biso   1.000  H
  H151     1.0000 0.36380  0.83870  0.06410  Biso   1.000  H
  H152     1.0000 0.39210  0.76800  0.08910  Biso   1.000  H
  H153     1.0000 0.41210  0.65120  0.09340  Biso   1.000  H
  H154     1.0000 0.38930  0.57580  0.07280  Biso   1.000  H
  H155     1.0000 0.41640  0.51300  0.14920  Biso   1.000  H
  H156     1.0000 0.44440  0.58620  0.17180  Biso   1.000  H
  H157     1.0000 0.69060  0.68860  0.36660  Biso   1.000  H
  H158     1.0000 0.60890  0.65220  0.40540  Biso   1.000  H
  H159     1.0000 0.35360  0.68360  0.36560  Biso   1.000  H
  H160     1.0000 0.44180  0.72190  0.32930  Biso   1.000  H
  H161     1.0000 0.60850  0.61760  0.47260  Biso   1.000  H
  H162     1.0000 0.36460  0.55570  0.50500  Biso   1.000  H
  H163     1.0000 0.15410  0.57090  0.46910  Biso   1.000  H
  H164     1.0000 0.17370  0.60680  0.38400  Biso   1.000  H
  H165     1.0000 0.45010  0.53480  0.54590  Biso   1.000  H
  H166     1.0000 0.68810  0.59470  0.51520  Biso   1.000  H
  H167     1.0000 0.99650  0.54260  0.46060  Biso   1.000  H
  H168     1.0000 0.01600  0.57820  0.37740  Biso   1.000  H
  H169     1.0000 0.45030  0.69400  0.76850  Biso   1.000  H
  H170     1.0000 0.50770  0.70100  0.72080  Biso   1.000  H
  H171     1.0000 0.48450  0.84600  0.72910  Biso   1.000  H
  H172     1.0000 0.42490  0.83480  0.77590  Biso   1.000  H
  H173     1.0000 0.54600  0.65210  0.66090  Biso   1.000  H
  H174     1.0000 0.57190  0.58410  0.63320  Biso   1.000  H
  H175     1.0000 0.63620  0.66130  0.56410  Biso   1.000  H
  H176     1.0000 0.60790  0.73200  0.58910  Biso   1.000  H
  H177     1.0000 0.58790  0.84880  0.59340  Biso   1.000  H
  H178     1.0000 0.61070  0.92420  0.57280  Biso   1.000  H
  H179     1.0000 0.58360  0.98700  0.64920  Biso   1.000  H
  H180     1.0000 0.55560  0.91380  0.67180  Biso   1.000  H
  H181     1.0000 0.30940  0.81140  0.86660  Biso   1.000  H
  H182     1.0000 0.39110  0.84780  0.90540  Biso   1.000  H
  H183     1.0000 0.64640  0.81640  0.86560  Biso   1.000  H
  H184     1.0000 0.55820  0.77810  0.82930  Biso   1.000  H
  H185     1.0000 0.39150  0.88240  0.97260  Biso   1.000  H
  H186     1.0000 0.63540  0.94430  0.00500  Biso   1.000  H
  H187     1.0000 0.84590  0.92910  0.96910  Biso   1.000  H
  H188     1.0000 0.82630  0.89320  0.88400  Biso   1.000  H
  H189     1.0000 0.54990  0.96520  0.04590  Biso   1.000  H
  H190     1.0000 0.31190  0.90530  0.01520  Biso   1.000  H
  H191     1.0000 0.00350  0.95740  0.96060  Biso   1.000  H
  H192     1.0000 0.98400  0.92180  0.87740  Biso   1.000  H
  C145     1.0000 0.04460  0.22510  0.23995  Biso   1.000  C
  C146     1.0000 0.00980  0.22890  0.26832  Biso   1.000  C
  C147     1.0000 0.00140  0.27410  0.28025  Biso   1.000  C
  C148     1.0000 0.02400  0.31440  0.26339  Biso   1.000  C
  C149     1.0000 0.05900  0.30740  0.23553  Biso   1.000  C
  C150     1.0000 0.97300  0.28010  0.31145  Biso   1.000  C
  C151     1.0000 0.93880  0.24390  0.35448  Biso   1.000  C
  C152     1.0000 0.94010  0.32580  0.35120  Biso   1.000  C
  C153     1.0000 0.92420  0.20000  0.37193  Biso   1.000  C
  C154     1.0000 0.93560  0.15490  0.35903  Biso   1.000  C
  C155     1.0000 0.91970  0.11470  0.37568  Biso   1.000  C
  C156     1.0000 0.88280  0.15960  0.41603  Biso   1.000  C
  C157     1.0000 0.89860  0.20200  0.40122  Biso   1.000  C
  C158     1.0000 0.92930  0.37270  0.36494  Biso   1.000  C
  C159     1.0000 0.91330  0.37670  0.39468  Biso   1.000  C
  C160     1.0000 0.89900  0.42190  0.40670  Biso   1.000  C
  C161     1.0000 0.91540  0.45860  0.36220  Biso   1.000  C
  C162     1.0000 0.93170  0.41500  0.34860  Biso   1.000  C
  C163     1.0000 0.12140  0.31180  0.13334  Biso   1.000  C
  C164     1.0000 0.07320  0.33400  0.11024  Biso   1.000  C
  C165     1.0000 0.97250  0.33580  0.11050  Biso   1.000  C
  C166     1.0000 0.92270  0.31530  0.13350  Biso   1.000  C
  C167     1.0000 0.97620  0.29290  0.15510  Biso   1.000  C
  C168     1.0000 0.92050  0.35940  0.08614  Biso   1.000  C
  C169     1.0000 0.92190  0.39410  0.04181  Biso   1.000  C
  C170     1.0000 0.78340  0.39320  0.06822  Biso   1.000  C
  C171     1.0000 0.97560  0.40920  0.01508  Biso   1.000  C
  C172     1.0000 0.07430  0.39870  0.01234  Biso   1.000  C
  C173     1.0000 0.93100  0.43520  0.99320  Biso   1.000  C
  C174     1.0000 0.68010  0.40890  0.07290  Biso   1.000  C
  C175     1.0000 0.62690  0.42770  0.04990  Biso   1.000  C
  C176     1.0000 0.63860  0.40640  0.10000  Biso   1.000  C
  C177     1.0000 0.98250  0.44770  0.96902  Biso   1.000  C
  C178     1.0000 0.12100  0.41280  0.98696  Biso   1.000  C
  C179     1.0000 0.53320  0.44440  0.05510  Biso   1.000  C
  C180     1.0000 0.54470  0.42360  0.10380  Biso   1.000  C
  C181     1.0000 0.95540  0.27490  0.73995  Biso   1.000  C
  C182     1.0000 0.99020  0.27110  0.76832  Biso   1.000  C
  C183     1.0000 0.99860  0.22590  0.78025  Biso   1.000  C
  C184     1.0000 0.97600  0.18560  0.76339  Biso   1.000  C
  C185     1.0000 0.94100  0.19260  0.73553  Biso   1.000  C
  C186     1.0000 0.02700  0.21990  0.81145  Biso   1.000  C
  C187     1.0000 0.06120  0.25610  0.85448  Biso   1.000  C
  C188     1.0000 0.05990  0.17420  0.85120  Biso   1.000  C
  C189     1.0000 0.07580  0.30000  0.87193  Biso   1.000  C
  C190     1.0000 0.06440  0.34510  0.85903  Biso   1.000  C
  C191     1.0000 0.08030  0.38530  0.87568  Biso   1.000  C
  C192     1.0000 0.11720  0.34040  0.91603  Biso   1.000  C
  C193     1.0000 0.10140  0.29800  0.90122  Biso   1.000  C
  C194     1.0000 0.07070  0.12730  0.86494  Biso   1.000  C
  C195     1.0000 0.08670  0.12330  0.89468  Biso   1.000  C
  C196     1.0000 0.10100  0.07810  0.90670  Biso   1.000  C
  C197     1.0000 0.08460  0.04140  0.86220  Biso   1.000  C
  C198     1.0000 0.06830  0.08500  0.84860  Biso   1.000  C
  C199     1.0000 0.87860  0.18820  0.63334  Biso   1.000  C
  C200     1.0000 0.92680  0.16600  0.61024  Biso   1.000  C
  C201     1.0000 0.02750  0.16420  0.61050  Biso   1.000  C
  C202     1.0000 0.07730  0.18470  0.63350  Biso   1.000  C
  C203     1.0000 0.02380  0.20710  0.65510  Biso   1.000  C
  C204     1.0000 0.07950  0.14060  0.58614  Biso   1.000  C
  C205     1.0000 0.07810  0.10590  0.54181  Biso   1.000  C
  C206     1.0000 0.21660  0.10680  0.56822  Biso   1.000  C
  C207     1.0000 0.02440  0.09080  0.51508  Biso   1.000  C
  C208     1.0000 0.92570  0.10130  0.51234  Biso   1.000  C
  C209     1.0000 0.06900  0.06480  0.49320  Biso   1.000  C
  C210     1.0000 0.31990  0.09110  0.57290  Biso   1.000  C
  C211     1.0000 0.37310  0.07230  0.54990  Biso   1.000  C
  C212     1.0000 0.36140  0.09360  0.60000  Biso   1.000  C
  C213     1.0000 0.01750  0.05230  0.46902  Biso   1.000  C
  C214     1.0000 0.87900  0.08720  0.48696  Biso   1.000  C
  C215     1.0000 0.46680  0.05560  0.55510  Biso   1.000  C
  C216     1.0000 0.45530  0.07640  0.60380  Biso   1.000  C
  C217     1.0000 0.54460  0.77490  0.26005  Biso   1.000  C
  C218     1.0000 0.50980  0.77110  0.23168  Biso   1.000  C
  C219     1.0000 0.50140  0.72590  0.21975  Biso   1.000  C
  C220     1.0000 0.52400  0.68560  0.23661  Biso   1.000  C
  C221     1.0000 0.55900  0.69260  0.26447  Biso   1.000  C
  C222     1.0000 0.47300  0.71990  0.18855  Biso   1.000  C
  C223     1.0000 0.43880  0.75610  0.14552  Biso   1.000  C
  C224     1.0000 0.44010  0.67420  0.14880  Biso   1.000  C
  C225     1.0000 0.42420  0.80000  0.12807  Biso   1.000  C
  C226     1.0000 0.43560  0.84510  0.14097  Biso   1.000  C
  C227     1.0000 0.41970  0.88530  0.12432  Biso   1.000  C
  C228     1.0000 0.38280  0.84040  0.08397  Biso   1.000  C
  C229     1.0000 0.39860  0.79800  0.09878  Biso   1.000  C
  C230     1.0000 0.42930  0.62730  0.13506  Biso   1.000  C
  C231     1.0000 0.41330  0.62330  0.10532  Biso   1.000  C
  C232     1.0000 0.39900  0.57810  0.09330  Biso   1.000  C
  C233     1.0000 0.41540  0.54140  0.13780  Biso   1.000  C
  C234     1.0000 0.43170  0.58500  0.15140  Biso   1.000  C
  C235     1.0000 0.62140  0.68820  0.36666  Biso   1.000  C
  C236     1.0000 0.57320  0.66600  0.38976  Biso   1.000  C
  C237     1.0000 0.47250  0.66420  0.38950  Biso   1.000  C
  C238     1.0000 0.42270  0.68470  0.36650  Biso   1.000  C
  C239     1.0000 0.47620  0.70710  0.34490  Biso   1.000  C
  C240     1.0000 0.42050  0.64060  0.41386  Biso   1.000  C
  C241     1.0000 0.42190  0.60590  0.45819  Biso   1.000  C
  C242     1.0000 0.28340  0.60680  0.43178  Biso   1.000  C
  C243     1.0000 0.47560  0.59080  0.48492  Biso   1.000  C
  C244     1.0000 0.57430  0.60130  0.48766  Biso   1.000  C
  C245     1.0000 0.43100  0.56480  0.50680  Biso   1.000  C
  C246     1.0000 0.18010  0.59110  0.42710  Biso   1.000  C
  C247     1.0000 0.12690  0.57230  0.45010  Biso   1.000  C
  C248     1.0000 0.13860  0.59360  0.40000  Biso   1.000  C
  C249     1.0000 0.48250  0.55230  0.53098  Biso   1.000  C
  C250     1.0000 0.62100  0.58720  0.51304  Biso   1.000  C
  C251     1.0000 0.03320  0.55560  0.44490  Biso   1.000  C
  C252     1.0000 0.04470  0.57640  0.39620  Biso   1.000  C
  C253     1.0000 0.45540  0.72510  0.76005  Biso   1.000  C
  C254     1.0000 0.49020  0.72890  0.73168  Biso   1.000  C
  C255     1.0000 0.49860  0.77410  0.71975  Biso   1.000  C
  C256     1.0000 0.47600  0.81440  0.73661  Biso   1.000  C
  C257     1.0000 0.44100  0.80740  0.76447  Biso   1.000  C
  C258     1.0000 0.52700  0.78010  0.68855  Biso   1.000  C
  C259     1.0000 0.56120  0.74390  0.64552  Biso   1.000  C
  C260     1.0000 0.55990  0.82580  0.64880  Biso   1.000  C
  C261     1.0000 0.57580  0.70000  0.62807  Biso   1.000  C
  C262     1.0000 0.56440  0.65490  0.64097  Biso   1.000  C
  C263     1.0000 0.58030  0.61470  0.62432  Biso   1.000  C
  C264     1.0000 0.61720  0.65960  0.58397  Biso   1.000  C
  C265     1.0000 0.60140  0.70200  0.59878  Biso   1.000  C
  C266     1.0000 0.57070  0.87270  0.63506  Biso   1.000  C
  C267     1.0000 0.58670  0.87670  0.60532  Biso   1.000  C
  C268     1.0000 0.60100  0.92190  0.59330  Biso   1.000  C
  C269     1.0000 0.58460  0.95860  0.63780  Biso   1.000  C
  C270     1.0000 0.56830  0.91500  0.65140  Biso   1.000  C
  C271     1.0000 0.37860  0.81180  0.86666  Biso   1.000  C
  C272     1.0000 0.42680  0.83400  0.88976  Biso   1.000  C
  C273     1.0000 0.52750  0.83580  0.88950  Biso   1.000  C
  C274     1.0000 0.57730  0.81530  0.86650  Biso   1.000  C
  C275     1.0000 0.52380  0.79290  0.84490  Biso   1.000  C
  C276     1.0000 0.57950  0.85940  0.91386  Biso   1.000  C
  C277     1.0000 0.57810  0.89410  0.95819  Biso   1.000  C
  C278     1.0000 0.71660  0.89320  0.93178  Biso   1.000  C
  C279     1.0000 0.52440  0.90920  0.98492  Biso   1.000  C
  C280     1.0000 0.42570  0.89870  0.98766  Biso   1.000  C
  C281     1.0000 0.56900  0.93520  0.00680  Biso   1.000  C
  C282     1.0000 0.81990  0.90890  0.92710  Biso   1.000  C
  C283     1.0000 0.87310  0.92770  0.95010  Biso   1.000  C
  C284     1.0000 0.86140  0.90640  0.90000  Biso   1.000  C
  C285     1.0000 0.51750  0.94770  0.03098  Biso   1.000  C
  C286     1.0000 0.37900  0.91280  0.01304  Biso   1.000  C
  C287     1.0000 0.96680  0.94440  0.94490  Biso   1.000  C
  C288     1.0000 0.95530  0.92360  0.89620  Biso   1.000  C
  I25      1.0000 0.16050  0.16456  0.17520  Biso   1.000  I
  I26      1.0000 0.30904  0.30265  0.19334  Biso   1.000  I
  I27      1.0000 0.94920  0.98594  0.39893  Biso   1.000  I
  I28      1.0000 0.67225  0.05787  0.43325  Biso   1.000  I
  I29      1.0000 0.77541  0.57398  0.36858  Biso   1.000  I
  I30      1.0000 0.77734  0.51079  0.45868  Biso   1.000  I
  I31      1.0000 0.83950  0.33544  0.67520  Biso   1.000  I
  I32      1.0000 0.69096  0.19735  0.69334  Biso   1.000  I
  I33      1.0000 0.05080  0.51406  0.89893  Biso   1.000  I
  I34      1.0000 0.32775  0.44213  0.93325  Biso   1.000  I
  I35      1.0000 0.22459  0.92602  0.86858  Biso   1.000  I
  I36      1.0000 0.22266  0.98921  0.95868  Biso   1.000  I
  I37      1.0000 0.66050  0.83544  0.32480  Biso   1.000  I
  I38      1.0000 0.80904  0.69735  0.30666  Biso   1.000  I
  I39      1.0000 0.44920  0.01406  0.10107  Biso   1.000  I
  I40      1.0000 0.17225  0.94213  0.06675  Biso   1.000  I
  I41      1.0000 0.27541  0.42602  0.13142  Biso   1.000  I
  I42      1.0000 0.27734  0.48921  0.04132  Biso   1.000  I
  I43      1.0000 0.33950  0.66456  0.82480  Biso   1.000  I
  I44      1.0000 0.19096  0.80265  0.80666  Biso   1.000  I
  I45      1.0000 0.55080  0.48594  0.60107  Biso   1.000  I
  I46      1.0000 0.82775  0.55787  0.56675  Biso   1.000  I
  I47      1.0000 0.72459  0.07398  0.63142  Biso   1.000  I
  I48      1.0000 0.72266  0.01079  0.54132  Biso   1.000  I
  N49      1.0000 0.07120  0.26340  0.22402  Biso   1.000  N
  N50      1.0000 0.96060  0.23870  0.32647  Biso   1.000  N
  N51      1.0000 0.92750  0.28660  0.36810  Biso   1.000  N
  N52      1.0000 0.96430  0.32400  0.32247  Biso   1.000  N
  N53      1.0000 0.89300  0.11600  0.40373  Biso   1.000  N
  N54      1.0000 0.89830  0.46250  0.39087  Biso   1.000  N
  N55      1.0000 0.07340  0.29100  0.15545  Biso   1.000  N
  N56      1.0000 0.97190  0.37080  0.06221  Biso   1.000  N
  N57      1.0000 0.82770  0.40620  0.04316  Biso   1.000  N
  N58      1.0000 0.82500  0.36910  0.09026  Biso   1.000  N
  N59      1.0000 0.07660  0.43640  0.96522  Biso   1.000  N
  N60      1.0000 0.49310  0.44250  0.08183  Biso   1.000  N
  N61      1.0000 0.92880  0.23660  0.72402  Biso   1.000  N
  N62      1.0000 0.03940  0.26130  0.82647  Biso   1.000  N
  N63      1.0000 0.07250  0.21340  0.86810  Biso   1.000  N
  N64      1.0000 0.03570  0.17600  0.82247  Biso   1.000  N
  N65      1.0000 0.10700  0.38400  0.90373  Biso   1.000  N
  N66      1.0000 0.10170  0.03750  0.89087  Biso   1.000  N
  N67      1.0000 0.92660  0.20900  0.65545  Biso   1.000  N
  N68      1.0000 0.02810  0.12920  0.56221  Biso   1.000  N
  N69      1.0000 0.17230  0.09380  0.54316  Biso   1.000  N
  N70      1.0000 0.17500  0.13090  0.59026  Biso   1.000  N
  N71      1.0000 0.92340  0.06360  0.46522  Biso   1.000  N
  N72      1.0000 0.50690  0.05750  0.58183  Biso   1.000  N
  N73      1.0000 0.57120  0.73660  0.27598  Biso   1.000  N
  N74      1.0000 0.46060  0.76130  0.17353  Biso   1.000  N
  N75      1.0000 0.42750  0.71340  0.13190  Biso   1.000  N
  N76      1.0000 0.46430  0.67600  0.17753  Biso   1.000  N
  N77      1.0000 0.39300  0.88400  0.09627  Biso   1.000  N
  N78      1.0000 0.39830  0.53750  0.10913  Biso   1.000  N
  N79      1.0000 0.57340  0.70900  0.34455  Biso   1.000  N
  N80      1.0000 0.47190  0.62920  0.43779  Biso   1.000  N
  N81      1.0000 0.32770  0.59380  0.45684  Biso   1.000  N
  N82      1.0000 0.32500  0.63090  0.40974  Biso   1.000  N
  N83      1.0000 0.57660  0.56360  0.53478  Biso   1.000  N
  N84      1.0000 0.99310  0.55750  0.41817  Biso   1.000  N
  N85      1.0000 0.42880  0.76340  0.77598  Biso   1.000  N
  N86      1.0000 0.53940  0.73870  0.67353  Biso   1.000  N
  N87      1.0000 0.57250  0.78660  0.63190  Biso   1.000  N
  N88      1.0000 0.53570  0.82400  0.67753  Biso   1.000  N
  N89      1.0000 0.60700  0.61600  0.59627  Biso   1.000  N
  N90      1.0000 0.60170  0.96250  0.60913  Biso   1.000  N
  N91      1.0000 0.42660  0.79100  0.84455  Biso   1.000  N
  N92      1.0000 0.52810  0.87080  0.93779  Biso   1.000  N
  N93      1.0000 0.67230  0.90620  0.95684  Biso   1.000  N
  N94      1.0000 0.67500  0.86910  0.90974  Biso   1.000  N
  N95      1.0000 0.42340  0.93640  0.03478  Biso   1.000  N
  N96      1.0000 0.00690  0.94250  0.91817  Biso   1.000  N
