data_image0
_cell_length_a       33.3261
_cell_length_b       33.3261
_cell_length_c       33.3261
_cell_angle_alpha    90
_cell_angle_beta     90
_cell_angle_gamma    90

_symmetry_space_group_name_H-M    "P 1"
_symmetry_int_tables_number       1

loop_
  _symmetry_equiv_pos_as_xyz
  'x, y, z'

loop_
  _atom_site_label
  _atom_site_occupancy
  _atom_site_fract_x
  _atom_site_fract_y
  _atom_site_fract_z
  _atom_site_thermal_displace_type
  _atom_site_B_iso_or_equiv
  _atom_site_type_symbol
  O1       1.0000 0.03860  0.78227  0.20210  Biso   1.000  O
  O2       1.0000 0.96888  0.78354  0.19999  Biso   1.000  O
  C1       1.0000 0.93861  0.96490  0.99812  Biso   1.000  C
  H1       1.0000 0.91910  0.96280  0.01790  Biso   1.000  H
  C2       1.0000 0.97000  0.93736  0.99570  Biso   1.000  C
  C3       1.0000 0.97170  0.90742  0.02966  Biso   1.000  C
  C4       1.0000 0.93718  0.89387  0.04880  Biso   1.000  C
  H2       1.0000 0.91210  0.90170  0.03950  Biso   1.000  H
  C5       1.0000 0.94022  0.86867  0.08189  Biso   1.000  C
  H3       1.0000 0.91710  0.85960  0.09470  Biso   1.000  H
  C6       1.0000 0.97780  0.85702  0.09585  Biso   1.000  C
  C7       1.0000 0.01225  0.87057  0.07670  Biso   1.000  C
  H4       1.0000 0.03740  0.86280  0.08610  Biso   1.000  H
  C8       1.0000 0.00921  0.89577  0.04363  Biso   1.000  C
  H5       1.0000 0.03230  0.90480  0.03080  Biso   1.000  H
  C9       1.0000 0.97780  0.83130  0.13270  Biso   1.000  C
  H6       1.0000 0.95260  0.82470  0.14280  Biso   1.000  H
  C10      1.0000 0.00660  0.81780  0.15134  Biso   1.000  C
  H7       1.0000 0.03210  0.82390  0.14170  Biso   1.000  H
  C11      1.0000 0.00390  0.79100  0.19010  Biso   1.000  C
  O3       1.0000 0.46140  0.71773  0.20210  Biso   1.000  O
  O4       1.0000 0.53112  0.71646  0.19999  Biso   1.000  O
  C12      1.0000 0.56139  0.53510  0.99812  Biso   1.000  C
  H8       1.0000 0.58090  0.53720  0.01790  Biso   1.000  H
  C13      1.0000 0.53000  0.56264  0.99570  Biso   1.000  C
  C14      1.0000 0.52830  0.59258  0.02966  Biso   1.000  C
  C15      1.0000 0.56282  0.60613  0.04880  Biso   1.000  C
  H9       1.0000 0.58790  0.59830  0.03950  Biso   1.000  H
  C16      1.0000 0.55978  0.63133  0.08189  Biso   1.000  C
  H10      1.0000 0.58290  0.64040  0.09470  Biso   1.000  H
  C17      1.0000 0.52220  0.64298  0.09585  Biso   1.000  C
  C18      1.0000 0.48775  0.62943  0.07670  Biso   1.000  C
  H11      1.0000 0.46260  0.63720  0.08610  Biso   1.000  H
  C19      1.0000 0.49079  0.60423  0.04363  Biso   1.000  C
  H12      1.0000 0.46770  0.59520  0.03080  Biso   1.000  H
  C20      1.0000 0.52220  0.66870  0.13270  Biso   1.000  C
  H13      1.0000 0.54740  0.67530  0.14280  Biso   1.000  H
  C21      1.0000 0.49340  0.68220  0.15134  Biso   1.000  C
  H14      1.0000 0.46790  0.67610  0.14170  Biso   1.000  H
  C22      1.0000 0.49610  0.70900  0.19010  Biso   1.000  C
  O5       1.0000 0.46140  0.78227  0.29790  Biso   1.000  O
  O6       1.0000 0.53112  0.78354  0.30001  Biso   1.000  O
  C23      1.0000 0.56139  0.96490  0.50188  Biso   1.000  C
  H15      1.0000 0.58090  0.96280  0.48210  Biso   1.000  H
  C24      1.0000 0.53000  0.93736  0.50430  Biso   1.000  C
  C25      1.0000 0.52830  0.90742  0.47034  Biso   1.000  C
  C26      1.0000 0.56282  0.89387  0.45120  Biso   1.000  C
  H16      1.0000 0.58790  0.90170  0.46050  Biso   1.000  H
  C27      1.0000 0.55978  0.86867  0.41811  Biso   1.000  C
  H17      1.0000 0.58290  0.85960  0.40530  Biso   1.000  H
  C28      1.0000 0.52220  0.85702  0.40415  Biso   1.000  C
  C29      1.0000 0.48775  0.87057  0.42330  Biso   1.000  C
  H18      1.0000 0.46260  0.86280  0.41390  Biso   1.000  H
  C30      1.0000 0.49079  0.89577  0.45637  Biso   1.000  C
  H19      1.0000 0.46770  0.90480  0.46920  Biso   1.000  H
  C31      1.0000 0.52220  0.83130  0.36730  Biso   1.000  C
  H20      1.0000 0.54740  0.82470  0.35720  Biso   1.000  H
  C32      1.0000 0.49340  0.81780  0.34866  Biso   1.000  C
  H21      1.0000 0.46790  0.82390  0.35830  Biso   1.000  H
  C33      1.0000 0.49610  0.79100  0.30990  Biso   1.000  C
  O7       1.0000 0.03860  0.71773  0.29790  Biso   1.000  O
  O8       1.0000 0.96888  0.71646  0.30001  Biso   1.000  O
  C34      1.0000 0.93861  0.53510  0.50188  Biso   1.000  C
  H22      1.0000 0.91910  0.53720  0.48210  Biso   1.000  H
  C35      1.0000 0.97000  0.56264  0.50430  Biso   1.000  C
  C36      1.0000 0.97170  0.59258  0.47034  Biso   1.000  C
  C37      1.0000 0.93718  0.60613  0.45120  Biso   1.000  C
  H23      1.0000 0.91210  0.59830  0.46050  Biso   1.000  H
  C38      1.0000 0.94022  0.63133  0.41811  Biso   1.000  C
  H24      1.0000 0.91710  0.64040  0.40530  Biso   1.000  H
  C39      1.0000 0.97780  0.64298  0.40415  Biso   1.000  C
  C40      1.0000 0.01225  0.62943  0.42330  Biso   1.000  C
  H25      1.0000 0.03740  0.63720  0.41390  Biso   1.000  H
  C41      1.0000 0.00921  0.60423  0.45637  Biso   1.000  C
  H26      1.0000 0.03230  0.59520  0.46920  Biso   1.000  H
  C42      1.0000 0.97780  0.66870  0.36730  Biso   1.000  C
  H27      1.0000 0.95260  0.67530  0.35720  Biso   1.000  H
  C43      1.0000 0.00660  0.68220  0.34866  Biso   1.000  C
  H28      1.0000 0.03210  0.67610  0.35830  Biso   1.000  H
  C44      1.0000 0.00390  0.70900  0.30990  Biso   1.000  C
  O9       1.0000 0.20210  0.03860  0.78227  Biso   1.000  O
  O10      1.0000 0.19999  0.96888  0.78354  Biso   1.000  O
  C45      1.0000 0.99812  0.93861  0.96490  Biso   1.000  C
  H29      1.0000 0.01790  0.91910  0.96280  Biso   1.000  H
  C46      1.0000 0.99570  0.97000  0.93736  Biso   1.000  C
  C47      1.0000 0.02966  0.97170  0.90742  Biso   1.000  C
  C48      1.0000 0.04880  0.93718  0.89387  Biso   1.000  C
  H30      1.0000 0.03950  0.91210  0.90170  Biso   1.000  H
  C49      1.0000 0.08189  0.94022  0.86867  Biso   1.000  C
  H31      1.0000 0.09470  0.91710  0.85960  Biso   1.000  H
  C50      1.0000 0.09585  0.97780  0.85702  Biso   1.000  C
  C51      1.0000 0.07670  0.01225  0.87057  Biso   1.000  C
  H32      1.0000 0.08610  0.03740  0.86280  Biso   1.000  H
  C52      1.0000 0.04363  0.00921  0.89577  Biso   1.000  C
  H33      1.0000 0.03080  0.03230  0.90480  Biso   1.000  H
  C53      1.0000 0.13270  0.97780  0.83130  Biso   1.000  C
  H34      1.0000 0.14280  0.95260  0.82470  Biso   1.000  H
  C54      1.0000 0.15134  0.00660  0.81780  Biso   1.000  C
  H35      1.0000 0.14170  0.03210  0.82390  Biso   1.000  H
  C55      1.0000 0.19010  0.00390  0.79100  Biso   1.000  C
  O11      1.0000 0.20210  0.46140  0.71773  Biso   1.000  O
  O12      1.0000 0.19999  0.53112  0.71646  Biso   1.000  O
  C56      1.0000 0.99812  0.56139  0.53510  Biso   1.000  C
  H36      1.0000 0.01790  0.58090  0.53720  Biso   1.000  H
  C57      1.0000 0.99570  0.53000  0.56264  Biso   1.000  C
  C58      1.0000 0.02966  0.52830  0.59258  Biso   1.000  C
  C59      1.0000 0.04880  0.56282  0.60613  Biso   1.000  C
  H37      1.0000 0.03950  0.58790  0.59830  Biso   1.000  H
  C60      1.0000 0.08189  0.55978  0.63133  Biso   1.000  C
  H38      1.0000 0.09470  0.58290  0.64040  Biso   1.000  H
  C61      1.0000 0.09585  0.52220  0.64298  Biso   1.000  C
  C62      1.0000 0.07670  0.48775  0.62943  Biso   1.000  C
  H39      1.0000 0.08610  0.46260  0.63720  Biso   1.000  H
  C63      1.0000 0.04363  0.49079  0.60423  Biso   1.000  C
  H40      1.0000 0.03080  0.46770  0.59520  Biso   1.000  H
  C64      1.0000 0.13270  0.52220  0.66870  Biso   1.000  C
  H41      1.0000 0.14280  0.54740  0.67530  Biso   1.000  H
  C65      1.0000 0.15134  0.49340  0.68220  Biso   1.000  C
  H42      1.0000 0.14170  0.46790  0.67610  Biso   1.000  H
  C66      1.0000 0.19010  0.49610  0.70900  Biso   1.000  C
  O13      1.0000 0.29790  0.46140  0.78227  Biso   1.000  O
  O14      1.0000 0.30001  0.53112  0.78354  Biso   1.000  O
  C67      1.0000 0.50188  0.56139  0.96490  Biso   1.000  C
  H43      1.0000 0.48210  0.58090  0.96280  Biso   1.000  H
  C68      1.0000 0.50430  0.53000  0.93736  Biso   1.000  C
  C69      1.0000 0.47034  0.52830  0.90742  Biso   1.000  C
  C70      1.0000 0.45120  0.56282  0.89387  Biso   1.000  C
  H44      1.0000 0.46050  0.58790  0.90170  Biso   1.000  H
  C71      1.0000 0.41811  0.55978  0.86867  Biso   1.000  C
  H45      1.0000 0.40530  0.58290  0.85960  Biso   1.000  H
  C72      1.0000 0.40415  0.52220  0.85702  Biso   1.000  C
  C73      1.0000 0.42330  0.48775  0.87057  Biso   1.000  C
  H46      1.0000 0.41390  0.46260  0.86280  Biso   1.000  H
  C74      1.0000 0.45637  0.49079  0.89577  Biso   1.000  C
  H47      1.0000 0.46920  0.46770  0.90480  Biso   1.000  H
  C75      1.0000 0.36730  0.52220  0.83130  Biso   1.000  C
  H48      1.0000 0.35720  0.54740  0.82470  Biso   1.000  H
  C76      1.0000 0.34866  0.49340  0.81780  Biso   1.000  C
  H49      1.0000 0.35830  0.46790  0.82390  Biso   1.000  H
  C77      1.0000 0.30990  0.49610  0.79100  Biso   1.000  C
  O15      1.0000 0.29790  0.03860  0.71773  Biso   1.000  O
  O16      1.0000 0.30001  0.96888  0.71646  Biso   1.000  O
  C78      1.0000 0.50188  0.93861  0.53510  Biso   1.000  C
  H50      1.0000 0.48210  0.91910  0.53720  Biso   1.000  H
  C79      1.0000 0.50430  0.97000  0.56264  Biso   1.000  C
  C80      1.0000 0.47034  0.97170  0.59258  Biso   1.000  C
  C81      1.0000 0.45120  0.93718  0.60613  Biso   1.000  C
  H51      1.0000 0.46050  0.91210  0.59830  Biso   1.000  H
  C82      1.0000 0.41811  0.94022  0.63133  Biso   1.000  C
  H52      1.0000 0.40530  0.91710  0.64040  Biso   1.000  H
  C83      1.0000 0.40415  0.97780  0.64298  Biso   1.000  C
  C84      1.0000 0.42330  0.01225  0.62943  Biso   1.000  C
  H53      1.0000 0.41390  0.03740  0.63720  Biso   1.000  H
  C85      1.0000 0.45637  0.00921  0.60423  Biso   1.000  C
  H54      1.0000 0.46920  0.03230  0.59520  Biso   1.000  H
  C86      1.0000 0.36730  0.97780  0.66870  Biso   1.000  C
  H55      1.0000 0.35720  0.95260  0.67530  Biso   1.000  H
  C87      1.0000 0.34866  0.00660  0.68220  Biso   1.000  C
  H56      1.0000 0.35830  0.03210  0.67610  Biso   1.000  H
  C88      1.0000 0.30990  0.00390  0.70900  Biso   1.000  C
  O17      1.0000 0.78227  0.20210  0.03860  Biso   1.000  O
  O18      1.0000 0.78354  0.19999  0.96888  Biso   1.000  O
  C89      1.0000 0.96490  0.99812  0.93861  Biso   1.000  C
  H57      1.0000 0.96280  0.01790  0.91910  Biso   1.000  H
  C90      1.0000 0.93736  0.99570  0.97000  Biso   1.000  C
  C91      1.0000 0.90742  0.02966  0.97170  Biso   1.000  C
  C92      1.0000 0.89387  0.04880  0.93718  Biso   1.000  C
  H58      1.0000 0.90170  0.03950  0.91210  Biso   1.000  H
  C93      1.0000 0.86867  0.08189  0.94022  Biso   1.000  C
  H59      1.0000 0.85960  0.09470  0.91710  Biso   1.000  H
  C94      1.0000 0.85702  0.09585  0.97780  Biso   1.000  C
  C95      1.0000 0.87057  0.07670  0.01225  Biso   1.000  C
  H60      1.0000 0.86280  0.08610  0.03740  Biso   1.000  H
  C96      1.0000 0.89577  0.04363  0.00921  Biso   1.000  C
  H61      1.0000 0.90480  0.03080  0.03230  Biso   1.000  H
  C97      1.0000 0.83130  0.13270  0.97780  Biso   1.000  C
  H62      1.0000 0.82470  0.14280  0.95260  Biso   1.000  H
  C98      1.0000 0.81780  0.15134  0.00660  Biso   1.000  C
  H63      1.0000 0.82390  0.14170  0.03210  Biso   1.000  H
  C99      1.0000 0.79100  0.19010  0.00390  Biso   1.000  C
  O19      1.0000 0.71773  0.20210  0.46140  Biso   1.000  O
  O20      1.0000 0.71646  0.19999  0.53112  Biso   1.000  O
  C100     1.0000 0.53510  0.99812  0.56139  Biso   1.000  C
  H64      1.0000 0.53720  0.01790  0.58090  Biso   1.000  H
  C101     1.0000 0.56264  0.99570  0.53000  Biso   1.000  C
  C102     1.0000 0.59258  0.02966  0.52830  Biso   1.000  C
  C103     1.0000 0.60613  0.04880  0.56282  Biso   1.000  C
  H65      1.0000 0.59830  0.03950  0.58790  Biso   1.000  H
  C104     1.0000 0.63133  0.08189  0.55978  Biso   1.000  C
  H66      1.0000 0.64040  0.09470  0.58290  Biso   1.000  H
  C105     1.0000 0.64298  0.09585  0.52220  Biso   1.000  C
  C106     1.0000 0.62943  0.07670  0.48775  Biso   1.000  C
  H67      1.0000 0.63720  0.08610  0.46260  Biso   1.000  H
  C107     1.0000 0.60423  0.04363  0.49079  Biso   1.000  C
  H68      1.0000 0.59520  0.03080  0.46770  Biso   1.000  H
  C108     1.0000 0.66870  0.13270  0.52220  Biso   1.000  C
  H69      1.0000 0.67530  0.14280  0.54740  Biso   1.000  H
  C109     1.0000 0.68220  0.15134  0.49340  Biso   1.000  C
  H70      1.0000 0.67610  0.14170  0.46790  Biso   1.000  H
  C110     1.0000 0.70900  0.19010  0.49610  Biso   1.000  C
  O21      1.0000 0.78227  0.29790  0.46140  Biso   1.000  O
  O22      1.0000 0.78354  0.30001  0.53112  Biso   1.000  O
  C111     1.0000 0.96490  0.50188  0.56139  Biso   1.000  C
  H71      1.0000 0.96280  0.48210  0.58090  Biso   1.000  H
  C112     1.0000 0.93736  0.50430  0.53000  Biso   1.000  C
  C113     1.0000 0.90742  0.47034  0.52830  Biso   1.000  C
  C114     1.0000 0.89387  0.45120  0.56282  Biso   1.000  C
  H72      1.0000 0.90170  0.46050  0.58790  Biso   1.000  H
  C115     1.0000 0.86867  0.41811  0.55978  Biso   1.000  C
  H73      1.0000 0.85960  0.40530  0.58290  Biso   1.000  H
  C116     1.0000 0.85702  0.40415  0.52220  Biso   1.000  C
  C117     1.0000 0.87057  0.42330  0.48775  Biso   1.000  C
  H74      1.0000 0.86280  0.41390  0.46260  Biso   1.000  H
  C118     1.0000 0.89577  0.45637  0.49079  Biso   1.000  C
  H75      1.0000 0.90480  0.46920  0.46770  Biso   1.000  H
  C119     1.0000 0.83130  0.36730  0.52220  Biso   1.000  C
  H76      1.0000 0.82470  0.35720  0.54740  Biso   1.000  H
  C120     1.0000 0.81780  0.34866  0.49340  Biso   1.000  C
  H77      1.0000 0.82390  0.35830  0.46790  Biso   1.000  H
  C121     1.0000 0.79100  0.30990  0.49610  Biso   1.000  C
  O23      1.0000 0.71773  0.29790  0.03860  Biso   1.000  O
  O24      1.0000 0.71646  0.30001  0.96888  Biso   1.000  O
  C122     1.0000 0.53510  0.50188  0.93861  Biso   1.000  C
  H78      1.0000 0.53720  0.48210  0.91910  Biso   1.000  H
  C123     1.0000 0.56264  0.50430  0.97000  Biso   1.000  C
  C124     1.0000 0.59258  0.47034  0.97170  Biso   1.000  C
  C125     1.0000 0.60613  0.45120  0.93718  Biso   1.000  C
  H79      1.0000 0.59830  0.46050  0.91210  Biso   1.000  H
  C126     1.0000 0.63133  0.41811  0.94022  Biso   1.000  C
  H80      1.0000 0.64040  0.40530  0.91710  Biso   1.000  H
  C127     1.0000 0.64298  0.40415  0.97780  Biso   1.000  C
  C128     1.0000 0.62943  0.42330  0.01225  Biso   1.000  C
  H81      1.0000 0.63720  0.41390  0.03740  Biso   1.000  H
  C129     1.0000 0.60423  0.45637  0.00921  Biso   1.000  C
  H82      1.0000 0.59520  0.46920  0.03230  Biso   1.000  H
  C130     1.0000 0.66870  0.36730  0.97780  Biso   1.000  C
  H83      1.0000 0.67530  0.35720  0.95260  Biso   1.000  H
  C131     1.0000 0.68220  0.34866  0.00660  Biso   1.000  C
  H84      1.0000 0.67610  0.35830  0.03210  Biso   1.000  H
  C132     1.0000 0.70900  0.30990  0.00390  Biso   1.000  C
  O25      1.0000 0.21773  0.96140  0.70210  Biso   1.000  O
  O26      1.0000 0.21646  0.03112  0.69999  Biso   1.000  O
  C133     1.0000 0.03510  0.06139  0.49812  Biso   1.000  C
  H85      1.0000 0.03720  0.08090  0.51790  Biso   1.000  H
  C134     1.0000 0.06264  0.03000  0.49570  Biso   1.000  C
  C135     1.0000 0.09258  0.02830  0.52966  Biso   1.000  C
  C136     1.0000 0.10613  0.06282  0.54880  Biso   1.000  C
  H86      1.0000 0.09830  0.08790  0.53950  Biso   1.000  H
  C137     1.0000 0.13133  0.05978  0.58189  Biso   1.000  C
  H87      1.0000 0.14040  0.08290  0.59470  Biso   1.000  H
  C138     1.0000 0.14298  0.02220  0.59585  Biso   1.000  C
  C139     1.0000 0.12943  0.98775  0.57670  Biso   1.000  C
  H88      1.0000 0.13720  0.96260  0.58610  Biso   1.000  H
  C140     1.0000 0.10423  0.99079  0.54363  Biso   1.000  C
  H89      1.0000 0.09520  0.96770  0.53080  Biso   1.000  H
  C141     1.0000 0.16870  0.02220  0.63270  Biso   1.000  C
  H90      1.0000 0.17530  0.04740  0.64280  Biso   1.000  H
  C142     1.0000 0.18220  0.99340  0.65134  Biso   1.000  C
  H91      1.0000 0.17610  0.96790  0.64170  Biso   1.000  H
  C143     1.0000 0.20900  0.99610  0.69010  Biso   1.000  C
  O27      1.0000 0.28227  0.53860  0.70210  Biso   1.000  O
  O28      1.0000 0.28354  0.46888  0.69999  Biso   1.000  O
  C144     1.0000 0.46490  0.43861  0.49812  Biso   1.000  C
  H92      1.0000 0.46280  0.41910  0.51790  Biso   1.000  H
  C145     1.0000 0.43736  0.47000  0.49570  Biso   1.000  C
  C146     1.0000 0.40742  0.47170  0.52966  Biso   1.000  C
  C147     1.0000 0.39387  0.43718  0.54880  Biso   1.000  C
  H93      1.0000 0.40170  0.41210  0.53950  Biso   1.000  H
  C148     1.0000 0.36867  0.44022  0.58189  Biso   1.000  C
  H94      1.0000 0.35960  0.41710  0.59470  Biso   1.000  H
  C149     1.0000 0.35702  0.47780  0.59585  Biso   1.000  C
  C150     1.0000 0.37057  0.51225  0.57670  Biso   1.000  C
  H95      1.0000 0.36280  0.53740  0.58610  Biso   1.000  H
  C151     1.0000 0.39577  0.50921  0.54363  Biso   1.000  C
  H96      1.0000 0.40480  0.53230  0.53080  Biso   1.000  H
  C152     1.0000 0.33130  0.47780  0.63270  Biso   1.000  C
  H97      1.0000 0.32470  0.45260  0.64280  Biso   1.000  H
  C153     1.0000 0.31780  0.50660  0.65134  Biso   1.000  C
  H98      1.0000 0.32390  0.53210  0.64170  Biso   1.000  H
  C154     1.0000 0.29100  0.50390  0.69010  Biso   1.000  C
  O29      1.0000 0.21773  0.53860  0.79790  Biso   1.000  O
  O30      1.0000 0.21646  0.46888  0.80001  Biso   1.000  O
  C155     1.0000 0.03510  0.43861  0.00188  Biso   1.000  C
  H99      1.0000 0.03720  0.41910  0.98210  Biso   1.000  H
  C156     1.0000 0.06264  0.47000  0.00430  Biso   1.000  C
  C157     1.0000 0.09258  0.47170  0.97034  Biso   1.000  C
  C158     1.0000 0.10613  0.43718  0.95120  Biso   1.000  C
  H100     1.0000 0.09830  0.41210  0.96050  Biso   1.000  H
  C159     1.0000 0.13133  0.44022  0.91811  Biso   1.000  C
  H101     1.0000 0.14040  0.41710  0.90530  Biso   1.000  H
  C160     1.0000 0.14298  0.47780  0.90415  Biso   1.000  C
  C161     1.0000 0.12943  0.51225  0.92330  Biso   1.000  C
  H102     1.0000 0.13720  0.53740  0.91390  Biso   1.000  H
  C162     1.0000 0.10423  0.50921  0.95637  Biso   1.000  C
  H103     1.0000 0.09520  0.53230  0.96920  Biso   1.000  H
  C163     1.0000 0.16870  0.47780  0.86730  Biso   1.000  C
  H104     1.0000 0.17530  0.45260  0.85720  Biso   1.000  H
  C164     1.0000 0.18220  0.50660  0.84866  Biso   1.000  C
  H105     1.0000 0.17610  0.53210  0.85830  Biso   1.000  H
  C165     1.0000 0.20900  0.50390  0.80990  Biso   1.000  C
  O31      1.0000 0.28227  0.96140  0.79790  Biso   1.000  O
  O32      1.0000 0.28354  0.03112  0.80001  Biso   1.000  O
  C166     1.0000 0.46490  0.06139  0.00188  Biso   1.000  C
  H106     1.0000 0.46280  0.08090  0.98210  Biso   1.000  H
  C167     1.0000 0.43736  0.03000  0.00430  Biso   1.000  C
  C168     1.0000 0.40742  0.02830  0.97034  Biso   1.000  C
  C169     1.0000 0.39387  0.06282  0.95120  Biso   1.000  C
  H107     1.0000 0.40170  0.08790  0.96050  Biso   1.000  H
  C170     1.0000 0.36867  0.05978  0.91811  Biso   1.000  C
  H108     1.0000 0.35960  0.08290  0.90530  Biso   1.000  H
  C171     1.0000 0.35702  0.02220  0.90415  Biso   1.000  C
  C172     1.0000 0.37057  0.98775  0.92330  Biso   1.000  C
  H109     1.0000 0.36280  0.96260  0.91390  Biso   1.000  H
  C173     1.0000 0.39577  0.99079  0.95637  Biso   1.000  C
  H110     1.0000 0.40480  0.96770  0.96920  Biso   1.000  H
  C174     1.0000 0.33130  0.02220  0.86730  Biso   1.000  C
  H111     1.0000 0.32470  0.04740  0.85720  Biso   1.000  H
  C175     1.0000 0.31780  0.99340  0.84866  Biso   1.000  C
  H112     1.0000 0.32390  0.96790  0.85830  Biso   1.000  H
  C176     1.0000 0.29100  0.99610  0.80990  Biso   1.000  C
  O33      1.0000 0.96140  0.79790  0.28227  Biso   1.000  O
  O34      1.0000 0.03112  0.80001  0.28354  Biso   1.000  O
  C177     1.0000 0.06139  0.00188  0.46490  Biso   1.000  C
  H113     1.0000 0.08090  0.98210  0.46280  Biso   1.000  H
  C178     1.0000 0.03000  0.00430  0.43736  Biso   1.000  C
  C179     1.0000 0.02830  0.97034  0.40742  Biso   1.000  C
  C180     1.0000 0.06282  0.95120  0.39387  Biso   1.000  C
  H114     1.0000 0.08790  0.96050  0.40170  Biso   1.000  H
  C181     1.0000 0.05978  0.91811  0.36867  Biso   1.000  C
  H115     1.0000 0.08290  0.90530  0.35960  Biso   1.000  H
  C182     1.0000 0.02220  0.90415  0.35702  Biso   1.000  C
  C183     1.0000 0.98775  0.92330  0.37057  Biso   1.000  C
  H116     1.0000 0.96260  0.91390  0.36280  Biso   1.000  H
  C184     1.0000 0.99079  0.95637  0.39577  Biso   1.000  C
  H117     1.0000 0.96770  0.96920  0.40480  Biso   1.000  H
  C185     1.0000 0.02220  0.86730  0.33130  Biso   1.000  C
  H118     1.0000 0.04740  0.85720  0.32470  Biso   1.000  H
  C186     1.0000 0.99340  0.84866  0.31780  Biso   1.000  C
  H119     1.0000 0.96790  0.85830  0.32390  Biso   1.000  H
  C187     1.0000 0.99610  0.80990  0.29100  Biso   1.000  C
  O35      1.0000 0.53860  0.79790  0.21773  Biso   1.000  O
  O36      1.0000 0.46888  0.80001  0.21646  Biso   1.000  O
  C188     1.0000 0.43861  0.00188  0.03510  Biso   1.000  C
  H120     1.0000 0.41910  0.98210  0.03720  Biso   1.000  H
  C189     1.0000 0.47000  0.00430  0.06264  Biso   1.000  C
  C190     1.0000 0.47170  0.97034  0.09258  Biso   1.000  C
  C191     1.0000 0.43718  0.95120  0.10613  Biso   1.000  C
  H121     1.0000 0.41210  0.96050  0.09830  Biso   1.000  H
  C192     1.0000 0.44022  0.91811  0.13133  Biso   1.000  C
  H122     1.0000 0.41710  0.90530  0.14040  Biso   1.000  H
  C193     1.0000 0.47780  0.90415  0.14298  Biso   1.000  C
  C194     1.0000 0.51225  0.92330  0.12943  Biso   1.000  C
  H123     1.0000 0.53740  0.91390  0.13720  Biso   1.000  H
  C195     1.0000 0.50921  0.95637  0.10423  Biso   1.000  C
  H124     1.0000 0.53230  0.96920  0.09520  Biso   1.000  H
  C196     1.0000 0.47780  0.86730  0.16870  Biso   1.000  C
  H125     1.0000 0.45260  0.85720  0.17530  Biso   1.000  H
  C197     1.0000 0.50660  0.84866  0.18220  Biso   1.000  C
  H126     1.0000 0.53210  0.85830  0.17610  Biso   1.000  H
  C198     1.0000 0.50390  0.80990  0.20900  Biso   1.000  C
  O37      1.0000 0.53860  0.70210  0.28227  Biso   1.000  O
  O38      1.0000 0.46888  0.69999  0.28354  Biso   1.000  O
  C199     1.0000 0.43861  0.49812  0.46490  Biso   1.000  C
  H127     1.0000 0.41910  0.51790  0.46280  Biso   1.000  H
  C200     1.0000 0.47000  0.49570  0.43736  Biso   1.000  C
  C201     1.0000 0.47170  0.52966  0.40742  Biso   1.000  C
  C202     1.0000 0.43718  0.54880  0.39387  Biso   1.000  C
  H128     1.0000 0.41210  0.53950  0.40170  Biso   1.000  H
  C203     1.0000 0.44022  0.58189  0.36867  Biso   1.000  C
  H129     1.0000 0.41710  0.59470  0.35960  Biso   1.000  H
  C204     1.0000 0.47780  0.59585  0.35702  Biso   1.000  C
  C205     1.0000 0.51225  0.57670  0.37057  Biso   1.000  C
  H130     1.0000 0.53740  0.58610  0.36280  Biso   1.000  H
  C206     1.0000 0.50921  0.54363  0.39577  Biso   1.000  C
  H131     1.0000 0.53230  0.53080  0.40480  Biso   1.000  H
  C207     1.0000 0.47780  0.63270  0.33130  Biso   1.000  C
  H132     1.0000 0.45260  0.64280  0.32470  Biso   1.000  H
  C208     1.0000 0.50660  0.65134  0.31780  Biso   1.000  C
  H133     1.0000 0.53210  0.64170  0.32390  Biso   1.000  H
  C209     1.0000 0.50390  0.69010  0.29100  Biso   1.000  C
  O39      1.0000 0.96140  0.70210  0.21773  Biso   1.000  O
  O40      1.0000 0.03112  0.69999  0.21646  Biso   1.000  O
  C210     1.0000 0.06139  0.49812  0.03510  Biso   1.000  C
  H134     1.0000 0.08090  0.51790  0.03720  Biso   1.000  H
  C211     1.0000 0.03000  0.49570  0.06264  Biso   1.000  C
  C212     1.0000 0.02830  0.52966  0.09258  Biso   1.000  C
  C213     1.0000 0.06282  0.54880  0.10613  Biso   1.000  C
  H135     1.0000 0.08790  0.53950  0.09830  Biso   1.000  H
  C214     1.0000 0.05978  0.58189  0.13133  Biso   1.000  C
  H136     1.0000 0.08290  0.59470  0.14040  Biso   1.000  H
  C215     1.0000 0.02220  0.59585  0.14298  Biso   1.000  C
  C216     1.0000 0.98775  0.57670  0.12943  Biso   1.000  C
  H137     1.0000 0.96260  0.58610  0.13720  Biso   1.000  H
  C217     1.0000 0.99079  0.54363  0.10423  Biso   1.000  C
  H138     1.0000 0.96770  0.53080  0.09520  Biso   1.000  H
  C218     1.0000 0.02220  0.63270  0.16870  Biso   1.000  C
  H139     1.0000 0.04740  0.64280  0.17530  Biso   1.000  H
  C219     1.0000 0.99340  0.65134  0.18220  Biso   1.000  C
  H140     1.0000 0.96790  0.64170  0.17610  Biso   1.000  H
  C220     1.0000 0.99610  0.69010  0.20900  Biso   1.000  C
  O41      1.0000 0.79790  0.21773  0.53860  Biso   1.000  O
  O42      1.0000 0.80001  0.21646  0.46888  Biso   1.000  O
  C221     1.0000 0.00188  0.03510  0.43861  Biso   1.000  C
  H141     1.0000 0.98210  0.03720  0.41910  Biso   1.000  H
  C222     1.0000 0.00430  0.06264  0.47000  Biso   1.000  C
  C223     1.0000 0.97034  0.09258  0.47170  Biso   1.000  C
  C224     1.0000 0.95120  0.10613  0.43718  Biso   1.000  C
  H142     1.0000 0.96050  0.09830  0.41210  Biso   1.000  H
  C225     1.0000 0.91811  0.13133  0.44022  Biso   1.000  C
  H143     1.0000 0.90530  0.14040  0.41710  Biso   1.000  H
  C226     1.0000 0.90415  0.14298  0.47780  Biso   1.000  C
  C227     1.0000 0.92330  0.12943  0.51225  Biso   1.000  C
  H144     1.0000 0.91390  0.13720  0.53740  Biso   1.000  H
  C228     1.0000 0.95637  0.10423  0.50921  Biso   1.000  C
  H145     1.0000 0.96920  0.09520  0.53230  Biso   1.000  H
  C229     1.0000 0.86730  0.16870  0.47780  Biso   1.000  C
  H146     1.0000 0.85720  0.17530  0.45260  Biso   1.000  H
  C230     1.0000 0.84866  0.18220  0.50660  Biso   1.000  C
  H147     1.0000 0.85830  0.17610  0.53210  Biso   1.000  H
  C231     1.0000 0.80990  0.20900  0.50390  Biso   1.000  C
  O43      1.0000 0.79790  0.28227  0.96140  Biso   1.000  O
  O44      1.0000 0.80001  0.28354  0.03112  Biso   1.000  O
  C232     1.0000 0.00188  0.46490  0.06139  Biso   1.000  C
  H148     1.0000 0.98210  0.46280  0.08090  Biso   1.000  H
  C233     1.0000 0.00430  0.43736  0.03000  Biso   1.000  C
  C234     1.0000 0.97034  0.40742  0.02830  Biso   1.000  C
  C235     1.0000 0.95120  0.39387  0.06282  Biso   1.000  C
  H149     1.0000 0.96050  0.40170  0.08790  Biso   1.000  H
  C236     1.0000 0.91811  0.36867  0.05978  Biso   1.000  C
  H150     1.0000 0.90530  0.35960  0.08290  Biso   1.000  H
  C237     1.0000 0.90415  0.35702  0.02220  Biso   1.000  C
  C238     1.0000 0.92330  0.37057  0.98775  Biso   1.000  C
  H151     1.0000 0.91390  0.36280  0.96260  Biso   1.000  H
  C239     1.0000 0.95637  0.39577  0.99079  Biso   1.000  C
  H152     1.0000 0.96920  0.40480  0.96770  Biso   1.000  H
  C240     1.0000 0.86730  0.33130  0.02220  Biso   1.000  C
  H153     1.0000 0.85720  0.32470  0.04740  Biso   1.000  H
  C241     1.0000 0.84866  0.31780  0.99340  Biso   1.000  C
  H154     1.0000 0.85830  0.32390  0.96790  Biso   1.000  H
  C242     1.0000 0.80990  0.29100  0.99610  Biso   1.000  C
  O45      1.0000 0.70210  0.21773  0.96140  Biso   1.000  O
  O46      1.0000 0.69999  0.21646  0.03112  Biso   1.000  O
  C243     1.0000 0.49812  0.03510  0.06139  Biso   1.000  C
  H155     1.0000 0.51790  0.03720  0.08090  Biso   1.000  H
  C244     1.0000 0.49570  0.06264  0.03000  Biso   1.000  C
  C245     1.0000 0.52966  0.09258  0.02830  Biso   1.000  C
  C246     1.0000 0.54880  0.10613  0.06282  Biso   1.000  C
  H156     1.0000 0.53950  0.09830  0.08790  Biso   1.000  H
  C247     1.0000 0.58189  0.13133  0.05978  Biso   1.000  C
  H157     1.0000 0.59470  0.14040  0.08290  Biso   1.000  H
  C248     1.0000 0.59585  0.14298  0.02220  Biso   1.000  C
  C249     1.0000 0.57670  0.12943  0.98775  Biso   1.000  C
  H158     1.0000 0.58610  0.13720  0.96260  Biso   1.000  H
  C250     1.0000 0.54363  0.10423  0.99079  Biso   1.000  C
  H159     1.0000 0.53080  0.09520  0.96770  Biso   1.000  H
  C251     1.0000 0.63270  0.16870  0.02220  Biso   1.000  C
  H160     1.0000 0.64280  0.17530  0.04740  Biso   1.000  H
  C252     1.0000 0.65134  0.18220  0.99340  Biso   1.000  C
  H161     1.0000 0.64170  0.17610  0.96790  Biso   1.000  H
  C253     1.0000 0.69010  0.20900  0.99610  Biso   1.000  C
  O47      1.0000 0.70210  0.28227  0.53860  Biso   1.000  O
  O48      1.0000 0.69999  0.28354  0.46888  Biso   1.000  O
  C254     1.0000 0.49812  0.46490  0.43861  Biso   1.000  C
  H162     1.0000 0.51790  0.46280  0.41910  Biso   1.000  H
  C255     1.0000 0.49570  0.43736  0.47000  Biso   1.000  C
  C256     1.0000 0.52966  0.40742  0.47170  Biso   1.000  C
  C257     1.0000 0.54880  0.39387  0.43718  Biso   1.000  C
  H163     1.0000 0.53950  0.40170  0.41210  Biso   1.000  H
  C258     1.0000 0.58189  0.36867  0.44022  Biso   1.000  C
  H164     1.0000 0.59470  0.35960  0.41710  Biso   1.000  H
  C259     1.0000 0.59585  0.35702  0.47780  Biso   1.000  C
  C260     1.0000 0.57670  0.37057  0.51225  Biso   1.000  C
  H165     1.0000 0.58610  0.36280  0.53740  Biso   1.000  H
  C261     1.0000 0.54363  0.39577  0.50921  Biso   1.000  C
  H166     1.0000 0.53080  0.40480  0.53230  Biso   1.000  H
  C262     1.0000 0.63270  0.33130  0.47780  Biso   1.000  C
  H167     1.0000 0.64280  0.32470  0.45260  Biso   1.000  H
  C263     1.0000 0.65134  0.31780  0.50660  Biso   1.000  C
  H168     1.0000 0.64170  0.32390  0.53210  Biso   1.000  H
  C264     1.0000 0.69010  0.29100  0.50390  Biso   1.000  C
  Cu1      1.0000 0.04002  0.75000  0.25000  Biso   1.000  Cu
  Cu2      1.0000 0.45998  0.75000  0.25000  Biso   1.000  Cu
  Cu3      1.0000 0.25000  0.04002  0.75000  Biso   1.000  Cu
  Cu4      1.0000 0.25000  0.45998  0.75000  Biso   1.000  Cu
  Cu5      1.0000 0.75000  0.25000  0.04002  Biso   1.000  Cu
  Cu6      1.0000 0.75000  0.25000  0.45998  Biso   1.000  Cu
  Cu7      1.0000 0.25000  0.95998  0.75000  Biso   1.000  Cu
  Cu8      1.0000 0.25000  0.54002  0.75000  Biso   1.000  Cu
  Cu9      1.0000 0.95998  0.75000  0.25000  Biso   1.000  Cu
  Cu10     1.0000 0.54002  0.75000  0.25000  Biso   1.000  Cu
  Cu11     1.0000 0.75000  0.25000  0.54002  Biso   1.000  Cu
  Cu12     1.0000 0.75000  0.25000  0.95998  Biso   1.000  Cu
  O49      1.0000 0.78227  0.03860  0.29790  Biso   1.000  O
  O50      1.0000 0.78354  0.96888  0.30001  Biso   1.000  O
  C265     1.0000 0.96490  0.93861  0.50188  Biso   1.000  C
  H169     1.0000 0.96280  0.91910  0.48210  Biso   1.000  H
  C266     1.0000 0.93736  0.97000  0.50430  Biso   1.000  C
  C267     1.0000 0.90742  0.97170  0.47034  Biso   1.000  C
  C268     1.0000 0.89387  0.93718  0.45120  Biso   1.000  C
  H170     1.0000 0.90170  0.91210  0.46050  Biso   1.000  H
  C269     1.0000 0.86867  0.94022  0.41811  Biso   1.000  C
  H171     1.0000 0.85960  0.91710  0.40530  Biso   1.000  H
  C270     1.0000 0.85702  0.97780  0.40415  Biso   1.000  C
  C271     1.0000 0.87057  0.01225  0.42330  Biso   1.000  C
  H172     1.0000 0.86280  0.03740  0.41390  Biso   1.000  H
  C272     1.0000 0.89577  0.00921  0.45637  Biso   1.000  C
  H173     1.0000 0.90480  0.03230  0.46920  Biso   1.000  H
  C273     1.0000 0.83130  0.97780  0.36730  Biso   1.000  C
  H174     1.0000 0.82470  0.95260  0.35720  Biso   1.000  H
  C274     1.0000 0.81780  0.00660  0.34866  Biso   1.000  C
  H175     1.0000 0.82390  0.03210  0.35830  Biso   1.000  H
  C275     1.0000 0.79100  0.00390  0.30990  Biso   1.000  C
  O51      1.0000 0.71773  0.46140  0.29790  Biso   1.000  O
  O52      1.0000 0.71646  0.53112  0.30001  Biso   1.000  O
  C276     1.0000 0.53510  0.56139  0.50188  Biso   1.000  C
  H176     1.0000 0.53720  0.58090  0.48210  Biso   1.000  H
  C277     1.0000 0.56264  0.53000  0.50430  Biso   1.000  C
  C278     1.0000 0.59258  0.52830  0.47034  Biso   1.000  C
  C279     1.0000 0.60613  0.56282  0.45120  Biso   1.000  C
  H177     1.0000 0.59830  0.58790  0.46050  Biso   1.000  H
  C280     1.0000 0.63133  0.55978  0.41811  Biso   1.000  C
  H178     1.0000 0.64040  0.58290  0.40530  Biso   1.000  H
  C281     1.0000 0.64298  0.52220  0.40415  Biso   1.000  C
  C282     1.0000 0.62943  0.48775  0.42330  Biso   1.000  C
  H179     1.0000 0.63720  0.46260  0.41390  Biso   1.000  H
  C283     1.0000 0.60423  0.49079  0.45637  Biso   1.000  C
  H180     1.0000 0.59520  0.46770  0.46920  Biso   1.000  H
  C284     1.0000 0.66870  0.52220  0.36730  Biso   1.000  C
  H181     1.0000 0.67530  0.54740  0.35720  Biso   1.000  H
  C285     1.0000 0.68220  0.49340  0.34866  Biso   1.000  C
  H182     1.0000 0.67610  0.46790  0.35830  Biso   1.000  H
  C286     1.0000 0.70900  0.49610  0.30990  Biso   1.000  C
  O53      1.0000 0.78227  0.46140  0.20210  Biso   1.000  O
  O54      1.0000 0.78354  0.53112  0.19999  Biso   1.000  O
  C287     1.0000 0.96490  0.56139  0.99812  Biso   1.000  C
  H183     1.0000 0.96280  0.58090  0.01790  Biso   1.000  H
  C288     1.0000 0.93736  0.53000  0.99570  Biso   1.000  C
  C289     1.0000 0.90742  0.52830  0.02966  Biso   1.000  C
  C290     1.0000 0.89387  0.56282  0.04880  Biso   1.000  C
  H184     1.0000 0.90170  0.58790  0.03950  Biso   1.000  H
  C291     1.0000 0.86867  0.55978  0.08189  Biso   1.000  C
  H185     1.0000 0.85960  0.58290  0.09470  Biso   1.000  H
  C292     1.0000 0.85702  0.52220  0.09585  Biso   1.000  C
  C293     1.0000 0.87057  0.48775  0.07670  Biso   1.000  C
  H186     1.0000 0.86280  0.46260  0.08610  Biso   1.000  H
  C294     1.0000 0.89577  0.49079  0.04363  Biso   1.000  C
  H187     1.0000 0.90480  0.46770  0.03080  Biso   1.000  H
  C295     1.0000 0.83130  0.52220  0.13270  Biso   1.000  C
  H188     1.0000 0.82470  0.54740  0.14280  Biso   1.000  H
  C296     1.0000 0.81780  0.49340  0.15134  Biso   1.000  C
  H189     1.0000 0.82390  0.46790  0.14170  Biso   1.000  H
  C297     1.0000 0.79100  0.49610  0.19010  Biso   1.000  C
  O55      1.0000 0.71773  0.03860  0.20210  Biso   1.000  O
  O56      1.0000 0.71646  0.96888  0.19999  Biso   1.000  O
  C298     1.0000 0.53510  0.93861  0.99812  Biso   1.000  C
  H190     1.0000 0.53720  0.91910  0.01790  Biso   1.000  H
  C299     1.0000 0.56264  0.97000  0.99570  Biso   1.000  C
  C300     1.0000 0.59258  0.97170  0.02966  Biso   1.000  C
  C301     1.0000 0.60613  0.93718  0.04880  Biso   1.000  C
  H191     1.0000 0.59830  0.91210  0.03950  Biso   1.000  H
  C302     1.0000 0.63133  0.94022  0.08189  Biso   1.000  C
  H192     1.0000 0.64040  0.91710  0.09470  Biso   1.000  H
  C303     1.0000 0.64298  0.97780  0.09585  Biso   1.000  C
  C304     1.0000 0.62943  0.01225  0.07670  Biso   1.000  C
  H193     1.0000 0.63720  0.03740  0.08610  Biso   1.000  H
  C305     1.0000 0.60423  0.00921  0.04363  Biso   1.000  C
  H194     1.0000 0.59520  0.03230  0.03080  Biso   1.000  H
  C306     1.0000 0.66870  0.97780  0.13270  Biso   1.000  C
  H195     1.0000 0.67530  0.95260  0.14280  Biso   1.000  H
  C307     1.0000 0.68220  0.00660  0.15134  Biso   1.000  C
  H196     1.0000 0.67610  0.03210  0.14170  Biso   1.000  H
  C308     1.0000 0.70900  0.00390  0.19010  Biso   1.000  C
  O57      1.0000 0.03860  0.20210  0.71773  Biso   1.000  O
  O58      1.0000 0.96888  0.19999  0.71646  Biso   1.000  O
  C309     1.0000 0.93861  0.99812  0.53510  Biso   1.000  C
  H197     1.0000 0.91910  0.01790  0.53720  Biso   1.000  H
  C310     1.0000 0.97000  0.99570  0.56264  Biso   1.000  C
  C311     1.0000 0.97170  0.02966  0.59258  Biso   1.000  C
  C312     1.0000 0.93718  0.04880  0.60613  Biso   1.000  C
  H198     1.0000 0.91210  0.03950  0.59830  Biso   1.000  H
  C313     1.0000 0.94022  0.08189  0.63133  Biso   1.000  C
  H199     1.0000 0.91710  0.09470  0.64040  Biso   1.000  H
  C314     1.0000 0.97780  0.09585  0.64298  Biso   1.000  C
  C315     1.0000 0.01225  0.07670  0.62943  Biso   1.000  C
  H200     1.0000 0.03740  0.08610  0.63720  Biso   1.000  H
  C316     1.0000 0.00921  0.04363  0.60423  Biso   1.000  C
  H201     1.0000 0.03230  0.03080  0.59520  Biso   1.000  H
  C317     1.0000 0.97780  0.13270  0.66870  Biso   1.000  C
  H202     1.0000 0.95260  0.14280  0.67530  Biso   1.000  H
  C318     1.0000 0.00660  0.15134  0.68220  Biso   1.000  C
  H203     1.0000 0.03210  0.14170  0.67610  Biso   1.000  H
  C319     1.0000 0.00390  0.19010  0.70900  Biso   1.000  C
  O59      1.0000 0.46140  0.20210  0.78227  Biso   1.000  O
  O60      1.0000 0.53112  0.19999  0.78354  Biso   1.000  O
  C320     1.0000 0.56139  0.99812  0.96490  Biso   1.000  C
  H204     1.0000 0.58090  0.01790  0.96280  Biso   1.000  H
  C321     1.0000 0.53000  0.99570  0.93736  Biso   1.000  C
  C322     1.0000 0.52830  0.02966  0.90742  Biso   1.000  C
  C323     1.0000 0.56282  0.04880  0.89387  Biso   1.000  C
  H205     1.0000 0.58790  0.03950  0.90170  Biso   1.000  H
  C324     1.0000 0.55978  0.08189  0.86867  Biso   1.000  C
  H206     1.0000 0.58290  0.09470  0.85960  Biso   1.000  H
  C325     1.0000 0.52220  0.09585  0.85702  Biso   1.000  C
  C326     1.0000 0.48775  0.07670  0.87057  Biso   1.000  C
  H207     1.0000 0.46260  0.08610  0.86280  Biso   1.000  H
  C327     1.0000 0.49079  0.04363  0.89577  Biso   1.000  C
  H208     1.0000 0.46770  0.03080  0.90480  Biso   1.000  H
  C328     1.0000 0.52220  0.13270  0.83130  Biso   1.000  C
  H209     1.0000 0.54740  0.14280  0.82470  Biso   1.000  H
  C329     1.0000 0.49340  0.15134  0.81780  Biso   1.000  C
  H210     1.0000 0.46790  0.14170  0.82390  Biso   1.000  H
  C330     1.0000 0.49610  0.19010  0.79100  Biso   1.000  C
  O61      1.0000 0.46140  0.29790  0.71773  Biso   1.000  O
  O62      1.0000 0.53112  0.30001  0.71646  Biso   1.000  O
  C331     1.0000 0.56139  0.50188  0.53510  Biso   1.000  C
  H211     1.0000 0.58090  0.48210  0.53720  Biso   1.000  H
  C332     1.0000 0.53000  0.50430  0.56264  Biso   1.000  C
  C333     1.0000 0.52830  0.47034  0.59258  Biso   1.000  C
  C334     1.0000 0.56282  0.45120  0.60613  Biso   1.000  C
  H212     1.0000 0.58790  0.46050  0.59830  Biso   1.000  H
  C335     1.0000 0.55978  0.41811  0.63133  Biso   1.000  C
  H213     1.0000 0.58290  0.40530  0.64040  Biso   1.000  H
  C336     1.0000 0.52220  0.40415  0.64298  Biso   1.000  C
  C337     1.0000 0.48775  0.42330  0.62943  Biso   1.000  C
  H214     1.0000 0.46260  0.41390  0.63720  Biso   1.000  H
  C338     1.0000 0.49079  0.45637  0.60423  Biso   1.000  C
  H215     1.0000 0.46770  0.46920  0.59520  Biso   1.000  H
  C339     1.0000 0.52220  0.36730  0.66870  Biso   1.000  C
  H216     1.0000 0.54740  0.35720  0.67530  Biso   1.000  H
  C340     1.0000 0.49340  0.34866  0.68220  Biso   1.000  C
  H217     1.0000 0.46790  0.35830  0.67610  Biso   1.000  H
  C341     1.0000 0.49610  0.30990  0.70900  Biso   1.000  C
  O63      1.0000 0.03860  0.29790  0.78227  Biso   1.000  O
  O64      1.0000 0.96888  0.30001  0.78354  Biso   1.000  O
  C342     1.0000 0.93861  0.50188  0.96490  Biso   1.000  C
  H218     1.0000 0.91910  0.48210  0.96280  Biso   1.000  H
  C343     1.0000 0.97000  0.50430  0.93736  Biso   1.000  C
  C344     1.0000 0.97170  0.47034  0.90742  Biso   1.000  C
  C345     1.0000 0.93718  0.45120  0.89387  Biso   1.000  C
  H219     1.0000 0.91210  0.46050  0.90170  Biso   1.000  H
  C346     1.0000 0.94022  0.41811  0.86867  Biso   1.000  C
  H220     1.0000 0.91710  0.40530  0.85960  Biso   1.000  H
  C347     1.0000 0.97780  0.40415  0.85702  Biso   1.000  C
  C348     1.0000 0.01225  0.42330  0.87057  Biso   1.000  C
  H221     1.0000 0.03740  0.41390  0.86280  Biso   1.000  H
  C349     1.0000 0.00921  0.45637  0.89577  Biso   1.000  C
  H222     1.0000 0.03230  0.46920  0.90480  Biso   1.000  H
  C350     1.0000 0.97780  0.36730  0.83130  Biso   1.000  C
  H223     1.0000 0.95260  0.35720  0.82470  Biso   1.000  H
  C351     1.0000 0.00660  0.34866  0.81780  Biso   1.000  C
  H224     1.0000 0.03210  0.35830  0.82390  Biso   1.000  H
  C352     1.0000 0.00390  0.30990  0.79100  Biso   1.000  C
  O65      1.0000 0.20210  0.78227  0.46140  Biso   1.000  O
  O66      1.0000 0.19999  0.78354  0.53112  Biso   1.000  O
  C353     1.0000 0.99812  0.96490  0.56139  Biso   1.000  C
  H225     1.0000 0.01790  0.96280  0.58090  Biso   1.000  H
  C354     1.0000 0.99570  0.93736  0.53000  Biso   1.000  C
  C355     1.0000 0.02966  0.90742  0.52830  Biso   1.000  C
  C356     1.0000 0.04880  0.89387  0.56282  Biso   1.000  C
  H226     1.0000 0.03950  0.90170  0.58790  Biso   1.000  H
  C357     1.0000 0.08189  0.86867  0.55978  Biso   1.000  C
  H227     1.0000 0.09470  0.85960  0.58290  Biso   1.000  H
  C358     1.0000 0.09585  0.85702  0.52220  Biso   1.000  C
  C359     1.0000 0.07670  0.87057  0.48775  Biso   1.000  C
  H228     1.0000 0.08610  0.86280  0.46260  Biso   1.000  H
  C360     1.0000 0.04363  0.89577  0.49079  Biso   1.000  C
  H229     1.0000 0.03080  0.90480  0.46770  Biso   1.000  H
  C361     1.0000 0.13270  0.83130  0.52220  Biso   1.000  C
  H230     1.0000 0.14280  0.82470  0.54740  Biso   1.000  H
  C362     1.0000 0.15134  0.81780  0.49340  Biso   1.000  C
  H231     1.0000 0.14170  0.82390  0.46790  Biso   1.000  H
  C363     1.0000 0.19010  0.79100  0.49610  Biso   1.000  C
  O67      1.0000 0.20210  0.71773  0.03860  Biso   1.000  O
  O68      1.0000 0.19999  0.71646  0.96888  Biso   1.000  O
  C364     1.0000 0.99812  0.53510  0.93861  Biso   1.000  C
  H232     1.0000 0.01790  0.53720  0.91910  Biso   1.000  H
  C365     1.0000 0.99570  0.56264  0.97000  Biso   1.000  C
  C366     1.0000 0.02966  0.59258  0.97170  Biso   1.000  C
  C367     1.0000 0.04880  0.60613  0.93718  Biso   1.000  C
  H233     1.0000 0.03950  0.59830  0.91210  Biso   1.000  H
  C368     1.0000 0.08189  0.63133  0.94022  Biso   1.000  C
  H234     1.0000 0.09470  0.64040  0.91710  Biso   1.000  H
  C369     1.0000 0.09585  0.64298  0.97780  Biso   1.000  C
  C370     1.0000 0.07670  0.62943  0.01225  Biso   1.000  C
  H235     1.0000 0.08610  0.63720  0.03740  Biso   1.000  H
  C371     1.0000 0.04363  0.60423  0.00921  Biso   1.000  C
  H236     1.0000 0.03080  0.59520  0.03230  Biso   1.000  H
  C372     1.0000 0.13270  0.66870  0.97780  Biso   1.000  C
  H237     1.0000 0.14280  0.67530  0.95260  Biso   1.000  H
  C373     1.0000 0.15134  0.68220  0.00660  Biso   1.000  C
  H238     1.0000 0.14170  0.67610  0.03210  Biso   1.000  H
  C374     1.0000 0.19010  0.70900  0.00390  Biso   1.000  C
  O69      1.0000 0.29790  0.78227  0.03860  Biso   1.000  O
  O70      1.0000 0.30001  0.78354  0.96888  Biso   1.000  O
  C375     1.0000 0.50188  0.96490  0.93861  Biso   1.000  C
  H239     1.0000 0.48210  0.96280  0.91910  Biso   1.000  H
  C376     1.0000 0.50430  0.93736  0.97000  Biso   1.000  C
  C377     1.0000 0.47034  0.90742  0.97170  Biso   1.000  C
  C378     1.0000 0.45120  0.89387  0.93718  Biso   1.000  C
  H240     1.0000 0.46050  0.90170  0.91210  Biso   1.000  H
  C379     1.0000 0.41811  0.86867  0.94022  Biso   1.000  C
  H241     1.0000 0.40530  0.85960  0.91710  Biso   1.000  H
  C380     1.0000 0.40415  0.85702  0.97780  Biso   1.000  C
  C381     1.0000 0.42330  0.87057  0.01225  Biso   1.000  C
  H242     1.0000 0.41390  0.86280  0.03740  Biso   1.000  H
  C382     1.0000 0.45637  0.89577  0.00921  Biso   1.000  C
  H243     1.0000 0.46920  0.90480  0.03230  Biso   1.000  H
  C383     1.0000 0.36730  0.83130  0.97780  Biso   1.000  C
  H244     1.0000 0.35720  0.82470  0.95260  Biso   1.000  H
  C384     1.0000 0.34866  0.81780  0.00660  Biso   1.000  C
  H245     1.0000 0.35830  0.82390  0.03210  Biso   1.000  H
  C385     1.0000 0.30990  0.79100  0.00390  Biso   1.000  C
  O71      1.0000 0.29790  0.71773  0.46140  Biso   1.000  O
  O72      1.0000 0.30001  0.71646  0.53112  Biso   1.000  O
  C386     1.0000 0.50188  0.53510  0.56139  Biso   1.000  C
  H246     1.0000 0.48210  0.53720  0.58090  Biso   1.000  H
  C387     1.0000 0.50430  0.56264  0.53000  Biso   1.000  C
  C388     1.0000 0.47034  0.59258  0.52830  Biso   1.000  C
  C389     1.0000 0.45120  0.60613  0.56282  Biso   1.000  C
  H247     1.0000 0.46050  0.59830  0.58790  Biso   1.000  H
  C390     1.0000 0.41811  0.63133  0.55978  Biso   1.000  C
  H248     1.0000 0.40530  0.64040  0.58290  Biso   1.000  H
  C391     1.0000 0.40415  0.64298  0.52220  Biso   1.000  C
  C392     1.0000 0.42330  0.62943  0.48775  Biso   1.000  C
  H249     1.0000 0.41390  0.63720  0.46260  Biso   1.000  H
  C393     1.0000 0.45637  0.60423  0.49079  Biso   1.000  C
  H250     1.0000 0.46920  0.59520  0.46770  Biso   1.000  H
  C394     1.0000 0.36730  0.66870  0.52220  Biso   1.000  C
  H251     1.0000 0.35720  0.67530  0.54740  Biso   1.000  H
  C395     1.0000 0.34866  0.68220  0.49340  Biso   1.000  C
  H252     1.0000 0.35830  0.67610  0.46790  Biso   1.000  H
  C396     1.0000 0.30990  0.70900  0.49610  Biso   1.000  C
  O73      1.0000 0.96140  0.21773  0.79790  Biso   1.000  O
  O74      1.0000 0.03112  0.21646  0.80001  Biso   1.000  O
  C397     1.0000 0.06139  0.03510  0.00188  Biso   1.000  C
  H253     1.0000 0.08090  0.03720  0.98210  Biso   1.000  H
  C398     1.0000 0.03000  0.06264  0.00430  Biso   1.000  C
  C399     1.0000 0.02830  0.09258  0.97034  Biso   1.000  C
  C400     1.0000 0.06282  0.10613  0.95120  Biso   1.000  C
  H254     1.0000 0.08790  0.09830  0.96050  Biso   1.000  H
  C401     1.0000 0.05978  0.13133  0.91811  Biso   1.000  C
  H255     1.0000 0.08290  0.14040  0.90530  Biso   1.000  H
  C402     1.0000 0.02220  0.14298  0.90415  Biso   1.000  C
  C403     1.0000 0.98775  0.12943  0.92330  Biso   1.000  C
  H256     1.0000 0.96260  0.13720  0.91390  Biso   1.000  H
  C404     1.0000 0.99079  0.10423  0.95637  Biso   1.000  C
  H257     1.0000 0.96770  0.09520  0.96920  Biso   1.000  H
  C405     1.0000 0.02220  0.16870  0.86730  Biso   1.000  C
  H258     1.0000 0.04740  0.17530  0.85720  Biso   1.000  H
  C406     1.0000 0.99340  0.18220  0.84866  Biso   1.000  C
  H259     1.0000 0.96790  0.17610  0.85830  Biso   1.000  H
  C407     1.0000 0.99610  0.20900  0.80990  Biso   1.000  C
  O75      1.0000 0.53860  0.28227  0.79790  Biso   1.000  O
  O76      1.0000 0.46888  0.28354  0.80001  Biso   1.000  O
  C408     1.0000 0.43861  0.46490  0.00188  Biso   1.000  C
  H260     1.0000 0.41910  0.46280  0.98210  Biso   1.000  H
  C409     1.0000 0.47000  0.43736  0.00430  Biso   1.000  C
  C410     1.0000 0.47170  0.40742  0.97034  Biso   1.000  C
  C411     1.0000 0.43718  0.39387  0.95120  Biso   1.000  C
  H261     1.0000 0.41210  0.40170  0.96050  Biso   1.000  H
  C412     1.0000 0.44022  0.36867  0.91811  Biso   1.000  C
  H262     1.0000 0.41710  0.35960  0.90530  Biso   1.000  H
  C413     1.0000 0.47780  0.35702  0.90415  Biso   1.000  C
  C414     1.0000 0.51225  0.37057  0.92330  Biso   1.000  C
  H263     1.0000 0.53740  0.36280  0.91390  Biso   1.000  H
  C415     1.0000 0.50921  0.39577  0.95637  Biso   1.000  C
  H264     1.0000 0.53230  0.40480  0.96920  Biso   1.000  H
  C416     1.0000 0.47780  0.33130  0.86730  Biso   1.000  C
  H265     1.0000 0.45260  0.32470  0.85720  Biso   1.000  H
  C417     1.0000 0.50660  0.31780  0.84866  Biso   1.000  C
  H266     1.0000 0.53210  0.32390  0.85830  Biso   1.000  H
  C418     1.0000 0.50390  0.29100  0.80990  Biso   1.000  C
  O77      1.0000 0.53860  0.21773  0.70210  Biso   1.000  O
  O78      1.0000 0.46888  0.21646  0.69999  Biso   1.000  O
  C419     1.0000 0.43861  0.03510  0.49812  Biso   1.000  C
  H267     1.0000 0.41910  0.03720  0.51790  Biso   1.000  H
  C420     1.0000 0.47000  0.06264  0.49570  Biso   1.000  C
  C421     1.0000 0.47170  0.09258  0.52966  Biso   1.000  C
  C422     1.0000 0.43718  0.10613  0.54880  Biso   1.000  C
  H268     1.0000 0.41210  0.09830  0.53950  Biso   1.000  H
  C423     1.0000 0.44022  0.13133  0.58189  Biso   1.000  C
  H269     1.0000 0.41710  0.14040  0.59470  Biso   1.000  H
  C424     1.0000 0.47780  0.14298  0.59585  Biso   1.000  C
  C425     1.0000 0.51225  0.12943  0.57670  Biso   1.000  C
  H270     1.0000 0.53740  0.13720  0.58610  Biso   1.000  H
  C426     1.0000 0.50921  0.10423  0.54363  Biso   1.000  C
  H271     1.0000 0.53230  0.09520  0.53080  Biso   1.000  H
  C427     1.0000 0.47780  0.16870  0.63270  Biso   1.000  C
  H272     1.0000 0.45260  0.17530  0.64280  Biso   1.000  H
  C428     1.0000 0.50660  0.18220  0.65134  Biso   1.000  C
  H273     1.0000 0.53210  0.17610  0.64170  Biso   1.000  H
  C429     1.0000 0.50390  0.20900  0.69010  Biso   1.000  C
  O79      1.0000 0.96140  0.28227  0.70210  Biso   1.000  O
  O80      1.0000 0.03112  0.28354  0.69999  Biso   1.000  O
  C430     1.0000 0.06139  0.46490  0.49812  Biso   1.000  C
  H274     1.0000 0.08090  0.46280  0.51790  Biso   1.000  H
  C431     1.0000 0.03000  0.43736  0.49570  Biso   1.000  C
  C432     1.0000 0.02830  0.40742  0.52966  Biso   1.000  C
  C433     1.0000 0.06282  0.39387  0.54880  Biso   1.000  C
  H275     1.0000 0.08790  0.40170  0.53950  Biso   1.000  H
  C434     1.0000 0.05978  0.36867  0.58189  Biso   1.000  C
  H276     1.0000 0.08290  0.35960  0.59470  Biso   1.000  H
  C435     1.0000 0.02220  0.35702  0.59585  Biso   1.000  C
  C436     1.0000 0.98775  0.37057  0.57670  Biso   1.000  C
  H277     1.0000 0.96260  0.36280  0.58610  Biso   1.000  H
  C437     1.0000 0.99079  0.39577  0.54363  Biso   1.000  C
  H278     1.0000 0.96770  0.40480  0.53080  Biso   1.000  H
  C438     1.0000 0.02220  0.33130  0.63270  Biso   1.000  C
  H279     1.0000 0.04740  0.32470  0.64280  Biso   1.000  H
  C439     1.0000 0.99340  0.31780  0.65134  Biso   1.000  C
  H280     1.0000 0.96790  0.32390  0.64170  Biso   1.000  H
  C440     1.0000 0.99610  0.29100  0.69010  Biso   1.000  C
  O81      1.0000 0.79790  0.96140  0.21773  Biso   1.000  O
  O82      1.0000 0.80001  0.03112  0.21646  Biso   1.000  O
  C441     1.0000 0.00188  0.06139  0.03510  Biso   1.000  C
  H281     1.0000 0.98210  0.08090  0.03720  Biso   1.000  H
  C442     1.0000 0.00430  0.03000  0.06264  Biso   1.000  C
  C443     1.0000 0.97034  0.02830  0.09258  Biso   1.000  C
  C444     1.0000 0.95120  0.06282  0.10613  Biso   1.000  C
  H282     1.0000 0.96050  0.08790  0.09830  Biso   1.000  H
  C445     1.0000 0.91811  0.05978  0.13133  Biso   1.000  C
  H283     1.0000 0.90530  0.08290  0.14040  Biso   1.000  H
  C446     1.0000 0.90415  0.02220  0.14298  Biso   1.000  C
  C447     1.0000 0.92330  0.98775  0.12943  Biso   1.000  C
  H284     1.0000 0.91390  0.96260  0.13720  Biso   1.000  H
  C448     1.0000 0.95637  0.99079  0.10423  Biso   1.000  C
  H285     1.0000 0.96920  0.96770  0.09520  Biso   1.000  H
  C449     1.0000 0.86730  0.02220  0.16870  Biso   1.000  C
  H286     1.0000 0.85720  0.04740  0.17530  Biso   1.000  H
  C450     1.0000 0.84866  0.99340  0.18220  Biso   1.000  C
  H287     1.0000 0.85830  0.96790  0.17610  Biso   1.000  H
  C451     1.0000 0.80990  0.99610  0.20900  Biso   1.000  C
  O83      1.0000 0.79790  0.53860  0.28227  Biso   1.000  O
  O84      1.0000 0.80001  0.46888  0.28354  Biso   1.000  O
  C452     1.0000 0.00188  0.43861  0.46490  Biso   1.000  C
  H288     1.0000 0.98210  0.41910  0.46280  Biso   1.000  H
  C453     1.0000 0.00430  0.47000  0.43736  Biso   1.000  C
  C454     1.0000 0.97034  0.47170  0.40742  Biso   1.000  C
  C455     1.0000 0.95120  0.43718  0.39387  Biso   1.000  C
  H289     1.0000 0.96050  0.41210  0.40170  Biso   1.000  H
  C456     1.0000 0.91811  0.44022  0.36867  Biso   1.000  C
  H290     1.0000 0.90530  0.41710  0.35960  Biso   1.000  H
  C457     1.0000 0.90415  0.47780  0.35702  Biso   1.000  C
  C458     1.0000 0.92330  0.51225  0.37057  Biso   1.000  C
  H291     1.0000 0.91390  0.53740  0.36280  Biso   1.000  H
  C459     1.0000 0.95637  0.50921  0.39577  Biso   1.000  C
  H292     1.0000 0.96920  0.53230  0.40480  Biso   1.000  H
  C460     1.0000 0.86730  0.47780  0.33130  Biso   1.000  C
  H293     1.0000 0.85720  0.45260  0.32470  Biso   1.000  H
  C461     1.0000 0.84866  0.50660  0.31780  Biso   1.000  C
  H294     1.0000 0.85830  0.53210  0.32390  Biso   1.000  H
  C462     1.0000 0.80990  0.50390  0.29100  Biso   1.000  C
  O85      1.0000 0.70210  0.53860  0.21773  Biso   1.000  O
  O86      1.0000 0.69999  0.46888  0.21646  Biso   1.000  O
  C463     1.0000 0.49812  0.43861  0.03510  Biso   1.000  C
  H295     1.0000 0.51790  0.41910  0.03720  Biso   1.000  H
  C464     1.0000 0.49570  0.47000  0.06264  Biso   1.000  C
  C465     1.0000 0.52966  0.47170  0.09258  Biso   1.000  C
  C466     1.0000 0.54880  0.43718  0.10613  Biso   1.000  C
  H296     1.0000 0.53950  0.41210  0.09830  Biso   1.000  H
  C467     1.0000 0.58189  0.44022  0.13133  Biso   1.000  C
  H297     1.0000 0.59470  0.41710  0.14040  Biso   1.000  H
  C468     1.0000 0.59585  0.47780  0.14298  Biso   1.000  C
  C469     1.0000 0.57670  0.51225  0.12943  Biso   1.000  C
  H298     1.0000 0.58610  0.53740  0.13720  Biso   1.000  H
  C470     1.0000 0.54363  0.50921  0.10423  Biso   1.000  C
  H299     1.0000 0.53080  0.53230  0.09520  Biso   1.000  H
  C471     1.0000 0.63270  0.47780  0.16870  Biso   1.000  C
  H300     1.0000 0.64280  0.45260  0.17530  Biso   1.000  H
  C472     1.0000 0.65134  0.50660  0.18220  Biso   1.000  C
  H301     1.0000 0.64170  0.53210  0.17610  Biso   1.000  H
  C473     1.0000 0.69010  0.50390  0.20900  Biso   1.000  C
  O87      1.0000 0.70210  0.96140  0.28227  Biso   1.000  O
  O88      1.0000 0.69999  0.03112  0.28354  Biso   1.000  O
  C474     1.0000 0.49812  0.06139  0.46490  Biso   1.000  C
  H302     1.0000 0.51790  0.08090  0.46280  Biso   1.000  H
  C475     1.0000 0.49570  0.03000  0.43736  Biso   1.000  C
  C476     1.0000 0.52966  0.02830  0.40742  Biso   1.000  C
  C477     1.0000 0.54880  0.06282  0.39387  Biso   1.000  C
  H303     1.0000 0.53950  0.08790  0.40170  Biso   1.000  H
  C478     1.0000 0.58189  0.05978  0.36867  Biso   1.000  C
  H304     1.0000 0.59470  0.08290  0.35960  Biso   1.000  H
  C479     1.0000 0.59585  0.02220  0.35702  Biso   1.000  C
  C480     1.0000 0.57670  0.98775  0.37057  Biso   1.000  C
  H305     1.0000 0.58610  0.96260  0.36280  Biso   1.000  H
  C481     1.0000 0.54363  0.99079  0.39577  Biso   1.000  C
  H306     1.0000 0.53080  0.96770  0.40480  Biso   1.000  H
  C482     1.0000 0.63270  0.02220  0.33130  Biso   1.000  C
  H307     1.0000 0.64280  0.04740  0.32470  Biso   1.000  H
  C483     1.0000 0.65134  0.99340  0.31780  Biso   1.000  C
  H308     1.0000 0.64170  0.96790  0.32390  Biso   1.000  H
  C484     1.0000 0.69010  0.99610  0.29100  Biso   1.000  C
  O89      1.0000 0.21773  0.79790  0.96140  Biso   1.000  O
  O90      1.0000 0.21646  0.80001  0.03112  Biso   1.000  O
  C485     1.0000 0.03510  0.00188  0.06139  Biso   1.000  C
  H309     1.0000 0.03720  0.98210  0.08090  Biso   1.000  H
  C486     1.0000 0.06264  0.00430  0.03000  Biso   1.000  C
  C487     1.0000 0.09258  0.97034  0.02830  Biso   1.000  C
  C488     1.0000 0.10613  0.95120  0.06282  Biso   1.000  C
  H310     1.0000 0.09830  0.96050  0.08790  Biso   1.000  H
  C489     1.0000 0.13133  0.91811  0.05978  Biso   1.000  C
  H311     1.0000 0.14040  0.90530  0.08290  Biso   1.000  H
  C490     1.0000 0.14298  0.90415  0.02220  Biso   1.000  C
  C491     1.0000 0.12943  0.92330  0.98775  Biso   1.000  C
  H312     1.0000 0.13720  0.91390  0.96260  Biso   1.000  H
  C492     1.0000 0.10423  0.95637  0.99079  Biso   1.000  C
  H313     1.0000 0.09520  0.96920  0.96770  Biso   1.000  H
  C493     1.0000 0.16870  0.86730  0.02220  Biso   1.000  C
  H314     1.0000 0.17530  0.85720  0.04740  Biso   1.000  H
  C494     1.0000 0.18220  0.84866  0.99340  Biso   1.000  C
  H315     1.0000 0.17610  0.85830  0.96790  Biso   1.000  H
  C495     1.0000 0.20900  0.80990  0.99610  Biso   1.000  C
  O91      1.0000 0.28227  0.79790  0.53860  Biso   1.000  O
  O92      1.0000 0.28354  0.80001  0.46888  Biso   1.000  O
  C496     1.0000 0.46490  0.00188  0.43861  Biso   1.000  C
  H316     1.0000 0.46280  0.98210  0.41910  Biso   1.000  H
  C497     1.0000 0.43736  0.00430  0.47000  Biso   1.000  C
  C498     1.0000 0.40742  0.97034  0.47170  Biso   1.000  C
  C499     1.0000 0.39387  0.95120  0.43718  Biso   1.000  C
  H317     1.0000 0.40170  0.96050  0.41210  Biso   1.000  H
  C500     1.0000 0.36867  0.91811  0.44022  Biso   1.000  C
  H318     1.0000 0.35960  0.90530  0.41710  Biso   1.000  H
  C501     1.0000 0.35702  0.90415  0.47780  Biso   1.000  C
  C502     1.0000 0.37057  0.92330  0.51225  Biso   1.000  C
  H319     1.0000 0.36280  0.91390  0.53740  Biso   1.000  H
  C503     1.0000 0.39577  0.95637  0.50921  Biso   1.000  C
  H320     1.0000 0.40480  0.96920  0.53230  Biso   1.000  H
  C504     1.0000 0.33130  0.86730  0.47780  Biso   1.000  C
  H321     1.0000 0.32470  0.85720  0.45260  Biso   1.000  H
  C505     1.0000 0.31780  0.84866  0.50660  Biso   1.000  C
  H322     1.0000 0.32390  0.85830  0.53210  Biso   1.000  H
  C506     1.0000 0.29100  0.80990  0.50390  Biso   1.000  C
  O93      1.0000 0.21773  0.70210  0.53860  Biso   1.000  O
  O94      1.0000 0.21646  0.69999  0.46888  Biso   1.000  O
  C507     1.0000 0.03510  0.49812  0.43861  Biso   1.000  C
  H323     1.0000 0.03720  0.51790  0.41910  Biso   1.000  H
  C508     1.0000 0.06264  0.49570  0.47000  Biso   1.000  C
  C509     1.0000 0.09258  0.52966  0.47170  Biso   1.000  C
  C510     1.0000 0.10613  0.54880  0.43718  Biso   1.000  C
  H324     1.0000 0.09830  0.53950  0.41210  Biso   1.000  H
  C511     1.0000 0.13133  0.58189  0.44022  Biso   1.000  C
  H325     1.0000 0.14040  0.59470  0.41710  Biso   1.000  H
  C512     1.0000 0.14298  0.59585  0.47780  Biso   1.000  C
  C513     1.0000 0.12943  0.57670  0.51225  Biso   1.000  C
  H326     1.0000 0.13720  0.58610  0.53740  Biso   1.000  H
  C514     1.0000 0.10423  0.54363  0.50921  Biso   1.000  C
  H327     1.0000 0.09520  0.53080  0.53230  Biso   1.000  H
  C515     1.0000 0.16870  0.63270  0.47780  Biso   1.000  C
  H328     1.0000 0.17530  0.64280  0.45260  Biso   1.000  H
  C516     1.0000 0.18220  0.65134  0.50660  Biso   1.000  C
  H329     1.0000 0.17610  0.64170  0.53210  Biso   1.000  H
  C517     1.0000 0.20900  0.69010  0.50390  Biso   1.000  C
  O95      1.0000 0.28227  0.70210  0.96140  Biso   1.000  O
  O96      1.0000 0.28354  0.69999  0.03112  Biso   1.000  O
  C518     1.0000 0.46490  0.49812  0.06139  Biso   1.000  C
  H330     1.0000 0.46280  0.51790  0.08090  Biso   1.000  H
  C519     1.0000 0.43736  0.49570  0.03000  Biso   1.000  C
  C520     1.0000 0.40742  0.52966  0.02830  Biso   1.000  C
  C521     1.0000 0.39387  0.54880  0.06282  Biso   1.000  C
  H331     1.0000 0.40170  0.53950  0.08790  Biso   1.000  H
  C522     1.0000 0.36867  0.58189  0.05978  Biso   1.000  C
  H332     1.0000 0.35960  0.59470  0.08290  Biso   1.000  H
  C523     1.0000 0.35702  0.59585  0.02220  Biso   1.000  C
  C524     1.0000 0.37057  0.57670  0.98775  Biso   1.000  C
  H333     1.0000 0.36280  0.58610  0.96260  Biso   1.000  H
  C525     1.0000 0.39577  0.54363  0.99079  Biso   1.000  C
  H334     1.0000 0.40480  0.53080  0.96770  Biso   1.000  H
  C526     1.0000 0.33130  0.63270  0.02220  Biso   1.000  C
  H335     1.0000 0.32470  0.64280  0.04740  Biso   1.000  H
  C527     1.0000 0.31780  0.65134  0.99340  Biso   1.000  C
  H336     1.0000 0.32390  0.64170  0.96790  Biso   1.000  H
  C528     1.0000 0.29100  0.69010  0.99610  Biso   1.000  C
  Cu13     1.0000 0.75000  0.04002  0.25000  Biso   1.000  Cu
  Cu14     1.0000 0.75000  0.45998  0.25000  Biso   1.000  Cu
  Cu15     1.0000 0.04002  0.25000  0.75000  Biso   1.000  Cu
  Cu16     1.0000 0.45998  0.25000  0.75000  Biso   1.000  Cu
  Cu17     1.0000 0.25000  0.75000  0.45998  Biso   1.000  Cu
  Cu18     1.0000 0.25000  0.75000  0.04002  Biso   1.000  Cu
  Cu19     1.0000 0.95998  0.25000  0.75000  Biso   1.000  Cu
  Cu20     1.0000 0.54002  0.25000  0.75000  Biso   1.000  Cu
  Cu21     1.0000 0.75000  0.95998  0.25000  Biso   1.000  Cu
  Cu22     1.0000 0.75000  0.54002  0.25000  Biso   1.000  Cu
  Cu23     1.0000 0.25000  0.75000  0.95998  Biso   1.000  Cu
  Cu24     1.0000 0.25000  0.75000  0.54002  Biso   1.000  Cu
