data_image0
_cell_length_a       45.2958
_cell_length_b       45.2958
_cell_length_c       45.2958
_cell_angle_alpha    60
_cell_angle_beta     60
_cell_angle_gamma    60

_symmetry_space_group_name_H-M    P 1
_symmetry_int_tables_number       1

loop_
  _symmetry_equiv_pos_as_xyz
  'x, y, z'

loop_
  _atom_site_label
  _atom_site_occupancy
  _atom_site_fract_x
  _atom_site_fract_y
  _atom_site_fract_z
  _atom_site_thermal_displace_type
  _atom_site_B_iso_or_equiv
  _atom_site_type_symbol
  Co1      1.0000 0.98952  0.01048  0.25000  Biso   1.000  Co
  Co2      1.0000 0.51048  0.48952  0.75000  Biso   1.000  Co
  Co3      1.0000 0.75000  0.75000  0.48952  Biso   1.000  Co
  Co4      1.0000 0.25000  0.25000  0.01048  Biso   1.000  Co
  Co5      1.0000 0.98952  0.25000  0.75000  Biso   1.000  Co
  Co6      1.0000 0.51048  0.75000  0.25000  Biso   1.000  Co
  Co7      1.0000 0.75000  0.48952  0.01048  Biso   1.000  Co
  Co8      1.0000 0.25000  0.01048  0.48952  Biso   1.000  Co
  Co9      1.0000 0.98952  0.75000  0.01048  Biso   1.000  Co
  Co10     1.0000 0.51048  0.25000  0.48952  Biso   1.000  Co
  Co11     1.0000 0.75000  0.01048  0.75000  Biso   1.000  Co
  Co12     1.0000 0.25000  0.48952  0.25000  Biso   1.000  Co
  Co13     1.0000 0.01048  0.98952  0.75000  Biso   1.000  Co
  Co14     1.0000 0.48952  0.51048  0.25000  Biso   1.000  Co
  Co15     1.0000 0.25000  0.25000  0.51048  Biso   1.000  Co
  Co16     1.0000 0.75000  0.75000  0.98952  Biso   1.000  Co
  Co17     1.0000 0.01048  0.75000  0.25000  Biso   1.000  Co
  Co18     1.0000 0.48952  0.25000  0.75000  Biso   1.000  Co
  Co19     1.0000 0.25000  0.51048  0.98952  Biso   1.000  Co
  Co20     1.0000 0.75000  0.98952  0.51048  Biso   1.000  Co
  Co21     1.0000 0.01048  0.25000  0.98952  Biso   1.000  Co
  Co22     1.0000 0.48952  0.75000  0.51048  Biso   1.000  Co
  Co23     1.0000 0.25000  0.98952  0.25000  Biso   1.000  Co
  Co24     1.0000 0.75000  0.51048  0.75000  Biso   1.000  Co
  Co25     1.0000 0.00220  0.24780  0.24780  Biso   1.000  Co
  Co26     1.0000 0.74780  0.50220  0.50220  Biso   1.000  Co
  Co27     1.0000 0.00220  0.24780  0.50220  Biso   1.000  Co
  Co28     1.0000 0.74780  0.50220  0.24780  Biso   1.000  Co
  Co29     1.0000 0.00220  0.50220  0.24780  Biso   1.000  Co
  Co30     1.0000 0.74780  0.24780  0.50220  Biso   1.000  Co
  Co31     1.0000 0.75220  0.99780  0.25220  Biso   1.000  Co
  Co32     1.0000 0.49780  0.25220  0.99780  Biso   1.000  Co
  Co33     1.0000 0.75220  0.99780  0.99780  Biso   1.000  Co
  Co34     1.0000 0.49780  0.25220  0.25220  Biso   1.000  Co
  Co35     1.0000 0.49780  0.99780  0.25220  Biso   1.000  Co
  Co36     1.0000 0.75220  0.25220  0.99780  Biso   1.000  Co
  Co37     1.0000 0.99780  0.75220  0.75220  Biso   1.000  Co
  Co38     1.0000 0.25220  0.49780  0.49780  Biso   1.000  Co
  Co39     1.0000 0.99780  0.75220  0.49780  Biso   1.000  Co
  Co40     1.0000 0.25220  0.49780  0.75220  Biso   1.000  Co
  Co41     1.0000 0.99780  0.49780  0.75220  Biso   1.000  Co
  Co42     1.0000 0.25220  0.75220  0.49780  Biso   1.000  Co
  Co43     1.0000 0.24780  0.00220  0.74780  Biso   1.000  Co
  Co44     1.0000 0.50220  0.74780  0.00220  Biso   1.000  Co
  Co45     1.0000 0.24780  0.00220  0.00220  Biso   1.000  Co
  Co46     1.0000 0.50220  0.74780  0.74780  Biso   1.000  Co
  Co47     1.0000 0.50220  0.00220  0.74780  Biso   1.000  Co
  Co48     1.0000 0.24780  0.74780  0.00220  Biso   1.000  Co
  H1       1.0000 0.95320  0.04560  0.31320  Biso   1.000  H
  H2       1.0000 0.93510  0.10090  0.31830  Biso   1.000  H
  H3       1.0000 0.94560  0.15040  0.26600  Biso   1.000  H
  H4       1.0000 0.97910  0.08890  0.20750  Biso   1.000  H
  H5       1.0000 0.99260  0.17920  0.01760  Biso   1.000  H
  H6       1.0000 0.98310  0.13010  0.06910  Biso   1.000  H
  H7       1.0000 0.97620  0.12940  0.12460  Biso   1.000  H
  H8       1.0000 0.99210  0.22550  0.07170  Biso   1.000  H
  H9       1.0000 0.99170  0.20970  0.21650  Biso   1.000  H
  H10      1.0000 0.02080  0.29580  0.16540  Biso   1.000  H
  H11      1.0000 0.01740  0.30400  0.11280  Biso   1.000  H
  H12      1.0000 0.00440  0.26160  0.10960  Biso   1.000  H
  H13      1.0000 0.92890  0.27470  0.23850  Biso   1.000  H
  H14      1.0000 0.88190  0.32590  0.22530  Biso   1.000  H
  H15      1.0000 0.87850  0.38070  0.22250  Biso   1.000  H
  H16      1.0000 0.97100  0.32780  0.24560  Biso   1.000  H
  H17      1.0000 0.54560  0.45320  0.68800  Biso   1.000  H
  H18      1.0000 0.60090  0.43510  0.64570  Biso   1.000  H
  H19      1.0000 0.65040  0.44560  0.63800  Biso   1.000  H
  H20      1.0000 0.58890  0.47910  0.72450  Biso   1.000  H
  H21      1.0000 0.67920  0.49260  0.81060  Biso   1.000  H
  H22      1.0000 0.63010  0.48310  0.81770  Biso   1.000  H
  H23      1.0000 0.62940  0.47620  0.76980  Biso   1.000  H
  H24      1.0000 0.72550  0.49210  0.71070  Biso   1.000  H
  H25      1.0000 0.70970  0.49170  0.58210  Biso   1.000  H
  H26      1.0000 0.79580  0.52080  0.51800  Biso   1.000  H
  H27      1.0000 0.80400  0.51740  0.56580  Biso   1.000  H
  H28      1.0000 0.76160  0.50440  0.62440  Biso   1.000  H
  H29      1.0000 0.77470  0.42890  0.55790  Biso   1.000  H
  H30      1.0000 0.82590  0.38190  0.56690  Biso   1.000  H
  H31      1.0000 0.88070  0.37850  0.51830  Biso   1.000  H
  H32      1.0000 0.82780  0.47100  0.45560  Biso   1.000  H
  H33      1.0000 0.81320  0.68800  0.45320  Biso   1.000  H
  H34      1.0000 0.81830  0.64570  0.43510  Biso   1.000  H
  H35      1.0000 0.76600  0.63800  0.44560  Biso   1.000  H
  H36      1.0000 0.70750  0.72450  0.47910  Biso   1.000  H
  H37      1.0000 0.51760  0.81060  0.49260  Biso   1.000  H
  H38      1.0000 0.56910  0.81770  0.48310  Biso   1.000  H
  H39      1.0000 0.62460  0.76980  0.47620  Biso   1.000  H
  H40      1.0000 0.57170  0.71070  0.49210  Biso   1.000  H
  H41      1.0000 0.71650  0.58210  0.49170  Biso   1.000  H
  H42      1.0000 0.66540  0.51800  0.52080  Biso   1.000  H
  H43      1.0000 0.61280  0.56580  0.51740  Biso   1.000  H
  H44      1.0000 0.60960  0.62440  0.50440  Biso   1.000  H
  H45      1.0000 0.73850  0.55790  0.42890  Biso   1.000  H
  H46      1.0000 0.72530  0.56690  0.38190  Biso   1.000  H
  H47      1.0000 0.72250  0.51830  0.37850  Biso   1.000  H
  H48      1.0000 0.74560  0.45560  0.47100  Biso   1.000  H
  H49      1.0000 0.18800  0.31320  0.04560  Biso   1.000  H
  H50      1.0000 0.14570  0.31830  0.10090  Biso   1.000  H
  H51      1.0000 0.13800  0.26600  0.15040  Biso   1.000  H
  H52      1.0000 0.22450  0.20750  0.08890  Biso   1.000  H
  H53      1.0000 0.31060  0.01760  0.17920  Biso   1.000  H
  H54      1.0000 0.31770  0.06910  0.13010  Biso   1.000  H
  H55      1.0000 0.26980  0.12460  0.12940  Biso   1.000  H
  H56      1.0000 0.21070  0.07170  0.22550  Biso   1.000  H
  H57      1.0000 0.08210  0.21650  0.20970  Biso   1.000  H
  H58      1.0000 0.01800  0.16540  0.29580  Biso   1.000  H
  H59      1.0000 0.06580  0.11280  0.30400  Biso   1.000  H
  H60      1.0000 0.12440  0.10960  0.26160  Biso   1.000  H
  H61      1.0000 0.05790  0.23850  0.27470  Biso   1.000  H
  H62      1.0000 0.06690  0.22530  0.32590  Biso   1.000  H
  H63      1.0000 0.01830  0.22250  0.38070  Biso   1.000  H
  H64      1.0000 0.95560  0.24560  0.32780  Biso   1.000  H
  H65      1.0000 0.95320  0.31320  0.68800  Biso   1.000  H
  H66      1.0000 0.93510  0.31830  0.64570  Biso   1.000  H
  H67      1.0000 0.94560  0.26600  0.63800  Biso   1.000  H
  H68      1.0000 0.97910  0.20750  0.72450  Biso   1.000  H
  H69      1.0000 0.99260  0.01760  0.81060  Biso   1.000  H
  H70      1.0000 0.98310  0.06910  0.81770  Biso   1.000  H
  H71      1.0000 0.97620  0.12460  0.76980  Biso   1.000  H
  H72      1.0000 0.99210  0.07170  0.71070  Biso   1.000  H
  H73      1.0000 0.99170  0.21650  0.58210  Biso   1.000  H
  H74      1.0000 0.02080  0.16540  0.51800  Biso   1.000  H
  H75      1.0000 0.01740  0.11280  0.56580  Biso   1.000  H
  H76      1.0000 0.00440  0.10960  0.62440  Biso   1.000  H
  H77      1.0000 0.92890  0.23850  0.55790  Biso   1.000  H
  H78      1.0000 0.88190  0.22530  0.56690  Biso   1.000  H
  H79      1.0000 0.87850  0.22250  0.51830  Biso   1.000  H
  H80      1.0000 0.97100  0.24560  0.45560  Biso   1.000  H
  H81      1.0000 0.54560  0.68800  0.31320  Biso   1.000  H
  H82      1.0000 0.60090  0.64570  0.31830  Biso   1.000  H
  H83      1.0000 0.65040  0.63800  0.26600  Biso   1.000  H
  H84      1.0000 0.58890  0.72450  0.20750  Biso   1.000  H
  H85      1.0000 0.67920  0.81060  0.01760  Biso   1.000  H
  H86      1.0000 0.63010  0.81770  0.06910  Biso   1.000  H
  H87      1.0000 0.62940  0.76980  0.12460  Biso   1.000  H
  H88      1.0000 0.72550  0.71070  0.07170  Biso   1.000  H
  H89      1.0000 0.70970  0.58210  0.21650  Biso   1.000  H
  H90      1.0000 0.79580  0.51800  0.16540  Biso   1.000  H
  H91      1.0000 0.80400  0.56580  0.11280  Biso   1.000  H
  H92      1.0000 0.76160  0.62440  0.10960  Biso   1.000  H
  H93      1.0000 0.77470  0.55790  0.23850  Biso   1.000  H
  H94      1.0000 0.82590  0.56690  0.22530  Biso   1.000  H
  H95      1.0000 0.88070  0.51830  0.22250  Biso   1.000  H
  H96      1.0000 0.82780  0.45560  0.24560  Biso   1.000  H
  H97      1.0000 0.81320  0.45320  0.04560  Biso   1.000  H
  H98      1.0000 0.81830  0.43510  0.10090  Biso   1.000  H
  H99      1.0000 0.76600  0.44560  0.15040  Biso   1.000  H
  H100     1.0000 0.70750  0.47910  0.08890  Biso   1.000  H
  H101     1.0000 0.51760  0.49260  0.17920  Biso   1.000  H
  H102     1.0000 0.56910  0.48310  0.13010  Biso   1.000  H
  H103     1.0000 0.62460  0.47620  0.12940  Biso   1.000  H
  H104     1.0000 0.57170  0.49210  0.22550  Biso   1.000  H
  H105     1.0000 0.71650  0.49170  0.20970  Biso   1.000  H
  H106     1.0000 0.66540  0.52080  0.29580  Biso   1.000  H
  H107     1.0000 0.61280  0.51740  0.30400  Biso   1.000  H
  H108     1.0000 0.60960  0.50440  0.26160  Biso   1.000  H
  H109     1.0000 0.73850  0.42890  0.27470  Biso   1.000  H
  H110     1.0000 0.72530  0.38190  0.32590  Biso   1.000  H
  H111     1.0000 0.72250  0.37850  0.38070  Biso   1.000  H
  H112     1.0000 0.74560  0.47100  0.32780  Biso   1.000  H
  H113     1.0000 0.18800  0.04560  0.45320  Biso   1.000  H
  H114     1.0000 0.14570  0.10090  0.43510  Biso   1.000  H
  H115     1.0000 0.13800  0.15040  0.44560  Biso   1.000  H
  H116     1.0000 0.22450  0.08890  0.47910  Biso   1.000  H
  H117     1.0000 0.31060  0.17920  0.49260  Biso   1.000  H
  H118     1.0000 0.31770  0.13010  0.48310  Biso   1.000  H
  H119     1.0000 0.26980  0.12940  0.47620  Biso   1.000  H
  H120     1.0000 0.21070  0.22550  0.49210  Biso   1.000  H
  H121     1.0000 0.08210  0.20970  0.49170  Biso   1.000  H
  H122     1.0000 0.01800  0.29580  0.52080  Biso   1.000  H
  H123     1.0000 0.06580  0.30400  0.51740  Biso   1.000  H
  H124     1.0000 0.12440  0.26160  0.50440  Biso   1.000  H
  H125     1.0000 0.05790  0.27470  0.42890  Biso   1.000  H
  H126     1.0000 0.06690  0.32590  0.38190  Biso   1.000  H
  H127     1.0000 0.01830  0.38070  0.37850  Biso   1.000  H
  H128     1.0000 0.95560  0.32780  0.47100  Biso   1.000  H
  H129     1.0000 0.95320  0.68800  0.04560  Biso   1.000  H
  H130     1.0000 0.93510  0.64570  0.10090  Biso   1.000  H
  H131     1.0000 0.94560  0.63800  0.15040  Biso   1.000  H
  H132     1.0000 0.97910  0.72450  0.08890  Biso   1.000  H
  H133     1.0000 0.99260  0.81060  0.17920  Biso   1.000  H
  H134     1.0000 0.98310  0.81770  0.13010  Biso   1.000  H
  H135     1.0000 0.97620  0.76980  0.12940  Biso   1.000  H
  H136     1.0000 0.99210  0.71070  0.22550  Biso   1.000  H
  H137     1.0000 0.99170  0.58210  0.20970  Biso   1.000  H
  H138     1.0000 0.02080  0.51800  0.29580  Biso   1.000  H
  H139     1.0000 0.01740  0.56580  0.30400  Biso   1.000  H
  H140     1.0000 0.00440  0.62440  0.26160  Biso   1.000  H
  H141     1.0000 0.92890  0.55790  0.27470  Biso   1.000  H
  H142     1.0000 0.88190  0.56690  0.32590  Biso   1.000  H
  H143     1.0000 0.87850  0.51830  0.38070  Biso   1.000  H
  H144     1.0000 0.97100  0.45560  0.32780  Biso   1.000  H
  H145     1.0000 0.54560  0.31320  0.45320  Biso   1.000  H
  H146     1.0000 0.60090  0.31830  0.43510  Biso   1.000  H
  H147     1.0000 0.65040  0.26600  0.44560  Biso   1.000  H
  H148     1.0000 0.58890  0.20750  0.47910  Biso   1.000  H
  H149     1.0000 0.67920  0.01760  0.49260  Biso   1.000  H
  H150     1.0000 0.63010  0.06910  0.48310  Biso   1.000  H
  H151     1.0000 0.62940  0.12460  0.47620  Biso   1.000  H
  H152     1.0000 0.72550  0.07170  0.49210  Biso   1.000  H
  H153     1.0000 0.70970  0.21650  0.49170  Biso   1.000  H
  H154     1.0000 0.79580  0.16540  0.52080  Biso   1.000  H
  H155     1.0000 0.80400  0.11280  0.51740  Biso   1.000  H
  H156     1.0000 0.76160  0.10960  0.50440  Biso   1.000  H
  H157     1.0000 0.77470  0.23850  0.42890  Biso   1.000  H
  H158     1.0000 0.82590  0.22530  0.38190  Biso   1.000  H
  H159     1.0000 0.88070  0.22250  0.37850  Biso   1.000  H
  H160     1.0000 0.82780  0.24560  0.47100  Biso   1.000  H
  H161     1.0000 0.81320  0.04560  0.68800  Biso   1.000  H
  H162     1.0000 0.81830  0.10090  0.64570  Biso   1.000  H
  H163     1.0000 0.76600  0.15040  0.63800  Biso   1.000  H
  H164     1.0000 0.70750  0.08890  0.72450  Biso   1.000  H
  H165     1.0000 0.51760  0.17920  0.81060  Biso   1.000  H
  H166     1.0000 0.56910  0.13010  0.81770  Biso   1.000  H
  H167     1.0000 0.62460  0.12940  0.76980  Biso   1.000  H
  H168     1.0000 0.57170  0.22550  0.71070  Biso   1.000  H
  H169     1.0000 0.71650  0.20970  0.58210  Biso   1.000  H
  H170     1.0000 0.66540  0.29580  0.51800  Biso   1.000  H
  H171     1.0000 0.61280  0.30400  0.56580  Biso   1.000  H
  H172     1.0000 0.60960  0.26160  0.62440  Biso   1.000  H
  H173     1.0000 0.73850  0.27470  0.55790  Biso   1.000  H
  H174     1.0000 0.72530  0.32590  0.56690  Biso   1.000  H
  H175     1.0000 0.72250  0.38070  0.51830  Biso   1.000  H
  H176     1.0000 0.74560  0.32780  0.45560  Biso   1.000  H
  H177     1.0000 0.18800  0.45320  0.31320  Biso   1.000  H
  H178     1.0000 0.14570  0.43510  0.31830  Biso   1.000  H
  H179     1.0000 0.13800  0.44560  0.26600  Biso   1.000  H
  H180     1.0000 0.22450  0.47910  0.20750  Biso   1.000  H
  H181     1.0000 0.31060  0.49260  0.01760  Biso   1.000  H
  H182     1.0000 0.31770  0.48310  0.06910  Biso   1.000  H
  H183     1.0000 0.26980  0.47620  0.12460  Biso   1.000  H
  H184     1.0000 0.21070  0.49210  0.07170  Biso   1.000  H
  H185     1.0000 0.08210  0.49170  0.21650  Biso   1.000  H
  H186     1.0000 0.01800  0.52080  0.16540  Biso   1.000  H
  H187     1.0000 0.06580  0.51740  0.11280  Biso   1.000  H
  H188     1.0000 0.12440  0.50440  0.10960  Biso   1.000  H
  H189     1.0000 0.05790  0.42890  0.23850  Biso   1.000  H
  H190     1.0000 0.06690  0.38190  0.22530  Biso   1.000  H
  H191     1.0000 0.01830  0.37850  0.22250  Biso   1.000  H
  H192     1.0000 0.95560  0.47100  0.24560  Biso   1.000  H
  H193     1.0000 0.95440  0.04680  0.18680  Biso   1.000  H
  H194     1.0000 0.89910  0.06490  0.18170  Biso   1.000  H
  H195     1.0000 0.84960  0.05440  0.23400  Biso   1.000  H
  H196     1.0000 0.91110  0.02090  0.29250  Biso   1.000  H
  H197     1.0000 0.82080  0.00740  0.48240  Biso   1.000  H
  H198     1.0000 0.86990  0.01690  0.43090  Biso   1.000  H
  H199     1.0000 0.87060  0.02380  0.37540  Biso   1.000  H
  H200     1.0000 0.77450  0.00790  0.42830  Biso   1.000  H
  H201     1.0000 0.79030  0.00830  0.28350  Biso   1.000  H
  H202     1.0000 0.70420  0.97920  0.33460  Biso   1.000  H
  H203     1.0000 0.69600  0.98260  0.38720  Biso   1.000  H
  H204     1.0000 0.73840  0.99560  0.39040  Biso   1.000  H
  H205     1.0000 0.72530  0.07110  0.26150  Biso   1.000  H
  H206     1.0000 0.67410  0.11810  0.27470  Biso   1.000  H
  H207     1.0000 0.61930  0.12150  0.27750  Biso   1.000  H
  H208     1.0000 0.67220  0.02900  0.25440  Biso   1.000  H
  H209     1.0000 0.54680  0.45440  0.81200  Biso   1.000  H
  H210     1.0000 0.56490  0.39910  0.85430  Biso   1.000  H
  H211     1.0000 0.55440  0.34960  0.86200  Biso   1.000  H
  H212     1.0000 0.52090  0.41110  0.77550  Biso   1.000  H
  H213     1.0000 0.50740  0.32080  0.68940  Biso   1.000  H
  H214     1.0000 0.51690  0.36990  0.68230  Biso   1.000  H
  H215     1.0000 0.52380  0.37060  0.73020  Biso   1.000  H
  H216     1.0000 0.50790  0.27450  0.78930  Biso   1.000  H
  H217     1.0000 0.50830  0.29030  0.91790  Biso   1.000  H
  H218     1.0000 0.47920  0.20420  0.98200  Biso   1.000  H
  H219     1.0000 0.48260  0.19600  0.93420  Biso   1.000  H
  H220     1.0000 0.49560  0.23840  0.87560  Biso   1.000  H
  H221     1.0000 0.57110  0.22530  0.94210  Biso   1.000  H
  H222     1.0000 0.61810  0.17410  0.93310  Biso   1.000  H
  H223     1.0000 0.62150  0.11930  0.98170  Biso   1.000  H
  H224     1.0000 0.52900  0.17220  0.04440  Biso   1.000  H
  H225     1.0000 0.31200  0.18680  0.04680  Biso   1.000  H
  H226     1.0000 0.35430  0.18170  0.06490  Biso   1.000  H
  H227     1.0000 0.36200  0.23400  0.05440  Biso   1.000  H
  H228     1.0000 0.27550  0.29250  0.02090  Biso   1.000  H
  H229     1.0000 0.18940  0.48240  0.00740  Biso   1.000  H
  H230     1.0000 0.18230  0.43090  0.01690  Biso   1.000  H
  H231     1.0000 0.23020  0.37540  0.02380  Biso   1.000  H
  H232     1.0000 0.28930  0.42830  0.00790  Biso   1.000  H
  H233     1.0000 0.41790  0.28350  0.00830  Biso   1.000  H
  H234     1.0000 0.48200  0.33460  0.97920  Biso   1.000  H
  H235     1.0000 0.43420  0.38720  0.98260  Biso   1.000  H
  H236     1.0000 0.37560  0.39040  0.99560  Biso   1.000  H
  H237     1.0000 0.44210  0.26150  0.07110  Biso   1.000  H
  H238     1.0000 0.43310  0.27470  0.11810  Biso   1.000  H
  H239     1.0000 0.48170  0.27750  0.12150  Biso   1.000  H
  H240     1.0000 0.54440  0.25440  0.02900  Biso   1.000  H
  H241     1.0000 0.68680  0.81200  0.45440  Biso   1.000  H
  H242     1.0000 0.68170  0.85430  0.39910  Biso   1.000  H
  H243     1.0000 0.73400  0.86200  0.34960  Biso   1.000  H
  H244     1.0000 0.79250  0.77550  0.41110  Biso   1.000  H
  H245     1.0000 0.98240  0.68940  0.32080  Biso   1.000  H
  H246     1.0000 0.93090  0.68230  0.36990  Biso   1.000  H
  H247     1.0000 0.87540  0.73020  0.37060  Biso   1.000  H
  H248     1.0000 0.92830  0.78930  0.27450  Biso   1.000  H
  H249     1.0000 0.78350  0.91790  0.29030  Biso   1.000  H
  H250     1.0000 0.83460  0.98200  0.20420  Biso   1.000  H
  H251     1.0000 0.88720  0.93420  0.19600  Biso   1.000  H
  H252     1.0000 0.89040  0.87560  0.23840  Biso   1.000  H
  H253     1.0000 0.76150  0.94210  0.22530  Biso   1.000  H
  H254     1.0000 0.77470  0.93310  0.17410  Biso   1.000  H
  H255     1.0000 0.77750  0.98170  0.11930  Biso   1.000  H
  H256     1.0000 0.75440  0.04440  0.17220  Biso   1.000  H
  H257     1.0000 0.68680  0.04680  0.81200  Biso   1.000  H
  H258     1.0000 0.68170  0.06490  0.85430  Biso   1.000  H
  H259     1.0000 0.73400  0.05440  0.86200  Biso   1.000  H
  H260     1.0000 0.79250  0.02090  0.77550  Biso   1.000  H
  H261     1.0000 0.98240  0.00740  0.68940  Biso   1.000  H
  H262     1.0000 0.93090  0.01690  0.68230  Biso   1.000  H
  H263     1.0000 0.87540  0.02380  0.73020  Biso   1.000  H
  H264     1.0000 0.92830  0.00790  0.78930  Biso   1.000  H
  H265     1.0000 0.78350  0.00830  0.91790  Biso   1.000  H
  H266     1.0000 0.83460  0.97920  0.98200  Biso   1.000  H
  H267     1.0000 0.88720  0.98260  0.93420  Biso   1.000  H
  H268     1.0000 0.89040  0.99560  0.87560  Biso   1.000  H
  H269     1.0000 0.76150  0.07110  0.94210  Biso   1.000  H
  H270     1.0000 0.77470  0.11810  0.93310  Biso   1.000  H
  H271     1.0000 0.77750  0.12150  0.98170  Biso   1.000  H
  H272     1.0000 0.75440  0.02900  0.04440  Biso   1.000  H
  H273     1.0000 0.31200  0.45440  0.18680  Biso   1.000  H
  H274     1.0000 0.35430  0.39910  0.18170  Biso   1.000  H
  H275     1.0000 0.36200  0.34960  0.23400  Biso   1.000  H
  H276     1.0000 0.27550  0.41110  0.29250  Biso   1.000  H
  H277     1.0000 0.18940  0.32080  0.48240  Biso   1.000  H
  H278     1.0000 0.18230  0.36990  0.43090  Biso   1.000  H
  H279     1.0000 0.23020  0.37060  0.37540  Biso   1.000  H
  H280     1.0000 0.28930  0.27450  0.42830  Biso   1.000  H
  H281     1.0000 0.41790  0.29030  0.28350  Biso   1.000  H
  H282     1.0000 0.48200  0.20420  0.33460  Biso   1.000  H
  H283     1.0000 0.43420  0.19600  0.38720  Biso   1.000  H
  H284     1.0000 0.37560  0.23840  0.39040  Biso   1.000  H
  H285     1.0000 0.44210  0.22530  0.26150  Biso   1.000  H
  H286     1.0000 0.43310  0.17410  0.27470  Biso   1.000  H
  H287     1.0000 0.48170  0.11930  0.27750  Biso   1.000  H
  H288     1.0000 0.54440  0.17220  0.25440  Biso   1.000  H
  H289     1.0000 0.54680  0.18680  0.45440  Biso   1.000  H
  H290     1.0000 0.56490  0.18170  0.39910  Biso   1.000  H
  H291     1.0000 0.55440  0.23400  0.34960  Biso   1.000  H
  H292     1.0000 0.52090  0.29250  0.41110  Biso   1.000  H
  H293     1.0000 0.50740  0.48240  0.32080  Biso   1.000  H
  H294     1.0000 0.51690  0.43090  0.36990  Biso   1.000  H
  H295     1.0000 0.52380  0.37540  0.37060  Biso   1.000  H
  H296     1.0000 0.50790  0.42830  0.27450  Biso   1.000  H
  H297     1.0000 0.50830  0.28350  0.29030  Biso   1.000  H
  H298     1.0000 0.47920  0.33460  0.20420  Biso   1.000  H
  H299     1.0000 0.48260  0.38720  0.19600  Biso   1.000  H
  H300     1.0000 0.49560  0.39040  0.23840  Biso   1.000  H
  H301     1.0000 0.57110  0.26150  0.22530  Biso   1.000  H
  H302     1.0000 0.61810  0.27470  0.17410  Biso   1.000  H
  H303     1.0000 0.62150  0.27750  0.11930  Biso   1.000  H
  H304     1.0000 0.52900  0.25440  0.17220  Biso   1.000  H
  H305     1.0000 0.95440  0.81200  0.04680  Biso   1.000  H
  H306     1.0000 0.89910  0.85430  0.06490  Biso   1.000  H
  H307     1.0000 0.84960  0.86200  0.05440  Biso   1.000  H
  H308     1.0000 0.91110  0.77550  0.02090  Biso   1.000  H
  H309     1.0000 0.82080  0.68940  0.00740  Biso   1.000  H
  H310     1.0000 0.86990  0.68230  0.01690  Biso   1.000  H
  H311     1.0000 0.87060  0.73020  0.02380  Biso   1.000  H
  H312     1.0000 0.77450  0.78930  0.00790  Biso   1.000  H
  H313     1.0000 0.79030  0.91790  0.00830  Biso   1.000  H
  H314     1.0000 0.70420  0.98200  0.97920  Biso   1.000  H
  H315     1.0000 0.69600  0.93420  0.98260  Biso   1.000  H
  H316     1.0000 0.73840  0.87560  0.99560  Biso   1.000  H
  H317     1.0000 0.72530  0.94210  0.07110  Biso   1.000  H
  H318     1.0000 0.67410  0.93310  0.11810  Biso   1.000  H
  H319     1.0000 0.61930  0.98170  0.12150  Biso   1.000  H
  H320     1.0000 0.67220  0.04440  0.02900  Biso   1.000  H
  H321     1.0000 0.31200  0.04680  0.45440  Biso   1.000  H
  H322     1.0000 0.35430  0.06490  0.39910  Biso   1.000  H
  H323     1.0000 0.36200  0.05440  0.34960  Biso   1.000  H
  H324     1.0000 0.27550  0.02090  0.41110  Biso   1.000  H
  H325     1.0000 0.18940  0.00740  0.32080  Biso   1.000  H
  H326     1.0000 0.18230  0.01690  0.36990  Biso   1.000  H
  H327     1.0000 0.23020  0.02380  0.37060  Biso   1.000  H
  H328     1.0000 0.28930  0.00790  0.27450  Biso   1.000  H
  H329     1.0000 0.41790  0.00830  0.29030  Biso   1.000  H
  H330     1.0000 0.48200  0.97920  0.20420  Biso   1.000  H
  H331     1.0000 0.43420  0.98260  0.19600  Biso   1.000  H
  H332     1.0000 0.37560  0.99560  0.23840  Biso   1.000  H
  H333     1.0000 0.44210  0.07110  0.22530  Biso   1.000  H
  H334     1.0000 0.43310  0.11810  0.17410  Biso   1.000  H
  H335     1.0000 0.48170  0.12150  0.11930  Biso   1.000  H
  H336     1.0000 0.54440  0.02900  0.17220  Biso   1.000  H
  H337     1.0000 0.68680  0.45440  0.04680  Biso   1.000  H
  H338     1.0000 0.68170  0.39910  0.06490  Biso   1.000  H
  H339     1.0000 0.73400  0.34960  0.05440  Biso   1.000  H
  H340     1.0000 0.79250  0.41110  0.02090  Biso   1.000  H
  H341     1.0000 0.98240  0.32080  0.00740  Biso   1.000  H
  H342     1.0000 0.93090  0.36990  0.01690  Biso   1.000  H
  H343     1.0000 0.87540  0.37060  0.02380  Biso   1.000  H
  H344     1.0000 0.92830  0.27450  0.00790  Biso   1.000  H
  H345     1.0000 0.78350  0.29030  0.00830  Biso   1.000  H
  H346     1.0000 0.83460  0.20420  0.97920  Biso   1.000  H
  H347     1.0000 0.88720  0.19600  0.98260  Biso   1.000  H
  H348     1.0000 0.89040  0.23840  0.99560  Biso   1.000  H
  H349     1.0000 0.76150  0.22530  0.07110  Biso   1.000  H
  H350     1.0000 0.77470  0.17410  0.11810  Biso   1.000  H
  H351     1.0000 0.77750  0.11930  0.12150  Biso   1.000  H
  H352     1.0000 0.75440  0.17220  0.02900  Biso   1.000  H
  H353     1.0000 0.95440  0.18680  0.81200  Biso   1.000  H
  H354     1.0000 0.89910  0.18170  0.85430  Biso   1.000  H
  H355     1.0000 0.84960  0.23400  0.86200  Biso   1.000  H
  H356     1.0000 0.91110  0.29250  0.77550  Biso   1.000  H
  H357     1.0000 0.82080  0.48240  0.68940  Biso   1.000  H
  H358     1.0000 0.86990  0.43090  0.68230  Biso   1.000  H
  H359     1.0000 0.87060  0.37540  0.73020  Biso   1.000  H
  H360     1.0000 0.77450  0.42830  0.78930  Biso   1.000  H
  H361     1.0000 0.79030  0.28350  0.91790  Biso   1.000  H
  H362     1.0000 0.70420  0.33460  0.98200  Biso   1.000  H
  H363     1.0000 0.69600  0.38720  0.93420  Biso   1.000  H
  H364     1.0000 0.73840  0.39040  0.87560  Biso   1.000  H
  H365     1.0000 0.72530  0.26150  0.94210  Biso   1.000  H
  H366     1.0000 0.67410  0.27470  0.93310  Biso   1.000  H
  H367     1.0000 0.61930  0.27750  0.98170  Biso   1.000  H
  H368     1.0000 0.67220  0.25440  0.04440  Biso   1.000  H
  H369     1.0000 0.54680  0.81200  0.18680  Biso   1.000  H
  H370     1.0000 0.56490  0.85430  0.18170  Biso   1.000  H
  H371     1.0000 0.55440  0.86200  0.23400  Biso   1.000  H
  H372     1.0000 0.52090  0.77550  0.29250  Biso   1.000  H
  H373     1.0000 0.50740  0.68940  0.48240  Biso   1.000  H
  H374     1.0000 0.51690  0.68230  0.43090  Biso   1.000  H
  H375     1.0000 0.52380  0.73020  0.37540  Biso   1.000  H
  H376     1.0000 0.50790  0.78930  0.42830  Biso   1.000  H
  H377     1.0000 0.50830  0.91790  0.28350  Biso   1.000  H
  H378     1.0000 0.47920  0.98200  0.33460  Biso   1.000  H
  H379     1.0000 0.48260  0.93420  0.38720  Biso   1.000  H
  H380     1.0000 0.49560  0.87560  0.39040  Biso   1.000  H
  H381     1.0000 0.57110  0.94210  0.26150  Biso   1.000  H
  H382     1.0000 0.61810  0.93310  0.27470  Biso   1.000  H
  H383     1.0000 0.62150  0.98170  0.27750  Biso   1.000  H
  H384     1.0000 0.52900  0.04440  0.25440  Biso   1.000  H
  H385     1.0000 0.04680  0.95440  0.68680  Biso   1.000  H
  H386     1.0000 0.06490  0.89910  0.68170  Biso   1.000  H
  H387     1.0000 0.05440  0.84960  0.73400  Biso   1.000  H
  H388     1.0000 0.02090  0.91110  0.79250  Biso   1.000  H
  H389     1.0000 0.00740  0.82080  0.98240  Biso   1.000  H
  H390     1.0000 0.01690  0.86990  0.93090  Biso   1.000  H
  H391     1.0000 0.02380  0.87060  0.87540  Biso   1.000  H
  H392     1.0000 0.00790  0.77450  0.92830  Biso   1.000  H
  H393     1.0000 0.00830  0.79030  0.78350  Biso   1.000  H
  H394     1.0000 0.97920  0.70420  0.83460  Biso   1.000  H
  H395     1.0000 0.98260  0.69600  0.88720  Biso   1.000  H
  H396     1.0000 0.99560  0.73840  0.89040  Biso   1.000  H
  H397     1.0000 0.07110  0.72530  0.76150  Biso   1.000  H
  H398     1.0000 0.11810  0.67410  0.77470  Biso   1.000  H
  H399     1.0000 0.12150  0.61930  0.77750  Biso   1.000  H
  H400     1.0000 0.02900  0.67220  0.75440  Biso   1.000  H
  H401     1.0000 0.45440  0.54680  0.31200  Biso   1.000  H
  H402     1.0000 0.39910  0.56490  0.35430  Biso   1.000  H
  H403     1.0000 0.34960  0.55440  0.36200  Biso   1.000  H
  H404     1.0000 0.41110  0.52090  0.27550  Biso   1.000  H
  H405     1.0000 0.32080  0.50740  0.18940  Biso   1.000  H
  H406     1.0000 0.36990  0.51690  0.18230  Biso   1.000  H
  H407     1.0000 0.37060  0.52380  0.23020  Biso   1.000  H
  H408     1.0000 0.27450  0.50790  0.28930  Biso   1.000  H
  H409     1.0000 0.29030  0.50830  0.41790  Biso   1.000  H
  H410     1.0000 0.20420  0.47920  0.48200  Biso   1.000  H
  H411     1.0000 0.19600  0.48260  0.43420  Biso   1.000  H
  H412     1.0000 0.23840  0.49560  0.37560  Biso   1.000  H
  H413     1.0000 0.22530  0.57110  0.44210  Biso   1.000  H
  H414     1.0000 0.17410  0.61810  0.43310  Biso   1.000  H
  H415     1.0000 0.11930  0.62150  0.48170  Biso   1.000  H
  H416     1.0000 0.17220  0.52900  0.54440  Biso   1.000  H
  H417     1.0000 0.18680  0.31200  0.54680  Biso   1.000  H
  H418     1.0000 0.18170  0.35430  0.56490  Biso   1.000  H
  H419     1.0000 0.23400  0.36200  0.55440  Biso   1.000  H
  H420     1.0000 0.29250  0.27550  0.52090  Biso   1.000  H
  H421     1.0000 0.48240  0.18940  0.50740  Biso   1.000  H
  H422     1.0000 0.43090  0.18230  0.51690  Biso   1.000  H
  H423     1.0000 0.37540  0.23020  0.52380  Biso   1.000  H
  H424     1.0000 0.42830  0.28930  0.50790  Biso   1.000  H
  H425     1.0000 0.28350  0.41790  0.50830  Biso   1.000  H
  H426     1.0000 0.33460  0.48200  0.47920  Biso   1.000  H
  H427     1.0000 0.38720  0.43420  0.48260  Biso   1.000  H
  H428     1.0000 0.39040  0.37560  0.49560  Biso   1.000  H
  H429     1.0000 0.26150  0.44210  0.57110  Biso   1.000  H
  H430     1.0000 0.27470  0.43310  0.61810  Biso   1.000  H
  H431     1.0000 0.27750  0.48170  0.62150  Biso   1.000  H
  H432     1.0000 0.25440  0.54440  0.52900  Biso   1.000  H
  H433     1.0000 0.81200  0.68680  0.95440  Biso   1.000  H
  H434     1.0000 0.85430  0.68170  0.89910  Biso   1.000  H
  H435     1.0000 0.86200  0.73400  0.84960  Biso   1.000  H
  H436     1.0000 0.77550  0.79250  0.91110  Biso   1.000  H
  H437     1.0000 0.68940  0.98240  0.82080  Biso   1.000  H
  H438     1.0000 0.68230  0.93090  0.86990  Biso   1.000  H
  H439     1.0000 0.73020  0.87540  0.87060  Biso   1.000  H
  H440     1.0000 0.78930  0.92830  0.77450  Biso   1.000  H
  H441     1.0000 0.91790  0.78350  0.79030  Biso   1.000  H
  H442     1.0000 0.98200  0.83460  0.70420  Biso   1.000  H
  H443     1.0000 0.93420  0.88720  0.69600  Biso   1.000  H
  H444     1.0000 0.87560  0.89040  0.73840  Biso   1.000  H
  H445     1.0000 0.94210  0.76150  0.72530  Biso   1.000  H
  H446     1.0000 0.93310  0.77470  0.67410  Biso   1.000  H
  H447     1.0000 0.98170  0.77750  0.61930  Biso   1.000  H
  H448     1.0000 0.04440  0.75440  0.67220  Biso   1.000  H
  H449     1.0000 0.04680  0.68680  0.31200  Biso   1.000  H
  H450     1.0000 0.06490  0.68170  0.35430  Biso   1.000  H
  H451     1.0000 0.05440  0.73400  0.36200  Biso   1.000  H
  H452     1.0000 0.02090  0.79250  0.27550  Biso   1.000  H
  H453     1.0000 0.00740  0.98240  0.18940  Biso   1.000  H
  H454     1.0000 0.01690  0.93090  0.18230  Biso   1.000  H
  H455     1.0000 0.02380  0.87540  0.23020  Biso   1.000  H
  H456     1.0000 0.00790  0.92830  0.28930  Biso   1.000  H
  H457     1.0000 0.00830  0.78350  0.41790  Biso   1.000  H
  H458     1.0000 0.97920  0.83460  0.48200  Biso   1.000  H
  H459     1.0000 0.98260  0.88720  0.43420  Biso   1.000  H
  H460     1.0000 0.99560  0.89040  0.37560  Biso   1.000  H
  H461     1.0000 0.07110  0.76150  0.44210  Biso   1.000  H
  H462     1.0000 0.11810  0.77470  0.43310  Biso   1.000  H
  H463     1.0000 0.12150  0.77750  0.48170  Biso   1.000  H
  H464     1.0000 0.02900  0.75440  0.54440  Biso   1.000  H
  H465     1.0000 0.45440  0.31200  0.68680  Biso   1.000  H
  H466     1.0000 0.39910  0.35430  0.68170  Biso   1.000  H
  H467     1.0000 0.34960  0.36200  0.73400  Biso   1.000  H
  H468     1.0000 0.41110  0.27550  0.79250  Biso   1.000  H
  H469     1.0000 0.32080  0.18940  0.98240  Biso   1.000  H
  H470     1.0000 0.36990  0.18230  0.93090  Biso   1.000  H
  H471     1.0000 0.37060  0.23020  0.87540  Biso   1.000  H
  H472     1.0000 0.27450  0.28930  0.92830  Biso   1.000  H
  H473     1.0000 0.29030  0.41790  0.78350  Biso   1.000  H
  H474     1.0000 0.20420  0.48200  0.83460  Biso   1.000  H
  H475     1.0000 0.19600  0.43420  0.88720  Biso   1.000  H
  H476     1.0000 0.23840  0.37560  0.89040  Biso   1.000  H
  H477     1.0000 0.22530  0.44210  0.76150  Biso   1.000  H
  H478     1.0000 0.17410  0.43310  0.77470  Biso   1.000  H
  H479     1.0000 0.11930  0.48170  0.77750  Biso   1.000  H
  H480     1.0000 0.17220  0.54440  0.75440  Biso   1.000  H
  H481     1.0000 0.18680  0.54680  0.95440  Biso   1.000  H
  H482     1.0000 0.18170  0.56490  0.89910  Biso   1.000  H
  H483     1.0000 0.23400  0.55440  0.84960  Biso   1.000  H
  H484     1.0000 0.29250  0.52090  0.91110  Biso   1.000  H
  H485     1.0000 0.48240  0.50740  0.82080  Biso   1.000  H
  H486     1.0000 0.43090  0.51690  0.86990  Biso   1.000  H
  H487     1.0000 0.37540  0.52380  0.87060  Biso   1.000  H
  H488     1.0000 0.42830  0.50790  0.77450  Biso   1.000  H
  H489     1.0000 0.28350  0.50830  0.79030  Biso   1.000  H
  H490     1.0000 0.33460  0.47920  0.70420  Biso   1.000  H
  H491     1.0000 0.38720  0.48260  0.69600  Biso   1.000  H
  H492     1.0000 0.39040  0.49560  0.73840  Biso   1.000  H
  H493     1.0000 0.26150  0.57110  0.72530  Biso   1.000  H
  H494     1.0000 0.27470  0.61810  0.67410  Biso   1.000  H
  H495     1.0000 0.27750  0.62150  0.61930  Biso   1.000  H
  H496     1.0000 0.25440  0.52900  0.67220  Biso   1.000  H
  H497     1.0000 0.81200  0.95440  0.54680  Biso   1.000  H
  H498     1.0000 0.85430  0.89910  0.56490  Biso   1.000  H
  H499     1.0000 0.86200  0.84960  0.55440  Biso   1.000  H
  H500     1.0000 0.77550  0.91110  0.52090  Biso   1.000  H
  H501     1.0000 0.68940  0.82080  0.50740  Biso   1.000  H
  H502     1.0000 0.68230  0.86990  0.51690  Biso   1.000  H
  H503     1.0000 0.73020  0.87060  0.52380  Biso   1.000  H
  H504     1.0000 0.78930  0.77450  0.50790  Biso   1.000  H
  H505     1.0000 0.91790  0.79030  0.50830  Biso   1.000  H
  H506     1.0000 0.98200  0.70420  0.47920  Biso   1.000  H
  H507     1.0000 0.93420  0.69600  0.48260  Biso   1.000  H
  H508     1.0000 0.87560  0.73840  0.49560  Biso   1.000  H
  H509     1.0000 0.94210  0.72530  0.57110  Biso   1.000  H
  H510     1.0000 0.93310  0.67410  0.61810  Biso   1.000  H
  H511     1.0000 0.98170  0.61930  0.62150  Biso   1.000  H
  H512     1.0000 0.04440  0.67220  0.52900  Biso   1.000  H
  H513     1.0000 0.04680  0.31200  0.95440  Biso   1.000  H
  H514     1.0000 0.06490  0.35430  0.89910  Biso   1.000  H
  H515     1.0000 0.05440  0.36200  0.84960  Biso   1.000  H
  H516     1.0000 0.02090  0.27550  0.91110  Biso   1.000  H
  H517     1.0000 0.00740  0.18940  0.82080  Biso   1.000  H
  H518     1.0000 0.01690  0.18230  0.86990  Biso   1.000  H
  H519     1.0000 0.02380  0.23020  0.87060  Biso   1.000  H
  H520     1.0000 0.00790  0.28930  0.77450  Biso   1.000  H
  H521     1.0000 0.00830  0.41790  0.79030  Biso   1.000  H
  H522     1.0000 0.97920  0.48200  0.70420  Biso   1.000  H
  H523     1.0000 0.98260  0.43420  0.69600  Biso   1.000  H
  H524     1.0000 0.99560  0.37560  0.73840  Biso   1.000  H
  H525     1.0000 0.07110  0.44210  0.72530  Biso   1.000  H
  H526     1.0000 0.11810  0.43310  0.67410  Biso   1.000  H
  H527     1.0000 0.12150  0.48170  0.61930  Biso   1.000  H
  H528     1.0000 0.02900  0.54440  0.67220  Biso   1.000  H
  H529     1.0000 0.45440  0.68680  0.54680  Biso   1.000  H
  H530     1.0000 0.39910  0.68170  0.56490  Biso   1.000  H
  H531     1.0000 0.34960  0.73400  0.55440  Biso   1.000  H
  H532     1.0000 0.41110  0.79250  0.52090  Biso   1.000  H
  H533     1.0000 0.32080  0.98240  0.50740  Biso   1.000  H
  H534     1.0000 0.36990  0.93090  0.51690  Biso   1.000  H
  H535     1.0000 0.37060  0.87540  0.52380  Biso   1.000  H
  H536     1.0000 0.27450  0.92830  0.50790  Biso   1.000  H
  H537     1.0000 0.29030  0.78350  0.50830  Biso   1.000  H
  H538     1.0000 0.20420  0.83460  0.47920  Biso   1.000  H
  H539     1.0000 0.19600  0.88720  0.48260  Biso   1.000  H
  H540     1.0000 0.23840  0.89040  0.49560  Biso   1.000  H
  H541     1.0000 0.22530  0.76150  0.57110  Biso   1.000  H
  H542     1.0000 0.17410  0.77470  0.61810  Biso   1.000  H
  H543     1.0000 0.11930  0.77750  0.62150  Biso   1.000  H
  H544     1.0000 0.17220  0.75440  0.52900  Biso   1.000  H
  H545     1.0000 0.18680  0.95440  0.31200  Biso   1.000  H
  H546     1.0000 0.18170  0.89910  0.35430  Biso   1.000  H
  H547     1.0000 0.23400  0.84960  0.36200  Biso   1.000  H
  H548     1.0000 0.29250  0.91110  0.27550  Biso   1.000  H
  H549     1.0000 0.48240  0.82080  0.18940  Biso   1.000  H
  H550     1.0000 0.43090  0.86990  0.18230  Biso   1.000  H
  H551     1.0000 0.37540  0.87060  0.23020  Biso   1.000  H
  H552     1.0000 0.42830  0.77450  0.28930  Biso   1.000  H
  H553     1.0000 0.28350  0.79030  0.41790  Biso   1.000  H
  H554     1.0000 0.33460  0.70420  0.48200  Biso   1.000  H
  H555     1.0000 0.38720  0.69600  0.43420  Biso   1.000  H
  H556     1.0000 0.39040  0.73840  0.37560  Biso   1.000  H
  H557     1.0000 0.26150  0.72530  0.44210  Biso   1.000  H
  H558     1.0000 0.27470  0.67410  0.43310  Biso   1.000  H
  H559     1.0000 0.27750  0.61930  0.48170  Biso   1.000  H
  H560     1.0000 0.25440  0.67220  0.54440  Biso   1.000  H
  H561     1.0000 0.81200  0.54680  0.68680  Biso   1.000  H
  H562     1.0000 0.85430  0.56490  0.68170  Biso   1.000  H
  H563     1.0000 0.86200  0.55440  0.73400  Biso   1.000  H
  H564     1.0000 0.77550  0.52090  0.79250  Biso   1.000  H
  H565     1.0000 0.68940  0.50740  0.98240  Biso   1.000  H
  H566     1.0000 0.68230  0.51690  0.93090  Biso   1.000  H
  H567     1.0000 0.73020  0.52380  0.87540  Biso   1.000  H
  H568     1.0000 0.78930  0.50790  0.92830  Biso   1.000  H
  H569     1.0000 0.91790  0.50830  0.78350  Biso   1.000  H
  H570     1.0000 0.98200  0.47920  0.83460  Biso   1.000  H
  H571     1.0000 0.93420  0.48260  0.88720  Biso   1.000  H
  H572     1.0000 0.87560  0.49560  0.89040  Biso   1.000  H
  H573     1.0000 0.94210  0.57110  0.76150  Biso   1.000  H
  H574     1.0000 0.93310  0.61810  0.77470  Biso   1.000  H
  H575     1.0000 0.98170  0.62150  0.77750  Biso   1.000  H
  H576     1.0000 0.04440  0.52900  0.75440  Biso   1.000  H
  H577     1.0000 0.04560  0.95320  0.81320  Biso   1.000  H
  H578     1.0000 0.10090  0.93510  0.81830  Biso   1.000  H
  H579     1.0000 0.15040  0.94560  0.76600  Biso   1.000  H
  H580     1.0000 0.08890  0.97910  0.70750  Biso   1.000  H
  H581     1.0000 0.17920  0.99260  0.51760  Biso   1.000  H
  H582     1.0000 0.13010  0.98310  0.56910  Biso   1.000  H
  H583     1.0000 0.12940  0.97620  0.62460  Biso   1.000  H
  H584     1.0000 0.22550  0.99210  0.57170  Biso   1.000  H
  H585     1.0000 0.20970  0.99170  0.71650  Biso   1.000  H
  H586     1.0000 0.29580  0.02080  0.66540  Biso   1.000  H
  H587     1.0000 0.30400  0.01740  0.61280  Biso   1.000  H
  H588     1.0000 0.26160  0.00440  0.60960  Biso   1.000  H
  H589     1.0000 0.27470  0.92890  0.73850  Biso   1.000  H
  H590     1.0000 0.32590  0.88190  0.72530  Biso   1.000  H
  H591     1.0000 0.38070  0.87850  0.72250  Biso   1.000  H
  H592     1.0000 0.32780  0.97100  0.74560  Biso   1.000  H
  H593     1.0000 0.45320  0.54560  0.18800  Biso   1.000  H
  H594     1.0000 0.43510  0.60090  0.14570  Biso   1.000  H
  H595     1.0000 0.44560  0.65040  0.13800  Biso   1.000  H
  H596     1.0000 0.47910  0.58890  0.22450  Biso   1.000  H
  H597     1.0000 0.49260  0.67920  0.31060  Biso   1.000  H
  H598     1.0000 0.48310  0.63010  0.31770  Biso   1.000  H
  H599     1.0000 0.47620  0.62940  0.26980  Biso   1.000  H
  H600     1.0000 0.49210  0.72550  0.21070  Biso   1.000  H
  H601     1.0000 0.49170  0.70970  0.08210  Biso   1.000  H
  H602     1.0000 0.52080  0.79580  0.01800  Biso   1.000  H
  H603     1.0000 0.51740  0.80400  0.06580  Biso   1.000  H
  H604     1.0000 0.50440  0.76160  0.12440  Biso   1.000  H
  H605     1.0000 0.42890  0.77470  0.05790  Biso   1.000  H
  H606     1.0000 0.38190  0.82590  0.06690  Biso   1.000  H
  H607     1.0000 0.37850  0.88070  0.01830  Biso   1.000  H
  H608     1.0000 0.47100  0.82780  0.95560  Biso   1.000  H
  H609     1.0000 0.68800  0.81320  0.95320  Biso   1.000  H
  H610     1.0000 0.64570  0.81830  0.93510  Biso   1.000  H
  H611     1.0000 0.63800  0.76600  0.94560  Biso   1.000  H
  H612     1.0000 0.72450  0.70750  0.97910  Biso   1.000  H
  H613     1.0000 0.81060  0.51760  0.99260  Biso   1.000  H
  H614     1.0000 0.81770  0.56910  0.98310  Biso   1.000  H
  H615     1.0000 0.76980  0.62460  0.97620  Biso   1.000  H
  H616     1.0000 0.71070  0.57170  0.99210  Biso   1.000  H
  H617     1.0000 0.58210  0.71650  0.99170  Biso   1.000  H
  H618     1.0000 0.51800  0.66540  0.02080  Biso   1.000  H
  H619     1.0000 0.56580  0.61280  0.01740  Biso   1.000  H
  H620     1.0000 0.62440  0.60960  0.00440  Biso   1.000  H
  H621     1.0000 0.55790  0.73850  0.92890  Biso   1.000  H
  H622     1.0000 0.56690  0.72530  0.88190  Biso   1.000  H
  H623     1.0000 0.51830  0.72250  0.87850  Biso   1.000  H
  H624     1.0000 0.45560  0.74560  0.97100  Biso   1.000  H
  H625     1.0000 0.31320  0.18800  0.54560  Biso   1.000  H
  H626     1.0000 0.31830  0.14570  0.60090  Biso   1.000  H
  H627     1.0000 0.26600  0.13800  0.65040  Biso   1.000  H
  H628     1.0000 0.20750  0.22450  0.58890  Biso   1.000  H
  H629     1.0000 0.01760  0.31060  0.67920  Biso   1.000  H
  H630     1.0000 0.06910  0.31770  0.63010  Biso   1.000  H
  H631     1.0000 0.12460  0.26980  0.62940  Biso   1.000  H
  H632     1.0000 0.07170  0.21070  0.72550  Biso   1.000  H
  H633     1.0000 0.21650  0.08210  0.70970  Biso   1.000  H
  H634     1.0000 0.16540  0.01800  0.79580  Biso   1.000  H
  H635     1.0000 0.11280  0.06580  0.80400  Biso   1.000  H
  H636     1.0000 0.10960  0.12440  0.76160  Biso   1.000  H
  H637     1.0000 0.23850  0.05790  0.77470  Biso   1.000  H
  H638     1.0000 0.22530  0.06690  0.82590  Biso   1.000  H
  H639     1.0000 0.22250  0.01830  0.88070  Biso   1.000  H
  H640     1.0000 0.24560  0.95560  0.82780  Biso   1.000  H
  H641     1.0000 0.31320  0.95320  0.18800  Biso   1.000  H
  H642     1.0000 0.31830  0.93510  0.14570  Biso   1.000  H
  H643     1.0000 0.26600  0.94560  0.13800  Biso   1.000  H
  H644     1.0000 0.20750  0.97910  0.22450  Biso   1.000  H
  H645     1.0000 0.01760  0.99260  0.31060  Biso   1.000  H
  H646     1.0000 0.06910  0.98310  0.31770  Biso   1.000  H
  H647     1.0000 0.12460  0.97620  0.26980  Biso   1.000  H
  H648     1.0000 0.07170  0.99210  0.21070  Biso   1.000  H
  H649     1.0000 0.21650  0.99170  0.08210  Biso   1.000  H
  H650     1.0000 0.16540  0.02080  0.01800  Biso   1.000  H
  H651     1.0000 0.11280  0.01740  0.06580  Biso   1.000  H
  H652     1.0000 0.10960  0.00440  0.12440  Biso   1.000  H
  H653     1.0000 0.23850  0.92890  0.05790  Biso   1.000  H
  H654     1.0000 0.22530  0.88190  0.06690  Biso   1.000  H
  H655     1.0000 0.22250  0.87850  0.01830  Biso   1.000  H
  H656     1.0000 0.24560  0.97100  0.95560  Biso   1.000  H
  H657     1.0000 0.68800  0.54560  0.81320  Biso   1.000  H
  H658     1.0000 0.64570  0.60090  0.81830  Biso   1.000  H
  H659     1.0000 0.63800  0.65040  0.76600  Biso   1.000  H
  H660     1.0000 0.72450  0.58890  0.70750  Biso   1.000  H
  H661     1.0000 0.81060  0.67920  0.51760  Biso   1.000  H
  H662     1.0000 0.81770  0.63010  0.56910  Biso   1.000  H
  H663     1.0000 0.76980  0.62940  0.62460  Biso   1.000  H
  H664     1.0000 0.71070  0.72550  0.57170  Biso   1.000  H
  H665     1.0000 0.58210  0.70970  0.71650  Biso   1.000  H
  H666     1.0000 0.51800  0.79580  0.66540  Biso   1.000  H
  H667     1.0000 0.56580  0.80400  0.61280  Biso   1.000  H
  H668     1.0000 0.62440  0.76160  0.60960  Biso   1.000  H
  H669     1.0000 0.55790  0.77470  0.73850  Biso   1.000  H
  H670     1.0000 0.56690  0.82590  0.72530  Biso   1.000  H
  H671     1.0000 0.51830  0.88070  0.72250  Biso   1.000  H
  H672     1.0000 0.45560  0.82780  0.74560  Biso   1.000  H
  H673     1.0000 0.45320  0.81320  0.54560  Biso   1.000  H
  H674     1.0000 0.43510  0.81830  0.60090  Biso   1.000  H
  H675     1.0000 0.44560  0.76600  0.65040  Biso   1.000  H
  H676     1.0000 0.47910  0.70750  0.58890  Biso   1.000  H
  H677     1.0000 0.49260  0.51760  0.67920  Biso   1.000  H
  H678     1.0000 0.48310  0.56910  0.63010  Biso   1.000  H
  H679     1.0000 0.47620  0.62460  0.62940  Biso   1.000  H
  H680     1.0000 0.49210  0.57170  0.72550  Biso   1.000  H
  H681     1.0000 0.49170  0.71650  0.70970  Biso   1.000  H
  H682     1.0000 0.52080  0.66540  0.79580  Biso   1.000  H
  H683     1.0000 0.51740  0.61280  0.80400  Biso   1.000  H
  H684     1.0000 0.50440  0.60960  0.76160  Biso   1.000  H
  H685     1.0000 0.42890  0.73850  0.77470  Biso   1.000  H
  H686     1.0000 0.38190  0.72530  0.82590  Biso   1.000  H
  H687     1.0000 0.37850  0.72250  0.88070  Biso   1.000  H
  H688     1.0000 0.47100  0.74560  0.82780  Biso   1.000  H
  H689     1.0000 0.04560  0.18800  0.95320  Biso   1.000  H
  H690     1.0000 0.10090  0.14570  0.93510  Biso   1.000  H
  H691     1.0000 0.15040  0.13800  0.94560  Biso   1.000  H
  H692     1.0000 0.08890  0.22450  0.97910  Biso   1.000  H
  H693     1.0000 0.17920  0.31060  0.99260  Biso   1.000  H
  H694     1.0000 0.13010  0.31770  0.98310  Biso   1.000  H
  H695     1.0000 0.12940  0.26980  0.97620  Biso   1.000  H
  H696     1.0000 0.22550  0.21070  0.99210  Biso   1.000  H
  H697     1.0000 0.20970  0.08210  0.99170  Biso   1.000  H
  H698     1.0000 0.29580  0.01800  0.02080  Biso   1.000  H
  H699     1.0000 0.30400  0.06580  0.01740  Biso   1.000  H
  H700     1.0000 0.26160  0.12440  0.00440  Biso   1.000  H
  H701     1.0000 0.27470  0.05790  0.92890  Biso   1.000  H
  H702     1.0000 0.32590  0.06690  0.88190  Biso   1.000  H
  H703     1.0000 0.38070  0.01830  0.87850  Biso   1.000  H
  H704     1.0000 0.32780  0.95560  0.97100  Biso   1.000  H
  H705     1.0000 0.68800  0.95320  0.54560  Biso   1.000  H
  H706     1.0000 0.64570  0.93510  0.60090  Biso   1.000  H
  H707     1.0000 0.63800  0.94560  0.65040  Biso   1.000  H
  H708     1.0000 0.72450  0.97910  0.58890  Biso   1.000  H
  H709     1.0000 0.81060  0.99260  0.67920  Biso   1.000  H
  H710     1.0000 0.81770  0.98310  0.63010  Biso   1.000  H
  H711     1.0000 0.76980  0.97620  0.62940  Biso   1.000  H
  H712     1.0000 0.71070  0.99210  0.72550  Biso   1.000  H
  H713     1.0000 0.58210  0.99170  0.70970  Biso   1.000  H
  H714     1.0000 0.51800  0.02080  0.79580  Biso   1.000  H
  H715     1.0000 0.56580  0.01740  0.80400  Biso   1.000  H
  H716     1.0000 0.62440  0.00440  0.76160  Biso   1.000  H
  H717     1.0000 0.55790  0.92890  0.77470  Biso   1.000  H
  H718     1.0000 0.56690  0.88190  0.82590  Biso   1.000  H
  H719     1.0000 0.51830  0.87850  0.88070  Biso   1.000  H
  H720     1.0000 0.45560  0.97100  0.82780  Biso   1.000  H
  H721     1.0000 0.31320  0.54560  0.95320  Biso   1.000  H
  H722     1.0000 0.31830  0.60090  0.93510  Biso   1.000  H
  H723     1.0000 0.26600  0.65040  0.94560  Biso   1.000  H
  H724     1.0000 0.20750  0.58890  0.97910  Biso   1.000  H
  H725     1.0000 0.01760  0.67920  0.99260  Biso   1.000  H
  H726     1.0000 0.06910  0.63010  0.98310  Biso   1.000  H
  H727     1.0000 0.12460  0.62940  0.97620  Biso   1.000  H
  H728     1.0000 0.07170  0.72550  0.99210  Biso   1.000  H
  H729     1.0000 0.21650  0.70970  0.99170  Biso   1.000  H
  H730     1.0000 0.16540  0.79580  0.02080  Biso   1.000  H
  H731     1.0000 0.11280  0.80400  0.01740  Biso   1.000  H
  H732     1.0000 0.10960  0.76160  0.00440  Biso   1.000  H
  H733     1.0000 0.23850  0.77470  0.92890  Biso   1.000  H
  H734     1.0000 0.22530  0.82590  0.88190  Biso   1.000  H
  H735     1.0000 0.22250  0.88070  0.87850  Biso   1.000  H
  H736     1.0000 0.24560  0.82780  0.97100  Biso   1.000  H
  H737     1.0000 0.04560  0.81320  0.18800  Biso   1.000  H
  H738     1.0000 0.10090  0.81830  0.14570  Biso   1.000  H
  H739     1.0000 0.15040  0.76600  0.13800  Biso   1.000  H
  H740     1.0000 0.08890  0.70750  0.22450  Biso   1.000  H
  H741     1.0000 0.17920  0.51760  0.31060  Biso   1.000  H
  H742     1.0000 0.13010  0.56910  0.31770  Biso   1.000  H
  H743     1.0000 0.12940  0.62460  0.26980  Biso   1.000  H
  H744     1.0000 0.22550  0.57170  0.21070  Biso   1.000  H
  H745     1.0000 0.20970  0.71650  0.08210  Biso   1.000  H
  H746     1.0000 0.29580  0.66540  0.01800  Biso   1.000  H
  H747     1.0000 0.30400  0.61280  0.06580  Biso   1.000  H
  H748     1.0000 0.26160  0.60960  0.12440  Biso   1.000  H
  H749     1.0000 0.27470  0.73850  0.05790  Biso   1.000  H
  H750     1.0000 0.32590  0.72530  0.06690  Biso   1.000  H
  H751     1.0000 0.38070  0.72250  0.01830  Biso   1.000  H
  H752     1.0000 0.32780  0.74560  0.95560  Biso   1.000  H
  H753     1.0000 0.45320  0.18800  0.81320  Biso   1.000  H
  H754     1.0000 0.43510  0.14570  0.81830  Biso   1.000  H
  H755     1.0000 0.44560  0.13800  0.76600  Biso   1.000  H
  H756     1.0000 0.47910  0.22450  0.70750  Biso   1.000  H
  H757     1.0000 0.49260  0.31060  0.51760  Biso   1.000  H
  H758     1.0000 0.48310  0.31770  0.56910  Biso   1.000  H
  H759     1.0000 0.47620  0.26980  0.62460  Biso   1.000  H
  H760     1.0000 0.49210  0.21070  0.57170  Biso   1.000  H
  H761     1.0000 0.49170  0.08210  0.71650  Biso   1.000  H
  H762     1.0000 0.52080  0.01800  0.66540  Biso   1.000  H
  H763     1.0000 0.51740  0.06580  0.61280  Biso   1.000  H
  H764     1.0000 0.50440  0.12440  0.60960  Biso   1.000  H
  H765     1.0000 0.42890  0.05790  0.73850  Biso   1.000  H
  H766     1.0000 0.38190  0.06690  0.72530  Biso   1.000  H
  H767     1.0000 0.37850  0.01830  0.72250  Biso   1.000  H
  H768     1.0000 0.47100  0.95560  0.74560  Biso   1.000  H
  C1       1.0000 0.96014  0.97778  0.33582  Biso   1.000  C
  C2       1.0000 0.95563  0.06597  0.29189  Biso   1.000  C
  C3       1.0000 0.94545  0.09869  0.29515  Biso   1.000  C
  C4       1.0000 0.95054  0.12820  0.26438  Biso   1.000  C
  C5       1.0000 0.96292  0.12450  0.23134  Biso   1.000  C
  C6       1.0000 0.97127  0.09105  0.23033  Biso   1.000  C
  C7       1.0000 0.99074  0.17884  0.03960  Biso   1.000  C
  C8       1.0000 0.98472  0.14956  0.07024  Biso   1.000  C
  C9       1.0000 0.98100  0.14894  0.10294  Biso   1.000  C
  C10      1.0000 0.98447  0.17761  0.10311  Biso   1.000  C
  C11      1.0000 0.99044  0.20568  0.07124  Biso   1.000  C
  C12      1.0000 0.98168  0.17822  0.13674  Biso   1.000  C
  C13      1.0000 0.97074  0.15396  0.19686  Biso   1.000  C
  C14      1.0000 0.98535  0.20421  0.16535  Biso   1.000  C
  C15      1.0000 0.99530  0.23138  0.16406  Biso   1.000  C
  C16      1.0000 0.99704  0.22904  0.19490  Biso   1.000  C
  C17      1.0000 0.01386  0.27930  0.16514  Biso   1.000  C
  C18      1.0000 0.01253  0.28389  0.13365  Biso   1.000  C
  C19      1.0000 0.00412  0.25946  0.13176  Biso   1.000  C
  C20      1.0000 0.94580  0.20458  0.29678  Biso   1.000  C
  C21      1.0000 0.92796  0.29678  0.23712  Biso   1.000  C
  C22      1.0000 0.89995  0.32683  0.22955  Biso   1.000  C
  C23      1.0000 0.89782  0.35918  0.22808  Biso   1.000  C
  C24      1.0000 0.92419  0.35955  0.23481  Biso   1.000  C
  C25      1.0000 0.95253  0.32753  0.24161  Biso   1.000  C
  C26      1.0000 0.92344  0.39310  0.23356  Biso   1.000  C
  C27      1.0000 0.47778  0.46014  0.72626  Biso   1.000  C
  C28      1.0000 0.56597  0.45563  0.68651  Biso   1.000  C
  C29      1.0000 0.59869  0.44545  0.66071  Biso   1.000  C
  C30      1.0000 0.62820  0.45054  0.65688  Biso   1.000  C
  C31      1.0000 0.62450  0.46292  0.68124  Biso   1.000  C
  C32      1.0000 0.59105  0.47127  0.70735  Biso   1.000  C
  C33      1.0000 0.67884  0.49074  0.79082  Biso   1.000  C
  C34      1.0000 0.64956  0.48472  0.79548  Biso   1.000  C
  C35      1.0000 0.64894  0.48100  0.76712  Biso   1.000  C
  C36      1.0000 0.67761  0.48447  0.73481  Biso   1.000  C
  C37      1.0000 0.70568  0.49044  0.73264  Biso   1.000  C
  C38      1.0000 0.67822  0.48168  0.70336  Biso   1.000  C
  C39      1.0000 0.65396  0.47074  0.67844  Biso   1.000  C
  C40      1.0000 0.70421  0.48535  0.64509  Biso   1.000  C
  C41      1.0000 0.73138  0.49530  0.60926  Biso   1.000  C
  C42      1.0000 0.72904  0.49704  0.57902  Biso   1.000  C
  C43      1.0000 0.77930  0.51386  0.54170  Biso   1.000  C
  C44      1.0000 0.78389  0.51253  0.56993  Biso   1.000  C
  C45      1.0000 0.75946  0.50412  0.60466  Biso   1.000  C
  C46      1.0000 0.70458  0.44580  0.55284  Biso   1.000  C
  C47      1.0000 0.79678  0.42796  0.53814  Biso   1.000  C
  C48      1.0000 0.82683  0.39995  0.54367  Biso   1.000  C
  C49      1.0000 0.85918  0.39782  0.51492  Biso   1.000  C
  C50      1.0000 0.85955  0.42419  0.48145  Biso   1.000  C
  C51      1.0000 0.82753  0.45253  0.47833  Biso   1.000  C
  C52      1.0000 0.89310  0.42344  0.44990  Biso   1.000  C
  C53      1.0000 0.83582  0.72626  0.46014  Biso   1.000  C
  C54      1.0000 0.79189  0.68651  0.45563  Biso   1.000  C
  C55      1.0000 0.79515  0.66071  0.44545  Biso   1.000  C
  C56      1.0000 0.76438  0.65688  0.45054  Biso   1.000  C
  C57      1.0000 0.73134  0.68124  0.46292  Biso   1.000  C
  C58      1.0000 0.73033  0.70735  0.47127  Biso   1.000  C
  C59      1.0000 0.53960  0.79082  0.49074  Biso   1.000  C
  C60      1.0000 0.57024  0.79548  0.48472  Biso   1.000  C
  C61      1.0000 0.60294  0.76712  0.48100  Biso   1.000  C
  C62      1.0000 0.60311  0.73481  0.48447  Biso   1.000  C
  C63      1.0000 0.57124  0.73264  0.49044  Biso   1.000  C
  C64      1.0000 0.63674  0.70336  0.48168  Biso   1.000  C
  C65      1.0000 0.69686  0.67844  0.47074  Biso   1.000  C
  C66      1.0000 0.66535  0.64509  0.48535  Biso   1.000  C
  C67      1.0000 0.66406  0.60926  0.49530  Biso   1.000  C
  C68      1.0000 0.69490  0.57902  0.49704  Biso   1.000  C
  C69      1.0000 0.66514  0.54170  0.51386  Biso   1.000  C
  C70      1.0000 0.63365  0.56993  0.51253  Biso   1.000  C
  C71      1.0000 0.63176  0.60466  0.50412  Biso   1.000  C
  C72      1.0000 0.79678  0.55284  0.44580  Biso   1.000  C
  C73      1.0000 0.73712  0.53814  0.42796  Biso   1.000  C
  C74      1.0000 0.72955  0.54367  0.39995  Biso   1.000  C
  C75      1.0000 0.72808  0.51492  0.39782  Biso   1.000  C
  C76      1.0000 0.73481  0.48145  0.42419  Biso   1.000  C
  C77      1.0000 0.74161  0.47833  0.45253  Biso   1.000  C
  C78      1.0000 0.73356  0.44990  0.42344  Biso   1.000  C
  C79      1.0000 0.22626  0.33582  0.97778  Biso   1.000  C
  C80      1.0000 0.18651  0.29189  0.06597  Biso   1.000  C
  C81      1.0000 0.16071  0.29515  0.09869  Biso   1.000  C
  C82      1.0000 0.15688  0.26438  0.12820  Biso   1.000  C
  C83      1.0000 0.18124  0.23134  0.12450  Biso   1.000  C
  C84      1.0000 0.20735  0.23033  0.09105  Biso   1.000  C
  C85      1.0000 0.29082  0.03960  0.17884  Biso   1.000  C
  C86      1.0000 0.29548  0.07024  0.14956  Biso   1.000  C
  C87      1.0000 0.26712  0.10294  0.14894  Biso   1.000  C
  C88      1.0000 0.23481  0.10311  0.17761  Biso   1.000  C
  C89      1.0000 0.23264  0.07124  0.20568  Biso   1.000  C
  C90      1.0000 0.20336  0.13674  0.17822  Biso   1.000  C
  C91      1.0000 0.17844  0.19686  0.15396  Biso   1.000  C
  C92      1.0000 0.14509  0.16535  0.20421  Biso   1.000  C
  C93      1.0000 0.10926  0.16406  0.23138  Biso   1.000  C
  C94      1.0000 0.07902  0.19490  0.22904  Biso   1.000  C
  C95      1.0000 0.04170  0.16514  0.27930  Biso   1.000  C
  C96      1.0000 0.06993  0.13365  0.28389  Biso   1.000  C
  C97      1.0000 0.10466  0.13176  0.25946  Biso   1.000  C
  C98      1.0000 0.05284  0.29678  0.20458  Biso   1.000  C
  C99      1.0000 0.03814  0.23712  0.29678  Biso   1.000  C
  C100     1.0000 0.04367  0.22955  0.32683  Biso   1.000  C
  C101     1.0000 0.01492  0.22808  0.35918  Biso   1.000  C
  C102     1.0000 0.98145  0.23481  0.35955  Biso   1.000  C
  C103     1.0000 0.97833  0.24161  0.32753  Biso   1.000  C
  C104     1.0000 0.94990  0.23356  0.39310  Biso   1.000  C
  C105     1.0000 0.96014  0.33582  0.72626  Biso   1.000  C
  C106     1.0000 0.95563  0.29189  0.68651  Biso   1.000  C
  C107     1.0000 0.94545  0.29515  0.66071  Biso   1.000  C
  C108     1.0000 0.95054  0.26438  0.65688  Biso   1.000  C
  C109     1.0000 0.96292  0.23134  0.68124  Biso   1.000  C
  C110     1.0000 0.97127  0.23033  0.70735  Biso   1.000  C
  C111     1.0000 0.99074  0.03960  0.79082  Biso   1.000  C
  C112     1.0000 0.98472  0.07024  0.79548  Biso   1.000  C
  C113     1.0000 0.98100  0.10294  0.76712  Biso   1.000  C
  C114     1.0000 0.98447  0.10311  0.73481  Biso   1.000  C
  C115     1.0000 0.99044  0.07124  0.73264  Biso   1.000  C
  C116     1.0000 0.98168  0.13674  0.70336  Biso   1.000  C
  C117     1.0000 0.97074  0.19686  0.67844  Biso   1.000  C
  C118     1.0000 0.98535  0.16535  0.64509  Biso   1.000  C
  C119     1.0000 0.99530  0.16406  0.60926  Biso   1.000  C
  C120     1.0000 0.99704  0.19490  0.57902  Biso   1.000  C
  C121     1.0000 0.01386  0.16514  0.54170  Biso   1.000  C
  C122     1.0000 0.01253  0.13365  0.56993  Biso   1.000  C
  C123     1.0000 0.00412  0.13176  0.60466  Biso   1.000  C
  C124     1.0000 0.94580  0.29678  0.55284  Biso   1.000  C
  C125     1.0000 0.92796  0.23712  0.53814  Biso   1.000  C
  C126     1.0000 0.89995  0.22955  0.54367  Biso   1.000  C
  C127     1.0000 0.89782  0.22808  0.51492  Biso   1.000  C
  C128     1.0000 0.92419  0.23481  0.48145  Biso   1.000  C
  C129     1.0000 0.95253  0.24161  0.47833  Biso   1.000  C
  C130     1.0000 0.92344  0.23356  0.44990  Biso   1.000  C
  C131     1.0000 0.47778  0.72626  0.33582  Biso   1.000  C
  C132     1.0000 0.56597  0.68651  0.29189  Biso   1.000  C
  C133     1.0000 0.59869  0.66071  0.29515  Biso   1.000  C
  C134     1.0000 0.62820  0.65688  0.26438  Biso   1.000  C
  C135     1.0000 0.62450  0.68124  0.23134  Biso   1.000  C
  C136     1.0000 0.59105  0.70735  0.23033  Biso   1.000  C
  C137     1.0000 0.67884  0.79082  0.03960  Biso   1.000  C
  C138     1.0000 0.64956  0.79548  0.07024  Biso   1.000  C
  C139     1.0000 0.64894  0.76712  0.10294  Biso   1.000  C
  C140     1.0000 0.67761  0.73481  0.10311  Biso   1.000  C
  C141     1.0000 0.70568  0.73264  0.07124  Biso   1.000  C
  C142     1.0000 0.67822  0.70336  0.13674  Biso   1.000  C
  C143     1.0000 0.65396  0.67844  0.19686  Biso   1.000  C
  C144     1.0000 0.70421  0.64509  0.16535  Biso   1.000  C
  C145     1.0000 0.73138  0.60926  0.16406  Biso   1.000  C
  C146     1.0000 0.72904  0.57902  0.19490  Biso   1.000  C
  C147     1.0000 0.77930  0.54170  0.16514  Biso   1.000  C
  C148     1.0000 0.78389  0.56993  0.13365  Biso   1.000  C
  C149     1.0000 0.75946  0.60466  0.13176  Biso   1.000  C
  C150     1.0000 0.70458  0.55284  0.29678  Biso   1.000  C
  C151     1.0000 0.79678  0.53814  0.23712  Biso   1.000  C
  C152     1.0000 0.82683  0.54367  0.22955  Biso   1.000  C
  C153     1.0000 0.85918  0.51492  0.22808  Biso   1.000  C
  C154     1.0000 0.85955  0.48145  0.23481  Biso   1.000  C
  C155     1.0000 0.82753  0.47833  0.24161  Biso   1.000  C
  C156     1.0000 0.89310  0.44990  0.23356  Biso   1.000  C
  C157     1.0000 0.83582  0.46014  0.97778  Biso   1.000  C
  C158     1.0000 0.79189  0.45563  0.06597  Biso   1.000  C
  C159     1.0000 0.79515  0.44545  0.09869  Biso   1.000  C
  C160     1.0000 0.76438  0.45054  0.12820  Biso   1.000  C
  C161     1.0000 0.73134  0.46292  0.12450  Biso   1.000  C
  C162     1.0000 0.73033  0.47127  0.09105  Biso   1.000  C
  C163     1.0000 0.53960  0.49074  0.17884  Biso   1.000  C
  C164     1.0000 0.57024  0.48472  0.14956  Biso   1.000  C
  C165     1.0000 0.60294  0.48100  0.14894  Biso   1.000  C
  C166     1.0000 0.60311  0.48447  0.17761  Biso   1.000  C
  C167     1.0000 0.57124  0.49044  0.20568  Biso   1.000  C
  C168     1.0000 0.63674  0.48168  0.17822  Biso   1.000  C
  C169     1.0000 0.69686  0.47074  0.15396  Biso   1.000  C
  C170     1.0000 0.66535  0.48535  0.20421  Biso   1.000  C
  C171     1.0000 0.66406  0.49530  0.23138  Biso   1.000  C
  C172     1.0000 0.69490  0.49704  0.22904  Biso   1.000  C
  C173     1.0000 0.66514  0.51386  0.27930  Biso   1.000  C
  C174     1.0000 0.63365  0.51253  0.28389  Biso   1.000  C
  C175     1.0000 0.63176  0.50412  0.25946  Biso   1.000  C
  C176     1.0000 0.79678  0.44580  0.20458  Biso   1.000  C
  C177     1.0000 0.73712  0.42796  0.29678  Biso   1.000  C
  C178     1.0000 0.72955  0.39995  0.32683  Biso   1.000  C
  C179     1.0000 0.72808  0.39782  0.35918  Biso   1.000  C
  C180     1.0000 0.73481  0.42419  0.35955  Biso   1.000  C
  C181     1.0000 0.74161  0.45253  0.32753  Biso   1.000  C
  C182     1.0000 0.73356  0.42344  0.39310  Biso   1.000  C
  C183     1.0000 0.22626  0.97778  0.46014  Biso   1.000  C
  C184     1.0000 0.18651  0.06597  0.45563  Biso   1.000  C
  C185     1.0000 0.16071  0.09869  0.44545  Biso   1.000  C
  C186     1.0000 0.15688  0.12820  0.45054  Biso   1.000  C
  C187     1.0000 0.18124  0.12450  0.46292  Biso   1.000  C
  C188     1.0000 0.20735  0.09105  0.47127  Biso   1.000  C
  C189     1.0000 0.29082  0.17884  0.49074  Biso   1.000  C
  C190     1.0000 0.29548  0.14956  0.48472  Biso   1.000  C
  C191     1.0000 0.26712  0.14894  0.48100  Biso   1.000  C
  C192     1.0000 0.23481  0.17761  0.48447  Biso   1.000  C
  C193     1.0000 0.23264  0.20568  0.49044  Biso   1.000  C
  C194     1.0000 0.20336  0.17822  0.48168  Biso   1.000  C
  C195     1.0000 0.17844  0.15396  0.47074  Biso   1.000  C
  C196     1.0000 0.14509  0.20421  0.48535  Biso   1.000  C
  C197     1.0000 0.10926  0.23138  0.49530  Biso   1.000  C
  C198     1.0000 0.07902  0.22904  0.49704  Biso   1.000  C
  C199     1.0000 0.04170  0.27930  0.51386  Biso   1.000  C
  C200     1.0000 0.06993  0.28389  0.51253  Biso   1.000  C
  C201     1.0000 0.10466  0.25946  0.50412  Biso   1.000  C
  C202     1.0000 0.05284  0.20458  0.44580  Biso   1.000  C
  C203     1.0000 0.03814  0.29678  0.42796  Biso   1.000  C
  C204     1.0000 0.04367  0.32683  0.39995  Biso   1.000  C
  C205     1.0000 0.01492  0.35918  0.39782  Biso   1.000  C
  C206     1.0000 0.98145  0.35955  0.42419  Biso   1.000  C
  C207     1.0000 0.97833  0.32753  0.45253  Biso   1.000  C
  C208     1.0000 0.94990  0.39310  0.42344  Biso   1.000  C
  C209     1.0000 0.96014  0.72626  0.97778  Biso   1.000  C
  C210     1.0000 0.95563  0.68651  0.06597  Biso   1.000  C
  C211     1.0000 0.94545  0.66071  0.09869  Biso   1.000  C
  C212     1.0000 0.95054  0.65688  0.12820  Biso   1.000  C
  C213     1.0000 0.96292  0.68124  0.12450  Biso   1.000  C
  C214     1.0000 0.97127  0.70735  0.09105  Biso   1.000  C
  C215     1.0000 0.99074  0.79082  0.17884  Biso   1.000  C
  C216     1.0000 0.98472  0.79548  0.14956  Biso   1.000  C
  C217     1.0000 0.98100  0.76712  0.14894  Biso   1.000  C
  C218     1.0000 0.98447  0.73481  0.17761  Biso   1.000  C
  C219     1.0000 0.99044  0.73264  0.20568  Biso   1.000  C
  C220     1.0000 0.98168  0.70336  0.17822  Biso   1.000  C
  C221     1.0000 0.97074  0.67844  0.15396  Biso   1.000  C
  C222     1.0000 0.98535  0.64509  0.20421  Biso   1.000  C
  C223     1.0000 0.99530  0.60926  0.23138  Biso   1.000  C
  C224     1.0000 0.99704  0.57902  0.22904  Biso   1.000  C
  C225     1.0000 0.01386  0.54170  0.27930  Biso   1.000  C
  C226     1.0000 0.01253  0.56993  0.28389  Biso   1.000  C
  C227     1.0000 0.00412  0.60466  0.25946  Biso   1.000  C
  C228     1.0000 0.94580  0.55284  0.20458  Biso   1.000  C
  C229     1.0000 0.92796  0.53814  0.29678  Biso   1.000  C
  C230     1.0000 0.89995  0.54367  0.32683  Biso   1.000  C
  C231     1.0000 0.89782  0.51492  0.35918  Biso   1.000  C
  C232     1.0000 0.92419  0.48145  0.35955  Biso   1.000  C
  C233     1.0000 0.95253  0.47833  0.32753  Biso   1.000  C
  C234     1.0000 0.92344  0.44990  0.39310  Biso   1.000  C
  C235     1.0000 0.47778  0.33582  0.46014  Biso   1.000  C
  C236     1.0000 0.56597  0.29189  0.45563  Biso   1.000  C
  C237     1.0000 0.59869  0.29515  0.44545  Biso   1.000  C
  C238     1.0000 0.62820  0.26438  0.45054  Biso   1.000  C
  C239     1.0000 0.62450  0.23134  0.46292  Biso   1.000  C
  C240     1.0000 0.59105  0.23033  0.47127  Biso   1.000  C
  C241     1.0000 0.67884  0.03960  0.49074  Biso   1.000  C
  C242     1.0000 0.64956  0.07024  0.48472  Biso   1.000  C
  C243     1.0000 0.64894  0.10294  0.48100  Biso   1.000  C
  C244     1.0000 0.67761  0.10311  0.48447  Biso   1.000  C
  C245     1.0000 0.70568  0.07124  0.49044  Biso   1.000  C
  C246     1.0000 0.67822  0.13674  0.48168  Biso   1.000  C
  C247     1.0000 0.65396  0.19686  0.47074  Biso   1.000  C
  C248     1.0000 0.70421  0.16535  0.48535  Biso   1.000  C
  C249     1.0000 0.73138  0.16406  0.49530  Biso   1.000  C
  C250     1.0000 0.72904  0.19490  0.49704  Biso   1.000  C
  C251     1.0000 0.77930  0.16514  0.51386  Biso   1.000  C
  C252     1.0000 0.78389  0.13365  0.51253  Biso   1.000  C
  C253     1.0000 0.75946  0.13176  0.50412  Biso   1.000  C
  C254     1.0000 0.70458  0.29678  0.44580  Biso   1.000  C
  C255     1.0000 0.79678  0.23712  0.42796  Biso   1.000  C
  C256     1.0000 0.82683  0.22955  0.39995  Biso   1.000  C
  C257     1.0000 0.85918  0.22808  0.39782  Biso   1.000  C
  C258     1.0000 0.85955  0.23481  0.42419  Biso   1.000  C
  C259     1.0000 0.82753  0.24161  0.45253  Biso   1.000  C
  C260     1.0000 0.89310  0.23356  0.42344  Biso   1.000  C
  C261     1.0000 0.83582  0.97778  0.72626  Biso   1.000  C
  C262     1.0000 0.79189  0.06597  0.68651  Biso   1.000  C
  C263     1.0000 0.79515  0.09869  0.66071  Biso   1.000  C
  C264     1.0000 0.76438  0.12820  0.65688  Biso   1.000  C
  C265     1.0000 0.73134  0.12450  0.68124  Biso   1.000  C
  C266     1.0000 0.73033  0.09105  0.70735  Biso   1.000  C
  C267     1.0000 0.53960  0.17884  0.79082  Biso   1.000  C
  C268     1.0000 0.57024  0.14956  0.79548  Biso   1.000  C
  C269     1.0000 0.60294  0.14894  0.76712  Biso   1.000  C
  C270     1.0000 0.60311  0.17761  0.73481  Biso   1.000  C
  C271     1.0000 0.57124  0.20568  0.73264  Biso   1.000  C
  C272     1.0000 0.63674  0.17822  0.70336  Biso   1.000  C
  C273     1.0000 0.69686  0.15396  0.67844  Biso   1.000  C
  C274     1.0000 0.66535  0.20421  0.64509  Biso   1.000  C
  C275     1.0000 0.66406  0.23138  0.60926  Biso   1.000  C
  C276     1.0000 0.69490  0.22904  0.57902  Biso   1.000  C
  C277     1.0000 0.66514  0.27930  0.54170  Biso   1.000  C
  C278     1.0000 0.63365  0.28389  0.56993  Biso   1.000  C
  C279     1.0000 0.63176  0.25946  0.60466  Biso   1.000  C
  C280     1.0000 0.79678  0.20458  0.55284  Biso   1.000  C
  C281     1.0000 0.73712  0.29678  0.53814  Biso   1.000  C
  C282     1.0000 0.72955  0.32683  0.54367  Biso   1.000  C
  C283     1.0000 0.72808  0.35918  0.51492  Biso   1.000  C
  C284     1.0000 0.73481  0.35955  0.48145  Biso   1.000  C
  C285     1.0000 0.74161  0.32753  0.47833  Biso   1.000  C
  C286     1.0000 0.73356  0.39310  0.44990  Biso   1.000  C
  C287     1.0000 0.22626  0.46014  0.33582  Biso   1.000  C
  C288     1.0000 0.18651  0.45563  0.29189  Biso   1.000  C
  C289     1.0000 0.16071  0.44545  0.29515  Biso   1.000  C
  C290     1.0000 0.15688  0.45054  0.26438  Biso   1.000  C
  C291     1.0000 0.18124  0.46292  0.23134  Biso   1.000  C
  C292     1.0000 0.20735  0.47127  0.23033  Biso   1.000  C
  C293     1.0000 0.29082  0.49074  0.03960  Biso   1.000  C
  C294     1.0000 0.29548  0.48472  0.07024  Biso   1.000  C
  C295     1.0000 0.26712  0.48100  0.10294  Biso   1.000  C
  C296     1.0000 0.23481  0.48447  0.10311  Biso   1.000  C
  C297     1.0000 0.23264  0.49044  0.07124  Biso   1.000  C
  C298     1.0000 0.20336  0.48168  0.13674  Biso   1.000  C
  C299     1.0000 0.17844  0.47074  0.19686  Biso   1.000  C
  C300     1.0000 0.14509  0.48535  0.16535  Biso   1.000  C
  C301     1.0000 0.10926  0.49530  0.16406  Biso   1.000  C
  C302     1.0000 0.07902  0.49704  0.19490  Biso   1.000  C
  C303     1.0000 0.04170  0.51386  0.16514  Biso   1.000  C
  C304     1.0000 0.06993  0.51253  0.13365  Biso   1.000  C
  C305     1.0000 0.10466  0.50412  0.13176  Biso   1.000  C
  C306     1.0000 0.05284  0.44580  0.29678  Biso   1.000  C
  C307     1.0000 0.03814  0.42796  0.23712  Biso   1.000  C
  C308     1.0000 0.04367  0.39995  0.22955  Biso   1.000  C
  C309     1.0000 0.01492  0.39782  0.22808  Biso   1.000  C
  C310     1.0000 0.98145  0.42419  0.23481  Biso   1.000  C
  C311     1.0000 0.97833  0.45253  0.24161  Biso   1.000  C
  C312     1.0000 0.94990  0.42344  0.23356  Biso   1.000  C
  C313     1.0000 0.02222  0.03986  0.16418  Biso   1.000  C
  C314     1.0000 0.93403  0.04437  0.20811  Biso   1.000  C
  C315     1.0000 0.90131  0.05455  0.20485  Biso   1.000  C
  C316     1.0000 0.87180  0.04946  0.23562  Biso   1.000  C
  C317     1.0000 0.87550  0.03708  0.26866  Biso   1.000  C
  C318     1.0000 0.90895  0.02873  0.26967  Biso   1.000  C
  C319     1.0000 0.82116  0.00926  0.46040  Biso   1.000  C
  C320     1.0000 0.85044  0.01528  0.42976  Biso   1.000  C
  C321     1.0000 0.85106  0.01900  0.39706  Biso   1.000  C
  C322     1.0000 0.82239  0.01553  0.39689  Biso   1.000  C
  C323     1.0000 0.79432  0.00956  0.42876  Biso   1.000  C
  C324     1.0000 0.82178  0.01832  0.36326  Biso   1.000  C
  C325     1.0000 0.84604  0.02926  0.30314  Biso   1.000  C
  C326     1.0000 0.79579  0.01465  0.33465  Biso   1.000  C
  C327     1.0000 0.76862  0.00470  0.33594  Biso   1.000  C
  C328     1.0000 0.77096  0.00296  0.30510  Biso   1.000  C
  C329     1.0000 0.72070  0.98614  0.33486  Biso   1.000  C
  C330     1.0000 0.71611  0.98747  0.36635  Biso   1.000  C
  C331     1.0000 0.74054  0.99588  0.36824  Biso   1.000  C
  C332     1.0000 0.79542  0.05420  0.20322  Biso   1.000  C
  C333     1.0000 0.70322  0.07204  0.26288  Biso   1.000  C
  C334     1.0000 0.67317  0.10005  0.27045  Biso   1.000  C
  C335     1.0000 0.64082  0.10218  0.27192  Biso   1.000  C
  C336     1.0000 0.64045  0.07581  0.26519  Biso   1.000  C
  C337     1.0000 0.67247  0.04747  0.25839  Biso   1.000  C
  C338     1.0000 0.60690  0.07656  0.26644  Biso   1.000  C
  C339     1.0000 0.53986  0.52222  0.77374  Biso   1.000  C
  C340     1.0000 0.54437  0.43403  0.81349  Biso   1.000  C
  C341     1.0000 0.55455  0.40131  0.83929  Biso   1.000  C
  C342     1.0000 0.54946  0.37180  0.84312  Biso   1.000  C
  C343     1.0000 0.53708  0.37550  0.81876  Biso   1.000  C
  C344     1.0000 0.52873  0.40895  0.79265  Biso   1.000  C
  C345     1.0000 0.50926  0.32116  0.70918  Biso   1.000  C
  C346     1.0000 0.51528  0.35044  0.70452  Biso   1.000  C
  C347     1.0000 0.51900  0.35106  0.73288  Biso   1.000  C
  C348     1.0000 0.51553  0.32239  0.76519  Biso   1.000  C
  C349     1.0000 0.50956  0.29432  0.76736  Biso   1.000  C
  C350     1.0000 0.51832  0.32178  0.79664  Biso   1.000  C
  C351     1.0000 0.52926  0.34604  0.82156  Biso   1.000  C
  C352     1.0000 0.51465  0.29579  0.85491  Biso   1.000  C
  C353     1.0000 0.50470  0.26862  0.89074  Biso   1.000  C
  C354     1.0000 0.50296  0.27096  0.92098  Biso   1.000  C
  C355     1.0000 0.48614  0.22070  0.95830  Biso   1.000  C
  C356     1.0000 0.48747  0.21611  0.93007  Biso   1.000  C
  C357     1.0000 0.49588  0.24054  0.89534  Biso   1.000  C
  C358     1.0000 0.55420  0.29542  0.94716  Biso   1.000  C
  C359     1.0000 0.57204  0.20322  0.96186  Biso   1.000  C
  C360     1.0000 0.60005  0.17317  0.95633  Biso   1.000  C
  C361     1.0000 0.60218  0.14082  0.98508  Biso   1.000  C
  C362     1.0000 0.57581  0.14045  0.01855  Biso   1.000  C
  C363     1.0000 0.54747  0.17247  0.02167  Biso   1.000  C
  C364     1.0000 0.57656  0.10690  0.05010  Biso   1.000  C
  C365     1.0000 0.27374  0.16418  0.03986  Biso   1.000  C
  C366     1.0000 0.31349  0.20811  0.04437  Biso   1.000  C
  C367     1.0000 0.33929  0.20485  0.05455  Biso   1.000  C
  C368     1.0000 0.34312  0.23562  0.04946  Biso   1.000  C
  C369     1.0000 0.31876  0.26866  0.03708  Biso   1.000  C
  C370     1.0000 0.29265  0.26967  0.02873  Biso   1.000  C
  C371     1.0000 0.20918  0.46040  0.00926  Biso   1.000  C
  C372     1.0000 0.20452  0.42976  0.01528  Biso   1.000  C
  C373     1.0000 0.23288  0.39706  0.01900  Biso   1.000  C
  C374     1.0000 0.26519  0.39689  0.01553  Biso   1.000  C
  C375     1.0000 0.26736  0.42876  0.00956  Biso   1.000  C
  C376     1.0000 0.29664  0.36326  0.01832  Biso   1.000  C
  C377     1.0000 0.32156  0.30314  0.02926  Biso   1.000  C
  C378     1.0000 0.35491  0.33465  0.01465  Biso   1.000  C
  C379     1.0000 0.39074  0.33594  0.00470  Biso   1.000  C
  C380     1.0000 0.42098  0.30510  0.00296  Biso   1.000  C
  C381     1.0000 0.45830  0.33486  0.98614  Biso   1.000  C
  C382     1.0000 0.43007  0.36635  0.98747  Biso   1.000  C
  C383     1.0000 0.39534  0.36824  0.99588  Biso   1.000  C
  C384     1.0000 0.44716  0.20322  0.05420  Biso   1.000  C
  C385     1.0000 0.46186  0.26288  0.07204  Biso   1.000  C
  C386     1.0000 0.45633  0.27045  0.10005  Biso   1.000  C
  C387     1.0000 0.48508  0.27192  0.10218  Biso   1.000  C
  C388     1.0000 0.51855  0.26519  0.07581  Biso   1.000  C
  C389     1.0000 0.52167  0.25839  0.04747  Biso   1.000  C
  C390     1.0000 0.55010  0.26644  0.07656  Biso   1.000  C
  C391     1.0000 0.66418  0.77374  0.52222  Biso   1.000  C
  C392     1.0000 0.70811  0.81349  0.43403  Biso   1.000  C
  C393     1.0000 0.70485  0.83929  0.40131  Biso   1.000  C
  C394     1.0000 0.73562  0.84312  0.37180  Biso   1.000  C
  C395     1.0000 0.76866  0.81876  0.37550  Biso   1.000  C
  C396     1.0000 0.76967  0.79265  0.40895  Biso   1.000  C
  C397     1.0000 0.96040  0.70918  0.32116  Biso   1.000  C
  C398     1.0000 0.92976  0.70452  0.35044  Biso   1.000  C
  C399     1.0000 0.89706  0.73288  0.35106  Biso   1.000  C
  C400     1.0000 0.89689  0.76519  0.32239  Biso   1.000  C
  C401     1.0000 0.92876  0.76736  0.29432  Biso   1.000  C
  C402     1.0000 0.86326  0.79664  0.32178  Biso   1.000  C
  C403     1.0000 0.80314  0.82156  0.34604  Biso   1.000  C
  C404     1.0000 0.83465  0.85491  0.29579  Biso   1.000  C
  C405     1.0000 0.83594  0.89074  0.26862  Biso   1.000  C
  C406     1.0000 0.80510  0.92098  0.27096  Biso   1.000  C
  C407     1.0000 0.83486  0.95830  0.22070  Biso   1.000  C
  C408     1.0000 0.86635  0.93007  0.21611  Biso   1.000  C
  C409     1.0000 0.86824  0.89534  0.24054  Biso   1.000  C
  C410     1.0000 0.70322  0.94716  0.29542  Biso   1.000  C
  C411     1.0000 0.76288  0.96186  0.20322  Biso   1.000  C
  C412     1.0000 0.77045  0.95633  0.17317  Biso   1.000  C
  C413     1.0000 0.77192  0.98508  0.14082  Biso   1.000  C
  C414     1.0000 0.76519  0.01855  0.14045  Biso   1.000  C
  C415     1.0000 0.75839  0.02167  0.17247  Biso   1.000  C
  C416     1.0000 0.76644  0.05010  0.10690  Biso   1.000  C
  C417     1.0000 0.66418  0.03986  0.77374  Biso   1.000  C
  C418     1.0000 0.70811  0.04437  0.81349  Biso   1.000  C
  C419     1.0000 0.70485  0.05455  0.83929  Biso   1.000  C
  C420     1.0000 0.73562  0.04946  0.84312  Biso   1.000  C
  C421     1.0000 0.76866  0.03708  0.81876  Biso   1.000  C
  C422     1.0000 0.76967  0.02873  0.79265  Biso   1.000  C
  C423     1.0000 0.96040  0.00926  0.70918  Biso   1.000  C
  C424     1.0000 0.92976  0.01528  0.70452  Biso   1.000  C
  C425     1.0000 0.89706  0.01900  0.73288  Biso   1.000  C
  C426     1.0000 0.89689  0.01553  0.76519  Biso   1.000  C
  C427     1.0000 0.92876  0.00956  0.76736  Biso   1.000  C
  C428     1.0000 0.86326  0.01832  0.79664  Biso   1.000  C
  C429     1.0000 0.80314  0.02926  0.82156  Biso   1.000  C
  C430     1.0000 0.83465  0.01465  0.85491  Biso   1.000  C
  C431     1.0000 0.83594  0.00470  0.89074  Biso   1.000  C
  C432     1.0000 0.80510  0.00296  0.92098  Biso   1.000  C
  C433     1.0000 0.83486  0.98614  0.95830  Biso   1.000  C
  C434     1.0000 0.86635  0.98747  0.93007  Biso   1.000  C
  C435     1.0000 0.86824  0.99588  0.89534  Biso   1.000  C
  C436     1.0000 0.70322  0.05420  0.94716  Biso   1.000  C
  C437     1.0000 0.76288  0.07204  0.96186  Biso   1.000  C
  C438     1.0000 0.77045  0.10005  0.95633  Biso   1.000  C
  C439     1.0000 0.77192  0.10218  0.98508  Biso   1.000  C
  C440     1.0000 0.76519  0.07581  0.01855  Biso   1.000  C
  C441     1.0000 0.75839  0.04747  0.02167  Biso   1.000  C
  C442     1.0000 0.76644  0.07656  0.05010  Biso   1.000  C
  C443     1.0000 0.27374  0.52222  0.16418  Biso   1.000  C
  C444     1.0000 0.31349  0.43403  0.20811  Biso   1.000  C
  C445     1.0000 0.33929  0.40131  0.20485  Biso   1.000  C
  C446     1.0000 0.34312  0.37180  0.23562  Biso   1.000  C
  C447     1.0000 0.31876  0.37550  0.26866  Biso   1.000  C
  C448     1.0000 0.29265  0.40895  0.26967  Biso   1.000  C
  C449     1.0000 0.20918  0.32116  0.46040  Biso   1.000  C
  C450     1.0000 0.20452  0.35044  0.42976  Biso   1.000  C
  C451     1.0000 0.23288  0.35106  0.39706  Biso   1.000  C
  C452     1.0000 0.26519  0.32239  0.39689  Biso   1.000  C
  C453     1.0000 0.26736  0.29432  0.42876  Biso   1.000  C
  C454     1.0000 0.29664  0.32178  0.36326  Biso   1.000  C
  C455     1.0000 0.32156  0.34604  0.30314  Biso   1.000  C
  C456     1.0000 0.35491  0.29579  0.33465  Biso   1.000  C
  C457     1.0000 0.39074  0.26862  0.33594  Biso   1.000  C
  C458     1.0000 0.42098  0.27096  0.30510  Biso   1.000  C
  C459     1.0000 0.45830  0.22070  0.33486  Biso   1.000  C
  C460     1.0000 0.43007  0.21611  0.36635  Biso   1.000  C
  C461     1.0000 0.39534  0.24054  0.36824  Biso   1.000  C
  C462     1.0000 0.44716  0.29542  0.20322  Biso   1.000  C
  C463     1.0000 0.46186  0.20322  0.26288  Biso   1.000  C
  C464     1.0000 0.45633  0.17317  0.27045  Biso   1.000  C
  C465     1.0000 0.48508  0.14082  0.27192  Biso   1.000  C
  C466     1.0000 0.51855  0.14045  0.26519  Biso   1.000  C
  C467     1.0000 0.52167  0.17247  0.25839  Biso   1.000  C
  C468     1.0000 0.55010  0.10690  0.26644  Biso   1.000  C
  C469     1.0000 0.53986  0.16418  0.52222  Biso   1.000  C
  C470     1.0000 0.54437  0.20811  0.43403  Biso   1.000  C
  C471     1.0000 0.55455  0.20485  0.40131  Biso   1.000  C
  C472     1.0000 0.54946  0.23562  0.37180  Biso   1.000  C
  C473     1.0000 0.53708  0.26866  0.37550  Biso   1.000  C
  C474     1.0000 0.52873  0.26967  0.40895  Biso   1.000  C
  C475     1.0000 0.50926  0.46040  0.32116  Biso   1.000  C
  C476     1.0000 0.51528  0.42976  0.35044  Biso   1.000  C
  C477     1.0000 0.51900  0.39706  0.35106  Biso   1.000  C
  C478     1.0000 0.51553  0.39689  0.32239  Biso   1.000  C
  C479     1.0000 0.50956  0.42876  0.29432  Biso   1.000  C
  C480     1.0000 0.51832  0.36326  0.32178  Biso   1.000  C
  C481     1.0000 0.52926  0.30314  0.34604  Biso   1.000  C
  C482     1.0000 0.51465  0.33465  0.29579  Biso   1.000  C
  C483     1.0000 0.50470  0.33594  0.26862  Biso   1.000  C
  C484     1.0000 0.50296  0.30510  0.27096  Biso   1.000  C
  C485     1.0000 0.48614  0.33486  0.22070  Biso   1.000  C
  C486     1.0000 0.48747  0.36635  0.21611  Biso   1.000  C
  C487     1.0000 0.49588  0.36824  0.24054  Biso   1.000  C
  C488     1.0000 0.55420  0.20322  0.29542  Biso   1.000  C
  C489     1.0000 0.57204  0.26288  0.20322  Biso   1.000  C
  C490     1.0000 0.60005  0.27045  0.17317  Biso   1.000  C
  C491     1.0000 0.60218  0.27192  0.14082  Biso   1.000  C
  C492     1.0000 0.57581  0.26519  0.14045  Biso   1.000  C
  C493     1.0000 0.54747  0.25839  0.17247  Biso   1.000  C
  C494     1.0000 0.57656  0.26644  0.10690  Biso   1.000  C
  C495     1.0000 0.02222  0.77374  0.03986  Biso   1.000  C
  C496     1.0000 0.93403  0.81349  0.04437  Biso   1.000  C
  C497     1.0000 0.90131  0.83929  0.05455  Biso   1.000  C
  C498     1.0000 0.87180  0.84312  0.04946  Biso   1.000  C
  C499     1.0000 0.87550  0.81876  0.03708  Biso   1.000  C
  C500     1.0000 0.90895  0.79265  0.02873  Biso   1.000  C
  C501     1.0000 0.82116  0.70918  0.00926  Biso   1.000  C
  C502     1.0000 0.85044  0.70452  0.01528  Biso   1.000  C
  C503     1.0000 0.85106  0.73288  0.01900  Biso   1.000  C
  C504     1.0000 0.82239  0.76519  0.01553  Biso   1.000  C
  C505     1.0000 0.79432  0.76736  0.00956  Biso   1.000  C
  C506     1.0000 0.82178  0.79664  0.01832  Biso   1.000  C
  C507     1.0000 0.84604  0.82156  0.02926  Biso   1.000  C
  C508     1.0000 0.79579  0.85491  0.01465  Biso   1.000  C
  C509     1.0000 0.76862  0.89074  0.00470  Biso   1.000  C
  C510     1.0000 0.77096  0.92098  0.00296  Biso   1.000  C
  C511     1.0000 0.72070  0.95830  0.98614  Biso   1.000  C
  C512     1.0000 0.71611  0.93007  0.98747  Biso   1.000  C
  C513     1.0000 0.74054  0.89534  0.99588  Biso   1.000  C
  C514     1.0000 0.79542  0.94716  0.05420  Biso   1.000  C
  C515     1.0000 0.70322  0.96186  0.07204  Biso   1.000  C
  C516     1.0000 0.67317  0.95633  0.10005  Biso   1.000  C
  C517     1.0000 0.64082  0.98508  0.10218  Biso   1.000  C
  C518     1.0000 0.64045  0.01855  0.07581  Biso   1.000  C
  C519     1.0000 0.67247  0.02167  0.04747  Biso   1.000  C
  C520     1.0000 0.60690  0.05010  0.07656  Biso   1.000  C
  C521     1.0000 0.27374  0.03986  0.52222  Biso   1.000  C
  C522     1.0000 0.31349  0.04437  0.43403  Biso   1.000  C
  C523     1.0000 0.33929  0.05455  0.40131  Biso   1.000  C
  C524     1.0000 0.34312  0.04946  0.37180  Biso   1.000  C
  C525     1.0000 0.31876  0.03708  0.37550  Biso   1.000  C
  C526     1.0000 0.29265  0.02873  0.40895  Biso   1.000  C
  C527     1.0000 0.20918  0.00926  0.32116  Biso   1.000  C
  C528     1.0000 0.20452  0.01528  0.35044  Biso   1.000  C
  C529     1.0000 0.23288  0.01900  0.35106  Biso   1.000  C
  C530     1.0000 0.26519  0.01553  0.32239  Biso   1.000  C
  C531     1.0000 0.26736  0.00956  0.29432  Biso   1.000  C
  C532     1.0000 0.29664  0.01832  0.32178  Biso   1.000  C
  C533     1.0000 0.32156  0.02926  0.34604  Biso   1.000  C
  C534     1.0000 0.35491  0.01465  0.29579  Biso   1.000  C
  C535     1.0000 0.39074  0.00470  0.26862  Biso   1.000  C
  C536     1.0000 0.42098  0.00296  0.27096  Biso   1.000  C
  C537     1.0000 0.45830  0.98614  0.22070  Biso   1.000  C
  C538     1.0000 0.43007  0.98747  0.21611  Biso   1.000  C
  C539     1.0000 0.39534  0.99588  0.24054  Biso   1.000  C
  C540     1.0000 0.44716  0.05420  0.29542  Biso   1.000  C
  C541     1.0000 0.46186  0.07204  0.20322  Biso   1.000  C
  C542     1.0000 0.45633  0.10005  0.17317  Biso   1.000  C
  C543     1.0000 0.48508  0.10218  0.14082  Biso   1.000  C
  C544     1.0000 0.51855  0.07581  0.14045  Biso   1.000  C
  C545     1.0000 0.52167  0.04747  0.17247  Biso   1.000  C
  C546     1.0000 0.55010  0.07656  0.10690  Biso   1.000  C
  C547     1.0000 0.66418  0.52222  0.03986  Biso   1.000  C
  C548     1.0000 0.70811  0.43403  0.04437  Biso   1.000  C
  C549     1.0000 0.70485  0.40131  0.05455  Biso   1.000  C
  C550     1.0000 0.73562  0.37180  0.04946  Biso   1.000  C
  C551     1.0000 0.76866  0.37550  0.03708  Biso   1.000  C
  C552     1.0000 0.76967  0.40895  0.02873  Biso   1.000  C
  C553     1.0000 0.96040  0.32116  0.00926  Biso   1.000  C
  C554     1.0000 0.92976  0.35044  0.01528  Biso   1.000  C
  C555     1.0000 0.89706  0.35106  0.01900  Biso   1.000  C
  C556     1.0000 0.89689  0.32239  0.01553  Biso   1.000  C
  C557     1.0000 0.92876  0.29432  0.00956  Biso   1.000  C
  C558     1.0000 0.86326  0.32178  0.01832  Biso   1.000  C
  C559     1.0000 0.80314  0.34604  0.02926  Biso   1.000  C
  C560     1.0000 0.83465  0.29579  0.01465  Biso   1.000  C
  C561     1.0000 0.83594  0.26862  0.00470  Biso   1.000  C
  C562     1.0000 0.80510  0.27096  0.00296  Biso   1.000  C
  C563     1.0000 0.83486  0.22070  0.98614  Biso   1.000  C
  C564     1.0000 0.86635  0.21611  0.98747  Biso   1.000  C
  C565     1.0000 0.86824  0.24054  0.99588  Biso   1.000  C
  C566     1.0000 0.70322  0.29542  0.05420  Biso   1.000  C
  C567     1.0000 0.76288  0.20322  0.07204  Biso   1.000  C
  C568     1.0000 0.77045  0.17317  0.10005  Biso   1.000  C
  C569     1.0000 0.77192  0.14082  0.10218  Biso   1.000  C
  C570     1.0000 0.76519  0.14045  0.07581  Biso   1.000  C
  C571     1.0000 0.75839  0.17247  0.04747  Biso   1.000  C
  C572     1.0000 0.76644  0.10690  0.07656  Biso   1.000  C
  C573     1.0000 0.02222  0.16418  0.77374  Biso   1.000  C
  C574     1.0000 0.93403  0.20811  0.81349  Biso   1.000  C
  C575     1.0000 0.90131  0.20485  0.83929  Biso   1.000  C
  C576     1.0000 0.87180  0.23562  0.84312  Biso   1.000  C
  C577     1.0000 0.87550  0.26866  0.81876  Biso   1.000  C
  C578     1.0000 0.90895  0.26967  0.79265  Biso   1.000  C
  C579     1.0000 0.82116  0.46040  0.70918  Biso   1.000  C
  C580     1.0000 0.85044  0.42976  0.70452  Biso   1.000  C
  C581     1.0000 0.85106  0.39706  0.73288  Biso   1.000  C
  C582     1.0000 0.82239  0.39689  0.76519  Biso   1.000  C
  C583     1.0000 0.79432  0.42876  0.76736  Biso   1.000  C
  C584     1.0000 0.82178  0.36326  0.79664  Biso   1.000  C
  C585     1.0000 0.84604  0.30314  0.82156  Biso   1.000  C
  C586     1.0000 0.79579  0.33465  0.85491  Biso   1.000  C
  C587     1.0000 0.76862  0.33594  0.89074  Biso   1.000  C
  C588     1.0000 0.77096  0.30510  0.92098  Biso   1.000  C
  C589     1.0000 0.72070  0.33486  0.95830  Biso   1.000  C
  C590     1.0000 0.71611  0.36635  0.93007  Biso   1.000  C
  C591     1.0000 0.74054  0.36824  0.89534  Biso   1.000  C
  C592     1.0000 0.79542  0.20322  0.94716  Biso   1.000  C
  C593     1.0000 0.70322  0.26288  0.96186  Biso   1.000  C
  C594     1.0000 0.67317  0.27045  0.95633  Biso   1.000  C
  C595     1.0000 0.64082  0.27192  0.98508  Biso   1.000  C
  C596     1.0000 0.64045  0.26519  0.01855  Biso   1.000  C
  C597     1.0000 0.67247  0.25839  0.02167  Biso   1.000  C
  C598     1.0000 0.60690  0.26644  0.05010  Biso   1.000  C
  C599     1.0000 0.53986  0.77374  0.16418  Biso   1.000  C
  C600     1.0000 0.54437  0.81349  0.20811  Biso   1.000  C
  C601     1.0000 0.55455  0.83929  0.20485  Biso   1.000  C
  C602     1.0000 0.54946  0.84312  0.23562  Biso   1.000  C
  C603     1.0000 0.53708  0.81876  0.26866  Biso   1.000  C
  C604     1.0000 0.52873  0.79265  0.26967  Biso   1.000  C
  C605     1.0000 0.50926  0.70918  0.46040  Biso   1.000  C
  C606     1.0000 0.51528  0.70452  0.42976  Biso   1.000  C
  C607     1.0000 0.51900  0.73288  0.39706  Biso   1.000  C
  C608     1.0000 0.51553  0.76519  0.39689  Biso   1.000  C
  C609     1.0000 0.50956  0.76736  0.42876  Biso   1.000  C
  C610     1.0000 0.51832  0.79664  0.36326  Biso   1.000  C
  C611     1.0000 0.52926  0.82156  0.30314  Biso   1.000  C
  C612     1.0000 0.51465  0.85491  0.33465  Biso   1.000  C
  C613     1.0000 0.50470  0.89074  0.33594  Biso   1.000  C
  C614     1.0000 0.50296  0.92098  0.30510  Biso   1.000  C
  C615     1.0000 0.48614  0.95830  0.33486  Biso   1.000  C
  C616     1.0000 0.48747  0.93007  0.36635  Biso   1.000  C
  C617     1.0000 0.49588  0.89534  0.36824  Biso   1.000  C
  C618     1.0000 0.55420  0.94716  0.20322  Biso   1.000  C
  C619     1.0000 0.57204  0.96186  0.26288  Biso   1.000  C
  C620     1.0000 0.60005  0.95633  0.27045  Biso   1.000  C
  C621     1.0000 0.60218  0.98508  0.27192  Biso   1.000  C
  C622     1.0000 0.57581  0.01855  0.26519  Biso   1.000  C
  C623     1.0000 0.54747  0.02167  0.25839  Biso   1.000  C
  C624     1.0000 0.57656  0.05010  0.26644  Biso   1.000  C
  C625     1.0000 0.03986  0.02222  0.66418  Biso   1.000  C
  C626     1.0000 0.04437  0.93403  0.70811  Biso   1.000  C
  C627     1.0000 0.05455  0.90131  0.70485  Biso   1.000  C
  C628     1.0000 0.04946  0.87180  0.73562  Biso   1.000  C
  C629     1.0000 0.03708  0.87550  0.76866  Biso   1.000  C
  C630     1.0000 0.02873  0.90895  0.76967  Biso   1.000  C
  C631     1.0000 0.00926  0.82116  0.96040  Biso   1.000  C
  C632     1.0000 0.01528  0.85044  0.92976  Biso   1.000  C
  C633     1.0000 0.01900  0.85106  0.89706  Biso   1.000  C
  C634     1.0000 0.01553  0.82239  0.89689  Biso   1.000  C
  C635     1.0000 0.00956  0.79432  0.92876  Biso   1.000  C
  C636     1.0000 0.01832  0.82178  0.86326  Biso   1.000  C
  C637     1.0000 0.02926  0.84604  0.80314  Biso   1.000  C
  C638     1.0000 0.01465  0.79579  0.83465  Biso   1.000  C
  C639     1.0000 0.00470  0.76862  0.83594  Biso   1.000  C
  C640     1.0000 0.00296  0.77096  0.80510  Biso   1.000  C
  C641     1.0000 0.98614  0.72070  0.83486  Biso   1.000  C
  C642     1.0000 0.98747  0.71611  0.86635  Biso   1.000  C
  C643     1.0000 0.99588  0.74054  0.86824  Biso   1.000  C
  C644     1.0000 0.05420  0.79542  0.70322  Biso   1.000  C
  C645     1.0000 0.07204  0.70322  0.76288  Biso   1.000  C
  C646     1.0000 0.10005  0.67317  0.77045  Biso   1.000  C
  C647     1.0000 0.10218  0.64082  0.77192  Biso   1.000  C
  C648     1.0000 0.07581  0.64045  0.76519  Biso   1.000  C
  C649     1.0000 0.04747  0.67247  0.75839  Biso   1.000  C
  C650     1.0000 0.07656  0.60690  0.76644  Biso   1.000  C
  C651     1.0000 0.52222  0.53986  0.27374  Biso   1.000  C
  C652     1.0000 0.43403  0.54437  0.31349  Biso   1.000  C
  C653     1.0000 0.40131  0.55455  0.33929  Biso   1.000  C
  C654     1.0000 0.37180  0.54946  0.34312  Biso   1.000  C
  C655     1.0000 0.37550  0.53708  0.31876  Biso   1.000  C
  C656     1.0000 0.40895  0.52873  0.29265  Biso   1.000  C
  C657     1.0000 0.32116  0.50926  0.20918  Biso   1.000  C
  C658     1.0000 0.35044  0.51528  0.20452  Biso   1.000  C
  C659     1.0000 0.35106  0.51900  0.23288  Biso   1.000  C
  C660     1.0000 0.32239  0.51553  0.26519  Biso   1.000  C
  C661     1.0000 0.29432  0.50956  0.26736  Biso   1.000  C
  C662     1.0000 0.32178  0.51832  0.29664  Biso   1.000  C
  C663     1.0000 0.34604  0.52926  0.32156  Biso   1.000  C
  C664     1.0000 0.29579  0.51465  0.35491  Biso   1.000  C
  C665     1.0000 0.26862  0.50470  0.39074  Biso   1.000  C
  C666     1.0000 0.27096  0.50296  0.42098  Biso   1.000  C
  C667     1.0000 0.22070  0.48614  0.45830  Biso   1.000  C
  C668     1.0000 0.21611  0.48747  0.43007  Biso   1.000  C
  C669     1.0000 0.24054  0.49588  0.39534  Biso   1.000  C
  C670     1.0000 0.29542  0.55420  0.44716  Biso   1.000  C
  C671     1.0000 0.20322  0.57204  0.46186  Biso   1.000  C
  C672     1.0000 0.17317  0.60005  0.45633  Biso   1.000  C
  C673     1.0000 0.14082  0.60218  0.48508  Biso   1.000  C
  C674     1.0000 0.14045  0.57581  0.51855  Biso   1.000  C
  C675     1.0000 0.17247  0.54747  0.52167  Biso   1.000  C
  C676     1.0000 0.10690  0.57656  0.55010  Biso   1.000  C
  C677     1.0000 0.16418  0.27374  0.53986  Biso   1.000  C
  C678     1.0000 0.20811  0.31349  0.54437  Biso   1.000  C
  C679     1.0000 0.20485  0.33929  0.55455  Biso   1.000  C
  C680     1.0000 0.23562  0.34312  0.54946  Biso   1.000  C
  C681     1.0000 0.26866  0.31876  0.53708  Biso   1.000  C
  C682     1.0000 0.26967  0.29265  0.52873  Biso   1.000  C
  C683     1.0000 0.46040  0.20918  0.50926  Biso   1.000  C
  C684     1.0000 0.42976  0.20452  0.51528  Biso   1.000  C
  C685     1.0000 0.39706  0.23288  0.51900  Biso   1.000  C
  C686     1.0000 0.39689  0.26519  0.51553  Biso   1.000  C
  C687     1.0000 0.42876  0.26736  0.50956  Biso   1.000  C
  C688     1.0000 0.36326  0.29664  0.51832  Biso   1.000  C
  C689     1.0000 0.30314  0.32156  0.52926  Biso   1.000  C
  C690     1.0000 0.33465  0.35491  0.51465  Biso   1.000  C
  C691     1.0000 0.33594  0.39074  0.50470  Biso   1.000  C
  C692     1.0000 0.30510  0.42098  0.50296  Biso   1.000  C
  C693     1.0000 0.33486  0.45830  0.48614  Biso   1.000  C
  C694     1.0000 0.36635  0.43007  0.48747  Biso   1.000  C
  C695     1.0000 0.36824  0.39534  0.49588  Biso   1.000  C
  C696     1.0000 0.20322  0.44716  0.55420  Biso   1.000  C
  C697     1.0000 0.26288  0.46186  0.57204  Biso   1.000  C
  C698     1.0000 0.27045  0.45633  0.60005  Biso   1.000  C
  C699     1.0000 0.27192  0.48508  0.60218  Biso   1.000  C
  C700     1.0000 0.26519  0.51855  0.57581  Biso   1.000  C
  C701     1.0000 0.25839  0.52167  0.54747  Biso   1.000  C
  C702     1.0000 0.26644  0.55010  0.57656  Biso   1.000  C
  C703     1.0000 0.77374  0.66418  0.02222  Biso   1.000  C
  C704     1.0000 0.81349  0.70811  0.93403  Biso   1.000  C
  C705     1.0000 0.83929  0.70485  0.90131  Biso   1.000  C
  C706     1.0000 0.84312  0.73562  0.87180  Biso   1.000  C
  C707     1.0000 0.81876  0.76866  0.87550  Biso   1.000  C
  C708     1.0000 0.79265  0.76967  0.90895  Biso   1.000  C
  C709     1.0000 0.70918  0.96040  0.82116  Biso   1.000  C
  C710     1.0000 0.70452  0.92976  0.85044  Biso   1.000  C
  C711     1.0000 0.73288  0.89706  0.85106  Biso   1.000  C
  C712     1.0000 0.76519  0.89689  0.82239  Biso   1.000  C
  C713     1.0000 0.76736  0.92876  0.79432  Biso   1.000  C
  C714     1.0000 0.79664  0.86326  0.82178  Biso   1.000  C
  C715     1.0000 0.82156  0.80314  0.84604  Biso   1.000  C
  C716     1.0000 0.85491  0.83465  0.79579  Biso   1.000  C
  C717     1.0000 0.89074  0.83594  0.76862  Biso   1.000  C
  C718     1.0000 0.92098  0.80510  0.77096  Biso   1.000  C
  C719     1.0000 0.95830  0.83486  0.72070  Biso   1.000  C
  C720     1.0000 0.93007  0.86635  0.71611  Biso   1.000  C
  C721     1.0000 0.89534  0.86824  0.74054  Biso   1.000  C
  C722     1.0000 0.94716  0.70322  0.79542  Biso   1.000  C
  C723     1.0000 0.96186  0.76288  0.70322  Biso   1.000  C
  C724     1.0000 0.95633  0.77045  0.67317  Biso   1.000  C
  C725     1.0000 0.98508  0.77192  0.64082  Biso   1.000  C
  C726     1.0000 0.01855  0.76519  0.64045  Biso   1.000  C
  C727     1.0000 0.02167  0.75839  0.67247  Biso   1.000  C
  C728     1.0000 0.05010  0.76644  0.60690  Biso   1.000  C
  C729     1.0000 0.03986  0.66418  0.27374  Biso   1.000  C
  C730     1.0000 0.04437  0.70811  0.31349  Biso   1.000  C
  C731     1.0000 0.05455  0.70485  0.33929  Biso   1.000  C
  C732     1.0000 0.04946  0.73562  0.34312  Biso   1.000  C
  C733     1.0000 0.03708  0.76866  0.31876  Biso   1.000  C
  C734     1.0000 0.02873  0.76967  0.29265  Biso   1.000  C
  C735     1.0000 0.00926  0.96040  0.20918  Biso   1.000  C
  C736     1.0000 0.01528  0.92976  0.20452  Biso   1.000  C
  C737     1.0000 0.01900  0.89706  0.23288  Biso   1.000  C
  C738     1.0000 0.01553  0.89689  0.26519  Biso   1.000  C
  C739     1.0000 0.00956  0.92876  0.26736  Biso   1.000  C
  C740     1.0000 0.01832  0.86326  0.29664  Biso   1.000  C
  C741     1.0000 0.02926  0.80314  0.32156  Biso   1.000  C
  C742     1.0000 0.01465  0.83465  0.35491  Biso   1.000  C
  C743     1.0000 0.00470  0.83594  0.39074  Biso   1.000  C
  C744     1.0000 0.00296  0.80510  0.42098  Biso   1.000  C
  C745     1.0000 0.98614  0.83486  0.45830  Biso   1.000  C
  C746     1.0000 0.98747  0.86635  0.43007  Biso   1.000  C
  C747     1.0000 0.99588  0.86824  0.39534  Biso   1.000  C
  C748     1.0000 0.05420  0.70322  0.44716  Biso   1.000  C
  C749     1.0000 0.07204  0.76288  0.46186  Biso   1.000  C
  C750     1.0000 0.10005  0.77045  0.45633  Biso   1.000  C
  C751     1.0000 0.10218  0.77192  0.48508  Biso   1.000  C
  C752     1.0000 0.07581  0.76519  0.51855  Biso   1.000  C
  C753     1.0000 0.04747  0.75839  0.52167  Biso   1.000  C
  C754     1.0000 0.07656  0.76644  0.55010  Biso   1.000  C
  C755     1.0000 0.52222  0.27374  0.66418  Biso   1.000  C
  C756     1.0000 0.43403  0.31349  0.70811  Biso   1.000  C
  C757     1.0000 0.40131  0.33929  0.70485  Biso   1.000  C
  C758     1.0000 0.37180  0.34312  0.73562  Biso   1.000  C
  C759     1.0000 0.37550  0.31876  0.76866  Biso   1.000  C
  C760     1.0000 0.40895  0.29265  0.76967  Biso   1.000  C
  C761     1.0000 0.32116  0.20918  0.96040  Biso   1.000  C
  C762     1.0000 0.35044  0.20452  0.92976  Biso   1.000  C
  C763     1.0000 0.35106  0.23288  0.89706  Biso   1.000  C
  C764     1.0000 0.32239  0.26519  0.89689  Biso   1.000  C
  C765     1.0000 0.29432  0.26736  0.92876  Biso   1.000  C
  C766     1.0000 0.32178  0.29664  0.86326  Biso   1.000  C
  C767     1.0000 0.34604  0.32156  0.80314  Biso   1.000  C
  C768     1.0000 0.29579  0.35491  0.83465  Biso   1.000  C
  C769     1.0000 0.26862  0.39074  0.83594  Biso   1.000  C
  C770     1.0000 0.27096  0.42098  0.80510  Biso   1.000  C
  C771     1.0000 0.22070  0.45830  0.83486  Biso   1.000  C
  C772     1.0000 0.21611  0.43007  0.86635  Biso   1.000  C
  C773     1.0000 0.24054  0.39534  0.86824  Biso   1.000  C
  C774     1.0000 0.29542  0.44716  0.70322  Biso   1.000  C
  C775     1.0000 0.20322  0.46186  0.76288  Biso   1.000  C
  C776     1.0000 0.17317  0.45633  0.77045  Biso   1.000  C
  C777     1.0000 0.14082  0.48508  0.77192  Biso   1.000  C
  C778     1.0000 0.14045  0.51855  0.76519  Biso   1.000  C
  C779     1.0000 0.17247  0.52167  0.75839  Biso   1.000  C
  C780     1.0000 0.10690  0.55010  0.76644  Biso   1.000  C
  C781     1.0000 0.16418  0.53986  0.02222  Biso   1.000  C
  C782     1.0000 0.20811  0.54437  0.93403  Biso   1.000  C
  C783     1.0000 0.20485  0.55455  0.90131  Biso   1.000  C
  C784     1.0000 0.23562  0.54946  0.87180  Biso   1.000  C
  C785     1.0000 0.26866  0.53708  0.87550  Biso   1.000  C
  C786     1.0000 0.26967  0.52873  0.90895  Biso   1.000  C
  C787     1.0000 0.46040  0.50926  0.82116  Biso   1.000  C
  C788     1.0000 0.42976  0.51528  0.85044  Biso   1.000  C
  C789     1.0000 0.39706  0.51900  0.85106  Biso   1.000  C
  C790     1.0000 0.39689  0.51553  0.82239  Biso   1.000  C
  C791     1.0000 0.42876  0.50956  0.79432  Biso   1.000  C
  C792     1.0000 0.36326  0.51832  0.82178  Biso   1.000  C
  C793     1.0000 0.30314  0.52926  0.84604  Biso   1.000  C
  C794     1.0000 0.33465  0.51465  0.79579  Biso   1.000  C
  C795     1.0000 0.33594  0.50470  0.76862  Biso   1.000  C
  C796     1.0000 0.30510  0.50296  0.77096  Biso   1.000  C
  C797     1.0000 0.33486  0.48614  0.72070  Biso   1.000  C
  C798     1.0000 0.36635  0.48747  0.71611  Biso   1.000  C
  C799     1.0000 0.36824  0.49588  0.74054  Biso   1.000  C
  C800     1.0000 0.20322  0.55420  0.79542  Biso   1.000  C
  C801     1.0000 0.26288  0.57204  0.70322  Biso   1.000  C
  C802     1.0000 0.27045  0.60005  0.67317  Biso   1.000  C
  C803     1.0000 0.27192  0.60218  0.64082  Biso   1.000  C
  C804     1.0000 0.26519  0.57581  0.64045  Biso   1.000  C
  C805     1.0000 0.25839  0.54747  0.67247  Biso   1.000  C
  C806     1.0000 0.26644  0.57656  0.60690  Biso   1.000  C
  C807     1.0000 0.77374  0.02222  0.53986  Biso   1.000  C
  C808     1.0000 0.81349  0.93403  0.54437  Biso   1.000  C
  C809     1.0000 0.83929  0.90131  0.55455  Biso   1.000  C
  C810     1.0000 0.84312  0.87180  0.54946  Biso   1.000  C
  C811     1.0000 0.81876  0.87550  0.53708  Biso   1.000  C
  C812     1.0000 0.79265  0.90895  0.52873  Biso   1.000  C
  C813     1.0000 0.70918  0.82116  0.50926  Biso   1.000  C
  C814     1.0000 0.70452  0.85044  0.51528  Biso   1.000  C
  C815     1.0000 0.73288  0.85106  0.51900  Biso   1.000  C
  C816     1.0000 0.76519  0.82239  0.51553  Biso   1.000  C
  C817     1.0000 0.76736  0.79432  0.50956  Biso   1.000  C
  C818     1.0000 0.79664  0.82178  0.51832  Biso   1.000  C
  C819     1.0000 0.82156  0.84604  0.52926  Biso   1.000  C
  C820     1.0000 0.85491  0.79579  0.51465  Biso   1.000  C
  C821     1.0000 0.89074  0.76862  0.50470  Biso   1.000  C
  C822     1.0000 0.92098  0.77096  0.50296  Biso   1.000  C
  C823     1.0000 0.95830  0.72070  0.48614  Biso   1.000  C
  C824     1.0000 0.93007  0.71611  0.48747  Biso   1.000  C
  C825     1.0000 0.89534  0.74054  0.49588  Biso   1.000  C
  C826     1.0000 0.94716  0.79542  0.55420  Biso   1.000  C
  C827     1.0000 0.96186  0.70322  0.57204  Biso   1.000  C
  C828     1.0000 0.95633  0.67317  0.60005  Biso   1.000  C
  C829     1.0000 0.98508  0.64082  0.60218  Biso   1.000  C
  C830     1.0000 0.01855  0.64045  0.57581  Biso   1.000  C
  C831     1.0000 0.02167  0.67247  0.54747  Biso   1.000  C
  C832     1.0000 0.05010  0.60690  0.57656  Biso   1.000  C
  C833     1.0000 0.03986  0.27374  0.02222  Biso   1.000  C
  C834     1.0000 0.04437  0.31349  0.93403  Biso   1.000  C
  C835     1.0000 0.05455  0.33929  0.90131  Biso   1.000  C
  C836     1.0000 0.04946  0.34312  0.87180  Biso   1.000  C
  C837     1.0000 0.03708  0.31876  0.87550  Biso   1.000  C
  C838     1.0000 0.02873  0.29265  0.90895  Biso   1.000  C
  C839     1.0000 0.00926  0.20918  0.82116  Biso   1.000  C
  C840     1.0000 0.01528  0.20452  0.85044  Biso   1.000  C
  C841     1.0000 0.01900  0.23288  0.85106  Biso   1.000  C
  C842     1.0000 0.01553  0.26519  0.82239  Biso   1.000  C
  C843     1.0000 0.00956  0.26736  0.79432  Biso   1.000  C
  C844     1.0000 0.01832  0.29664  0.82178  Biso   1.000  C
  C845     1.0000 0.02926  0.32156  0.84604  Biso   1.000  C
  C846     1.0000 0.01465  0.35491  0.79579  Biso   1.000  C
  C847     1.0000 0.00470  0.39074  0.76862  Biso   1.000  C
  C848     1.0000 0.00296  0.42098  0.77096  Biso   1.000  C
  C849     1.0000 0.98614  0.45830  0.72070  Biso   1.000  C
  C850     1.0000 0.98747  0.43007  0.71611  Biso   1.000  C
  C851     1.0000 0.99588  0.39534  0.74054  Biso   1.000  C
  C852     1.0000 0.05420  0.44716  0.79542  Biso   1.000  C
  C853     1.0000 0.07204  0.46186  0.70322  Biso   1.000  C
  C854     1.0000 0.10005  0.45633  0.67317  Biso   1.000  C
  C855     1.0000 0.10218  0.48508  0.64082  Biso   1.000  C
  C856     1.0000 0.07581  0.51855  0.64045  Biso   1.000  C
  C857     1.0000 0.04747  0.52167  0.67247  Biso   1.000  C
  C858     1.0000 0.07656  0.55010  0.60690  Biso   1.000  C
  C859     1.0000 0.52222  0.66418  0.53986  Biso   1.000  C
  C860     1.0000 0.43403  0.70811  0.54437  Biso   1.000  C
  C861     1.0000 0.40131  0.70485  0.55455  Biso   1.000  C
  C862     1.0000 0.37180  0.73562  0.54946  Biso   1.000  C
  C863     1.0000 0.37550  0.76866  0.53708  Biso   1.000  C
  C864     1.0000 0.40895  0.76967  0.52873  Biso   1.000  C
  C865     1.0000 0.32116  0.96040  0.50926  Biso   1.000  C
  C866     1.0000 0.35044  0.92976  0.51528  Biso   1.000  C
  C867     1.0000 0.35106  0.89706  0.51900  Biso   1.000  C
  C868     1.0000 0.32239  0.89689  0.51553  Biso   1.000  C
  C869     1.0000 0.29432  0.92876  0.50956  Biso   1.000  C
  C870     1.0000 0.32178  0.86326  0.51832  Biso   1.000  C
  C871     1.0000 0.34604  0.80314  0.52926  Biso   1.000  C
  C872     1.0000 0.29579  0.83465  0.51465  Biso   1.000  C
  C873     1.0000 0.26862  0.83594  0.50470  Biso   1.000  C
  C874     1.0000 0.27096  0.80510  0.50296  Biso   1.000  C
  C875     1.0000 0.22070  0.83486  0.48614  Biso   1.000  C
  C876     1.0000 0.21611  0.86635  0.48747  Biso   1.000  C
  C877     1.0000 0.24054  0.86824  0.49588  Biso   1.000  C
  C878     1.0000 0.29542  0.70322  0.55420  Biso   1.000  C
  C879     1.0000 0.20322  0.76288  0.57204  Biso   1.000  C
  C880     1.0000 0.17317  0.77045  0.60005  Biso   1.000  C
  C881     1.0000 0.14082  0.77192  0.60218  Biso   1.000  C
  C882     1.0000 0.14045  0.76519  0.57581  Biso   1.000  C
  C883     1.0000 0.17247  0.75839  0.54747  Biso   1.000  C
  C884     1.0000 0.10690  0.76644  0.57656  Biso   1.000  C
  C885     1.0000 0.16418  0.02222  0.27374  Biso   1.000  C
  C886     1.0000 0.20811  0.93403  0.31349  Biso   1.000  C
  C887     1.0000 0.20485  0.90131  0.33929  Biso   1.000  C
  C888     1.0000 0.23562  0.87180  0.34312  Biso   1.000  C
  C889     1.0000 0.26866  0.87550  0.31876  Biso   1.000  C
  C890     1.0000 0.26967  0.90895  0.29265  Biso   1.000  C
  C891     1.0000 0.46040  0.82116  0.20918  Biso   1.000  C
  C892     1.0000 0.42976  0.85044  0.20452  Biso   1.000  C
  C893     1.0000 0.39706  0.85106  0.23288  Biso   1.000  C
  C894     1.0000 0.39689  0.82239  0.26519  Biso   1.000  C
  C895     1.0000 0.42876  0.79432  0.26736  Biso   1.000  C
  C896     1.0000 0.36326  0.82178  0.29664  Biso   1.000  C
  C897     1.0000 0.30314  0.84604  0.32156  Biso   1.000  C
  C898     1.0000 0.33465  0.79579  0.35491  Biso   1.000  C
  C899     1.0000 0.33594  0.76862  0.39074  Biso   1.000  C
  C900     1.0000 0.30510  0.77096  0.42098  Biso   1.000  C
  C901     1.0000 0.33486  0.72070  0.45830  Biso   1.000  C
  C902     1.0000 0.36635  0.71611  0.43007  Biso   1.000  C
  C903     1.0000 0.36824  0.74054  0.39534  Biso   1.000  C
  C904     1.0000 0.20322  0.79542  0.44716  Biso   1.000  C
  C905     1.0000 0.26288  0.70322  0.46186  Biso   1.000  C
  C906     1.0000 0.27045  0.67317  0.45633  Biso   1.000  C
  C907     1.0000 0.27192  0.64082  0.48508  Biso   1.000  C
  C908     1.0000 0.26519  0.64045  0.51855  Biso   1.000  C
  C909     1.0000 0.25839  0.67247  0.52167  Biso   1.000  C
  C910     1.0000 0.26644  0.60690  0.55010  Biso   1.000  C
  C911     1.0000 0.77374  0.53986  0.66418  Biso   1.000  C
  C912     1.0000 0.81349  0.54437  0.70811  Biso   1.000  C
  C913     1.0000 0.83929  0.55455  0.70485  Biso   1.000  C
  C914     1.0000 0.84312  0.54946  0.73562  Biso   1.000  C
  C915     1.0000 0.81876  0.53708  0.76866  Biso   1.000  C
  C916     1.0000 0.79265  0.52873  0.76967  Biso   1.000  C
  C917     1.0000 0.70918  0.50926  0.96040  Biso   1.000  C
  C918     1.0000 0.70452  0.51528  0.92976  Biso   1.000  C
  C919     1.0000 0.73288  0.51900  0.89706  Biso   1.000  C
  C920     1.0000 0.76519  0.51553  0.89689  Biso   1.000  C
  C921     1.0000 0.76736  0.50956  0.92876  Biso   1.000  C
  C922     1.0000 0.79664  0.51832  0.86326  Biso   1.000  C
  C923     1.0000 0.82156  0.52926  0.80314  Biso   1.000  C
  C924     1.0000 0.85491  0.51465  0.83465  Biso   1.000  C
  C925     1.0000 0.89074  0.50470  0.83594  Biso   1.000  C
  C926     1.0000 0.92098  0.50296  0.80510  Biso   1.000  C
  C927     1.0000 0.95830  0.48614  0.83486  Biso   1.000  C
  C928     1.0000 0.93007  0.48747  0.86635  Biso   1.000  C
  C929     1.0000 0.89534  0.49588  0.86824  Biso   1.000  C
  C930     1.0000 0.94716  0.55420  0.70322  Biso   1.000  C
  C931     1.0000 0.96186  0.57204  0.76288  Biso   1.000  C
  C932     1.0000 0.95633  0.60005  0.77045  Biso   1.000  C
  C933     1.0000 0.98508  0.60218  0.77192  Biso   1.000  C
  C934     1.0000 0.01855  0.57581  0.76519  Biso   1.000  C
  C935     1.0000 0.02167  0.54747  0.75839  Biso   1.000  C
  C936     1.0000 0.05010  0.57656  0.76644  Biso   1.000  C
  C937     1.0000 0.97778  0.96014  0.83582  Biso   1.000  C
  C938     1.0000 0.06597  0.95563  0.79189  Biso   1.000  C
  C939     1.0000 0.09869  0.94545  0.79515  Biso   1.000  C
  C940     1.0000 0.12820  0.95054  0.76438  Biso   1.000  C
  C941     1.0000 0.12450  0.96292  0.73134  Biso   1.000  C
  C942     1.0000 0.09105  0.97127  0.73033  Biso   1.000  C
  C943     1.0000 0.17884  0.99074  0.53960  Biso   1.000  C
  C944     1.0000 0.14956  0.98472  0.57024  Biso   1.000  C
  C945     1.0000 0.14894  0.98100  0.60294  Biso   1.000  C
  C946     1.0000 0.17761  0.98447  0.60311  Biso   1.000  C
  C947     1.0000 0.20568  0.99044  0.57124  Biso   1.000  C
  C948     1.0000 0.17822  0.98168  0.63674  Biso   1.000  C
  C949     1.0000 0.15396  0.97074  0.69686  Biso   1.000  C
  C950     1.0000 0.20421  0.98535  0.66535  Biso   1.000  C
  C951     1.0000 0.23138  0.99530  0.66406  Biso   1.000  C
  C952     1.0000 0.22904  0.99704  0.69490  Biso   1.000  C
  C953     1.0000 0.27930  0.01386  0.66514  Biso   1.000  C
  C954     1.0000 0.28389  0.01253  0.63365  Biso   1.000  C
  C955     1.0000 0.25946  0.00412  0.63176  Biso   1.000  C
  C956     1.0000 0.20458  0.94580  0.79678  Biso   1.000  C
  C957     1.0000 0.29678  0.92796  0.73712  Biso   1.000  C
  C958     1.0000 0.32683  0.89995  0.72955  Biso   1.000  C
  C959     1.0000 0.35918  0.89782  0.72808  Biso   1.000  C
  C960     1.0000 0.35955  0.92419  0.73481  Biso   1.000  C
  C961     1.0000 0.32753  0.95253  0.74161  Biso   1.000  C
  C962     1.0000 0.39310  0.92344  0.73356  Biso   1.000  C
  C963     1.0000 0.46014  0.47778  0.22626  Biso   1.000  C
  C964     1.0000 0.45563  0.56597  0.18651  Biso   1.000  C
  C965     1.0000 0.44545  0.59869  0.16071  Biso   1.000  C
  C966     1.0000 0.45054  0.62820  0.15688  Biso   1.000  C
  C967     1.0000 0.46292  0.62450  0.18124  Biso   1.000  C
  C968     1.0000 0.47127  0.59105  0.20735  Biso   1.000  C
  C969     1.0000 0.49074  0.67884  0.29082  Biso   1.000  C
  C970     1.0000 0.48472  0.64956  0.29548  Biso   1.000  C
  C971     1.0000 0.48100  0.64894  0.26712  Biso   1.000  C
  C972     1.0000 0.48447  0.67761  0.23481  Biso   1.000  C
  C973     1.0000 0.49044  0.70568  0.23264  Biso   1.000  C
  C974     1.0000 0.48168  0.67822  0.20336  Biso   1.000  C
  C975     1.0000 0.47074  0.65396  0.17844  Biso   1.000  C
  C976     1.0000 0.48535  0.70421  0.14509  Biso   1.000  C
  C977     1.0000 0.49530  0.73138  0.10926  Biso   1.000  C
  C978     1.0000 0.49704  0.72904  0.07902  Biso   1.000  C
  C979     1.0000 0.51386  0.77930  0.04170  Biso   1.000  C
  C980     1.0000 0.51253  0.78389  0.06993  Biso   1.000  C
  C981     1.0000 0.50412  0.75946  0.10466  Biso   1.000  C
  C982     1.0000 0.44580  0.70458  0.05284  Biso   1.000  C
  C983     1.0000 0.42796  0.79678  0.03814  Biso   1.000  C
  C984     1.0000 0.39995  0.82683  0.04367  Biso   1.000  C
  C985     1.0000 0.39782  0.85918  0.01492  Biso   1.000  C
  C986     1.0000 0.42419  0.85955  0.98145  Biso   1.000  C
  C987     1.0000 0.45253  0.82753  0.97833  Biso   1.000  C
  C988     1.0000 0.42344  0.89310  0.94990  Biso   1.000  C
  C989     1.0000 0.72626  0.83582  0.96014  Biso   1.000  C
  C990     1.0000 0.68651  0.79189  0.95563  Biso   1.000  C
  C991     1.0000 0.66071  0.79515  0.94545  Biso   1.000  C
  C992     1.0000 0.65688  0.76438  0.95054  Biso   1.000  C
  C993     1.0000 0.68124  0.73134  0.96292  Biso   1.000  C
  C994     1.0000 0.70735  0.73033  0.97127  Biso   1.000  C
  C995     1.0000 0.79082  0.53960  0.99074  Biso   1.000  C
  C996     1.0000 0.79548  0.57024  0.98472  Biso   1.000  C
  C997     1.0000 0.76712  0.60294  0.98100  Biso   1.000  C
  C998     1.0000 0.73481  0.60311  0.98447  Biso   1.000  C
  C999     1.0000 0.73264  0.57124  0.99044  Biso   1.000  C
  C1000    1.0000 0.70336  0.63674  0.98168  Biso   1.000  C
  C1001    1.0000 0.67844  0.69686  0.97074  Biso   1.000  C
  C1002    1.0000 0.64509  0.66535  0.98535  Biso   1.000  C
  C1003    1.0000 0.60926  0.66406  0.99530  Biso   1.000  C
  C1004    1.0000 0.57902  0.69490  0.99704  Biso   1.000  C
  C1005    1.0000 0.54170  0.66514  0.01386  Biso   1.000  C
  C1006    1.0000 0.56993  0.63365  0.01253  Biso   1.000  C
  C1007    1.0000 0.60466  0.63176  0.00412  Biso   1.000  C
  C1008    1.0000 0.55284  0.79678  0.94580  Biso   1.000  C
  C1009    1.0000 0.53814  0.73712  0.92796  Biso   1.000  C
  C1010    1.0000 0.54367  0.72955  0.89995  Biso   1.000  C
  C1011    1.0000 0.51492  0.72808  0.89782  Biso   1.000  C
  C1012    1.0000 0.48145  0.73481  0.92419  Biso   1.000  C
  C1013    1.0000 0.47833  0.74161  0.95253  Biso   1.000  C
  C1014    1.0000 0.44990  0.73356  0.92344  Biso   1.000  C
  C1015    1.0000 0.33582  0.22626  0.47778  Biso   1.000  C
  C1016    1.0000 0.29189  0.18651  0.56597  Biso   1.000  C
  C1017    1.0000 0.29515  0.16071  0.59869  Biso   1.000  C
  C1018    1.0000 0.26438  0.15688  0.62820  Biso   1.000  C
  C1019    1.0000 0.23134  0.18124  0.62450  Biso   1.000  C
  C1020    1.0000 0.23033  0.20735  0.59105  Biso   1.000  C
  C1021    1.0000 0.03960  0.29082  0.67884  Biso   1.000  C
  C1022    1.0000 0.07024  0.29548  0.64956  Biso   1.000  C
  C1023    1.0000 0.10294  0.26712  0.64894  Biso   1.000  C
  C1024    1.0000 0.10311  0.23481  0.67761  Biso   1.000  C
  C1025    1.0000 0.07124  0.23264  0.70568  Biso   1.000  C
  C1026    1.0000 0.13674  0.20336  0.67822  Biso   1.000  C
  C1027    1.0000 0.19686  0.17844  0.65396  Biso   1.000  C
  C1028    1.0000 0.16535  0.14509  0.70421  Biso   1.000  C
  C1029    1.0000 0.16406  0.10926  0.73138  Biso   1.000  C
  C1030    1.0000 0.19490  0.07902  0.72904  Biso   1.000  C
  C1031    1.0000 0.16514  0.04170  0.77930  Biso   1.000  C
  C1032    1.0000 0.13365  0.06993  0.78389  Biso   1.000  C
  C1033    1.0000 0.13176  0.10466  0.75946  Biso   1.000  C
  C1034    1.0000 0.29678  0.05284  0.70458  Biso   1.000  C
  C1035    1.0000 0.23712  0.03814  0.79678  Biso   1.000  C
  C1036    1.0000 0.22955  0.04367  0.82683  Biso   1.000  C
  C1037    1.0000 0.22808  0.01492  0.85918  Biso   1.000  C
  C1038    1.0000 0.23481  0.98145  0.85955  Biso   1.000  C
  C1039    1.0000 0.24161  0.97833  0.82753  Biso   1.000  C
  C1040    1.0000 0.23356  0.94990  0.89310  Biso   1.000  C
  C1041    1.0000 0.33582  0.96014  0.22626  Biso   1.000  C
  C1042    1.0000 0.29189  0.95563  0.18651  Biso   1.000  C
  C1043    1.0000 0.29515  0.94545  0.16071  Biso   1.000  C
  C1044    1.0000 0.26438  0.95054  0.15688  Biso   1.000  C
  C1045    1.0000 0.23134  0.96292  0.18124  Biso   1.000  C
  C1046    1.0000 0.23033  0.97127  0.20735  Biso   1.000  C
  C1047    1.0000 0.03960  0.99074  0.29082  Biso   1.000  C
  C1048    1.0000 0.07024  0.98472  0.29548  Biso   1.000  C
  C1049    1.0000 0.10294  0.98100  0.26712  Biso   1.000  C
  C1050    1.0000 0.10311  0.98447  0.23481  Biso   1.000  C
  C1051    1.0000 0.07124  0.99044  0.23264  Biso   1.000  C
  C1052    1.0000 0.13674  0.98168  0.20336  Biso   1.000  C
  C1053    1.0000 0.19686  0.97074  0.17844  Biso   1.000  C
  C1054    1.0000 0.16535  0.98535  0.14509  Biso   1.000  C
  C1055    1.0000 0.16406  0.99530  0.10926  Biso   1.000  C
  C1056    1.0000 0.19490  0.99704  0.07902  Biso   1.000  C
  C1057    1.0000 0.16514  0.01386  0.04170  Biso   1.000  C
  C1058    1.0000 0.13365  0.01253  0.06993  Biso   1.000  C
  C1059    1.0000 0.13176  0.00412  0.10466  Biso   1.000  C
  C1060    1.0000 0.29678  0.94580  0.05284  Biso   1.000  C
  C1061    1.0000 0.23712  0.92796  0.03814  Biso   1.000  C
  C1062    1.0000 0.22955  0.89995  0.04367  Biso   1.000  C
  C1063    1.0000 0.22808  0.89782  0.01492  Biso   1.000  C
  C1064    1.0000 0.23481  0.92419  0.98145  Biso   1.000  C
  C1065    1.0000 0.24161  0.95253  0.97833  Biso   1.000  C
  C1066    1.0000 0.23356  0.92344  0.94990  Biso   1.000  C
  C1067    1.0000 0.72626  0.47778  0.83582  Biso   1.000  C
  C1068    1.0000 0.68651  0.56597  0.79189  Biso   1.000  C
  C1069    1.0000 0.66071  0.59869  0.79515  Biso   1.000  C
  C1070    1.0000 0.65688  0.62820  0.76438  Biso   1.000  C
  C1071    1.0000 0.68124  0.62450  0.73134  Biso   1.000  C
  C1072    1.0000 0.70735  0.59105  0.73033  Biso   1.000  C
  C1073    1.0000 0.79082  0.67884  0.53960  Biso   1.000  C
  C1074    1.0000 0.79548  0.64956  0.57024  Biso   1.000  C
  C1075    1.0000 0.76712  0.64894  0.60294  Biso   1.000  C
  C1076    1.0000 0.73481  0.67761  0.60311  Biso   1.000  C
  C1077    1.0000 0.73264  0.70568  0.57124  Biso   1.000  C
  C1078    1.0000 0.70336  0.67822  0.63674  Biso   1.000  C
  C1079    1.0000 0.67844  0.65396  0.69686  Biso   1.000  C
  C1080    1.0000 0.64509  0.70421  0.66535  Biso   1.000  C
  C1081    1.0000 0.60926  0.73138  0.66406  Biso   1.000  C
  C1082    1.0000 0.57902  0.72904  0.69490  Biso   1.000  C
  C1083    1.0000 0.54170  0.77930  0.66514  Biso   1.000  C
  C1084    1.0000 0.56993  0.78389  0.63365  Biso   1.000  C
  C1085    1.0000 0.60466  0.75946  0.63176  Biso   1.000  C
  C1086    1.0000 0.55284  0.70458  0.79678  Biso   1.000  C
  C1087    1.0000 0.53814  0.79678  0.73712  Biso   1.000  C
  C1088    1.0000 0.54367  0.82683  0.72955  Biso   1.000  C
  C1089    1.0000 0.51492  0.85918  0.72808  Biso   1.000  C
  C1090    1.0000 0.48145  0.85955  0.73481  Biso   1.000  C
  C1091    1.0000 0.47833  0.82753  0.74161  Biso   1.000  C
  C1092    1.0000 0.44990  0.89310  0.73356  Biso   1.000  C
  C1093    1.0000 0.46014  0.83582  0.47778  Biso   1.000  C
  C1094    1.0000 0.45563  0.79189  0.56597  Biso   1.000  C
  C1095    1.0000 0.44545  0.79515  0.59869  Biso   1.000  C
  C1096    1.0000 0.45054  0.76438  0.62820  Biso   1.000  C
  C1097    1.0000 0.46292  0.73134  0.62450  Biso   1.000  C
  C1098    1.0000 0.47127  0.73033  0.59105  Biso   1.000  C
  C1099    1.0000 0.49074  0.53960  0.67884  Biso   1.000  C
  C1100    1.0000 0.48472  0.57024  0.64956  Biso   1.000  C
  C1101    1.0000 0.48100  0.60294  0.64894  Biso   1.000  C
  C1102    1.0000 0.48447  0.60311  0.67761  Biso   1.000  C
  C1103    1.0000 0.49044  0.57124  0.70568  Biso   1.000  C
  C1104    1.0000 0.48168  0.63674  0.67822  Biso   1.000  C
  C1105    1.0000 0.47074  0.69686  0.65396  Biso   1.000  C
  C1106    1.0000 0.48535  0.66535  0.70421  Biso   1.000  C
  C1107    1.0000 0.49530  0.66406  0.73138  Biso   1.000  C
  C1108    1.0000 0.49704  0.69490  0.72904  Biso   1.000  C
  C1109    1.0000 0.51386  0.66514  0.77930  Biso   1.000  C
  C1110    1.0000 0.51253  0.63365  0.78389  Biso   1.000  C
  C1111    1.0000 0.50412  0.63176  0.75946  Biso   1.000  C
  C1112    1.0000 0.44580  0.79678  0.70458  Biso   1.000  C
  C1113    1.0000 0.42796  0.73712  0.79678  Biso   1.000  C
  C1114    1.0000 0.39995  0.72955  0.82683  Biso   1.000  C
  C1115    1.0000 0.39782  0.72808  0.85918  Biso   1.000  C
  C1116    1.0000 0.42419  0.73481  0.85955  Biso   1.000  C
  C1117    1.0000 0.45253  0.74161  0.82753  Biso   1.000  C
  C1118    1.0000 0.42344  0.73356  0.89310  Biso   1.000  C
  C1119    1.0000 0.97778  0.22626  0.96014  Biso   1.000  C
  C1120    1.0000 0.06597  0.18651  0.95563  Biso   1.000  C
  C1121    1.0000 0.09869  0.16071  0.94545  Biso   1.000  C
  C1122    1.0000 0.12820  0.15688  0.95054  Biso   1.000  C
  C1123    1.0000 0.12450  0.18124  0.96292  Biso   1.000  C
  C1124    1.0000 0.09105  0.20735  0.97127  Biso   1.000  C
  C1125    1.0000 0.17884  0.29082  0.99074  Biso   1.000  C
  C1126    1.0000 0.14956  0.29548  0.98472  Biso   1.000  C
  C1127    1.0000 0.14894  0.26712  0.98100  Biso   1.000  C
  C1128    1.0000 0.17761  0.23481  0.98447  Biso   1.000  C
  C1129    1.0000 0.20568  0.23264  0.99044  Biso   1.000  C
  C1130    1.0000 0.17822  0.20336  0.98168  Biso   1.000  C
  C1131    1.0000 0.15396  0.17844  0.97074  Biso   1.000  C
  C1132    1.0000 0.20421  0.14509  0.98535  Biso   1.000  C
  C1133    1.0000 0.23138  0.10926  0.99530  Biso   1.000  C
  C1134    1.0000 0.22904  0.07902  0.99704  Biso   1.000  C
  C1135    1.0000 0.27930  0.04170  0.01386  Biso   1.000  C
  C1136    1.0000 0.28389  0.06993  0.01253  Biso   1.000  C
  C1137    1.0000 0.25946  0.10466  0.00412  Biso   1.000  C
  C1138    1.0000 0.20458  0.05284  0.94580  Biso   1.000  C
  C1139    1.0000 0.29678  0.03814  0.92796  Biso   1.000  C
  C1140    1.0000 0.32683  0.04367  0.89995  Biso   1.000  C
  C1141    1.0000 0.35918  0.01492  0.89782  Biso   1.000  C
  C1142    1.0000 0.35955  0.98145  0.92419  Biso   1.000  C
  C1143    1.0000 0.32753  0.97833  0.95253  Biso   1.000  C
  C1144    1.0000 0.39310  0.94990  0.92344  Biso   1.000  C
  C1145    1.0000 0.72626  0.96014  0.47778  Biso   1.000  C
  C1146    1.0000 0.68651  0.95563  0.56597  Biso   1.000  C
  C1147    1.0000 0.66071  0.94545  0.59869  Biso   1.000  C
  C1148    1.0000 0.65688  0.95054  0.62820  Biso   1.000  C
  C1149    1.0000 0.68124  0.96292  0.62450  Biso   1.000  C
  C1150    1.0000 0.70735  0.97127  0.59105  Biso   1.000  C
  C1151    1.0000 0.79082  0.99074  0.67884  Biso   1.000  C
  C1152    1.0000 0.79548  0.98472  0.64956  Biso   1.000  C
  C1153    1.0000 0.76712  0.98100  0.64894  Biso   1.000  C
  C1154    1.0000 0.73481  0.98447  0.67761  Biso   1.000  C
  C1155    1.0000 0.73264  0.99044  0.70568  Biso   1.000  C
  C1156    1.0000 0.70336  0.98168  0.67822  Biso   1.000  C
  C1157    1.0000 0.67844  0.97074  0.65396  Biso   1.000  C
  C1158    1.0000 0.64509  0.98535  0.70421  Biso   1.000  C
  C1159    1.0000 0.60926  0.99530  0.73138  Biso   1.000  C
  C1160    1.0000 0.57902  0.99704  0.72904  Biso   1.000  C
  C1161    1.0000 0.54170  0.01386  0.77930  Biso   1.000  C
  C1162    1.0000 0.56993  0.01253  0.78389  Biso   1.000  C
  C1163    1.0000 0.60466  0.00412  0.75946  Biso   1.000  C
  C1164    1.0000 0.55284  0.94580  0.70458  Biso   1.000  C
  C1165    1.0000 0.53814  0.92796  0.79678  Biso   1.000  C
  C1166    1.0000 0.54367  0.89995  0.82683  Biso   1.000  C
  C1167    1.0000 0.51492  0.89782  0.85918  Biso   1.000  C
  C1168    1.0000 0.48145  0.92419  0.85955  Biso   1.000  C
  C1169    1.0000 0.47833  0.95253  0.82753  Biso   1.000  C
  C1170    1.0000 0.44990  0.92344  0.89310  Biso   1.000  C
  C1171    1.0000 0.33582  0.47778  0.96014  Biso   1.000  C
  C1172    1.0000 0.29189  0.56597  0.95563  Biso   1.000  C
  C1173    1.0000 0.29515  0.59869  0.94545  Biso   1.000  C
  C1174    1.0000 0.26438  0.62820  0.95054  Biso   1.000  C
  C1175    1.0000 0.23134  0.62450  0.96292  Biso   1.000  C
  C1176    1.0000 0.23033  0.59105  0.97127  Biso   1.000  C
  C1177    1.0000 0.03960  0.67884  0.99074  Biso   1.000  C
  C1178    1.0000 0.07024  0.64956  0.98472  Biso   1.000  C
  C1179    1.0000 0.10294  0.64894  0.98100  Biso   1.000  C
  C1180    1.0000 0.10311  0.67761  0.98447  Biso   1.000  C
  C1181    1.0000 0.07124  0.70568  0.99044  Biso   1.000  C
  C1182    1.0000 0.13674  0.67822  0.98168  Biso   1.000  C
  C1183    1.0000 0.19686  0.65396  0.97074  Biso   1.000  C
  C1184    1.0000 0.16535  0.70421  0.98535  Biso   1.000  C
  C1185    1.0000 0.16406  0.73138  0.99530  Biso   1.000  C
  C1186    1.0000 0.19490  0.72904  0.99704  Biso   1.000  C
  C1187    1.0000 0.16514  0.77930  0.01386  Biso   1.000  C
  C1188    1.0000 0.13365  0.78389  0.01253  Biso   1.000  C
  C1189    1.0000 0.13176  0.75946  0.00412  Biso   1.000  C
  C1190    1.0000 0.29678  0.70458  0.94580  Biso   1.000  C
  C1191    1.0000 0.23712  0.79678  0.92796  Biso   1.000  C
  C1192    1.0000 0.22955  0.82683  0.89995  Biso   1.000  C
  C1193    1.0000 0.22808  0.85918  0.89782  Biso   1.000  C
  C1194    1.0000 0.23481  0.85955  0.92419  Biso   1.000  C
  C1195    1.0000 0.24161  0.82753  0.95253  Biso   1.000  C
  C1196    1.0000 0.23356  0.89310  0.92344  Biso   1.000  C
  C1197    1.0000 0.97778  0.83582  0.22626  Biso   1.000  C
  C1198    1.0000 0.06597  0.79189  0.18651  Biso   1.000  C
  C1199    1.0000 0.09869  0.79515  0.16071  Biso   1.000  C
  C1200    1.0000 0.12820  0.76438  0.15688  Biso   1.000  C
  C1201    1.0000 0.12450  0.73134  0.18124  Biso   1.000  C
  C1202    1.0000 0.09105  0.73033  0.20735  Biso   1.000  C
  C1203    1.0000 0.17884  0.53960  0.29082  Biso   1.000  C
  C1204    1.0000 0.14956  0.57024  0.29548  Biso   1.000  C
  C1205    1.0000 0.14894  0.60294  0.26712  Biso   1.000  C
  C1206    1.0000 0.17761  0.60311  0.23481  Biso   1.000  C
  C1207    1.0000 0.20568  0.57124  0.23264  Biso   1.000  C
  C1208    1.0000 0.17822  0.63674  0.20336  Biso   1.000  C
  C1209    1.0000 0.15396  0.69686  0.17844  Biso   1.000  C
  C1210    1.0000 0.20421  0.66535  0.14509  Biso   1.000  C
  C1211    1.0000 0.23138  0.66406  0.10926  Biso   1.000  C
  C1212    1.0000 0.22904  0.69490  0.07902  Biso   1.000  C
  C1213    1.0000 0.27930  0.66514  0.04170  Biso   1.000  C
  C1214    1.0000 0.28389  0.63365  0.06993  Biso   1.000  C
  C1215    1.0000 0.25946  0.63176  0.10466  Biso   1.000  C
  C1216    1.0000 0.20458  0.79678  0.05284  Biso   1.000  C
  C1217    1.0000 0.29678  0.73712  0.03814  Biso   1.000  C
  C1218    1.0000 0.32683  0.72955  0.04367  Biso   1.000  C
  C1219    1.0000 0.35918  0.72808  0.01492  Biso   1.000  C
  C1220    1.0000 0.35955  0.73481  0.98145  Biso   1.000  C
  C1221    1.0000 0.32753  0.74161  0.97833  Biso   1.000  C
  C1222    1.0000 0.39310  0.73356  0.94990  Biso   1.000  C
  C1223    1.0000 0.46014  0.22626  0.83582  Biso   1.000  C
  C1224    1.0000 0.45563  0.18651  0.79189  Biso   1.000  C
  C1225    1.0000 0.44545  0.16071  0.79515  Biso   1.000  C
  C1226    1.0000 0.45054  0.15688  0.76438  Biso   1.000  C
  C1227    1.0000 0.46292  0.18124  0.73134  Biso   1.000  C
  C1228    1.0000 0.47127  0.20735  0.73033  Biso   1.000  C
  C1229    1.0000 0.49074  0.29082  0.53960  Biso   1.000  C
  C1230    1.0000 0.48472  0.29548  0.57024  Biso   1.000  C
  C1231    1.0000 0.48100  0.26712  0.60294  Biso   1.000  C
  C1232    1.0000 0.48447  0.23481  0.60311  Biso   1.000  C
  C1233    1.0000 0.49044  0.23264  0.57124  Biso   1.000  C
  C1234    1.0000 0.48168  0.20336  0.63674  Biso   1.000  C
  C1235    1.0000 0.47074  0.17844  0.69686  Biso   1.000  C
  C1236    1.0000 0.48535  0.14509  0.66535  Biso   1.000  C
  C1237    1.0000 0.49530  0.10926  0.66406  Biso   1.000  C
  C1238    1.0000 0.49704  0.07902  0.69490  Biso   1.000  C
  C1239    1.0000 0.51386  0.04170  0.66514  Biso   1.000  C
  C1240    1.0000 0.51253  0.06993  0.63365  Biso   1.000  C
  C1241    1.0000 0.50412  0.10466  0.63176  Biso   1.000  C
  C1242    1.0000 0.44580  0.05284  0.79678  Biso   1.000  C
  C1243    1.0000 0.42796  0.03814  0.73712  Biso   1.000  C
  C1244    1.0000 0.39995  0.04367  0.72955  Biso   1.000  C
  C1245    1.0000 0.39782  0.01492  0.72808  Biso   1.000  C
  C1246    1.0000 0.42419  0.98145  0.73481  Biso   1.000  C
  C1247    1.0000 0.45253  0.97833  0.74161  Biso   1.000  C
  C1248    1.0000 0.42344  0.94990  0.73356  Biso   1.000  C
  S1       1.0000 0.95114  0.96800  0.37876  Biso   1.000  S
  S2       1.0000 0.91607  0.18383  0.32365  Biso   1.000  S
  S3       1.0000 0.46800  0.45114  0.70210  Biso   1.000  S
  S4       1.0000 0.68383  0.41607  0.57645  Biso   1.000  S
  S5       1.0000 0.87876  0.70210  0.45114  Biso   1.000  S
  S6       1.0000 0.82365  0.57645  0.41607  Biso   1.000  S
  S7       1.0000 0.20210  0.37876  0.96800  Biso   1.000  S
  S8       1.0000 0.07645  0.32365  0.18383  Biso   1.000  S
  S9       1.0000 0.95114  0.37876  0.70210  Biso   1.000  S
  S10      1.0000 0.91607  0.32365  0.57645  Biso   1.000  S
  S11      1.0000 0.46800  0.70210  0.37876  Biso   1.000  S
  S12      1.0000 0.68383  0.57645  0.32365  Biso   1.000  S
  S13      1.0000 0.87876  0.45114  0.96800  Biso   1.000  S
  S14      1.0000 0.82365  0.41607  0.18383  Biso   1.000  S
  S15      1.0000 0.20210  0.96800  0.45114  Biso   1.000  S
  S16      1.0000 0.07645  0.18383  0.41607  Biso   1.000  S
  S17      1.0000 0.95114  0.70210  0.96800  Biso   1.000  S
  S18      1.0000 0.91607  0.57645  0.18383  Biso   1.000  S
  S19      1.0000 0.46800  0.37876  0.45114  Biso   1.000  S
  S20      1.0000 0.68383  0.32365  0.41607  Biso   1.000  S
  S21      1.0000 0.87876  0.96800  0.70210  Biso   1.000  S
  S22      1.0000 0.82365  0.18383  0.57645  Biso   1.000  S
  S23      1.0000 0.20210  0.45114  0.37876  Biso   1.000  S
  S24      1.0000 0.07645  0.41607  0.32365  Biso   1.000  S
  S25      1.0000 0.03200  0.04886  0.12124  Biso   1.000  S
  S26      1.0000 0.81617  0.08393  0.17635  Biso   1.000  S
  S27      1.0000 0.54886  0.53200  0.79790  Biso   1.000  S
  S28      1.0000 0.58393  0.31617  0.92355  Biso   1.000  S
  S29      1.0000 0.29790  0.12124  0.04886  Biso   1.000  S
  S30      1.0000 0.42355  0.17635  0.08393  Biso   1.000  S
  S31      1.0000 0.62124  0.79790  0.53200  Biso   1.000  S
  S32      1.0000 0.67635  0.92355  0.31617  Biso   1.000  S
  S33      1.0000 0.62124  0.04886  0.79790  Biso   1.000  S
  S34      1.0000 0.67635  0.08393  0.92355  Biso   1.000  S
  S35      1.0000 0.29790  0.53200  0.12124  Biso   1.000  S
  S36      1.0000 0.42355  0.31617  0.17635  Biso   1.000  S
  S37      1.0000 0.54886  0.12124  0.53200  Biso   1.000  S
  S38      1.0000 0.58393  0.17635  0.31617  Biso   1.000  S
  S39      1.0000 0.03200  0.79790  0.04886  Biso   1.000  S
  S40      1.0000 0.81617  0.92355  0.08393  Biso   1.000  S
  S41      1.0000 0.29790  0.04886  0.53200  Biso   1.000  S
  S42      1.0000 0.42355  0.08393  0.31617  Biso   1.000  S
  S43      1.0000 0.62124  0.53200  0.04886  Biso   1.000  S
  S44      1.0000 0.67635  0.31617  0.08393  Biso   1.000  S
  S45      1.0000 0.03200  0.12124  0.79790  Biso   1.000  S
  S46      1.0000 0.81617  0.17635  0.92355  Biso   1.000  S
  S47      1.0000 0.54886  0.79790  0.12124  Biso   1.000  S
  S48      1.0000 0.58393  0.92355  0.17635  Biso   1.000  S
  S49      1.0000 0.04886  0.03200  0.62124  Biso   1.000  S
  S50      1.0000 0.08393  0.81617  0.67635  Biso   1.000  S
  S51      1.0000 0.53200  0.54886  0.29790  Biso   1.000  S
  S52      1.0000 0.31617  0.58393  0.42355  Biso   1.000  S
  S53      1.0000 0.12124  0.29790  0.54886  Biso   1.000  S
  S54      1.0000 0.17635  0.42355  0.58393  Biso   1.000  S
  S55      1.0000 0.79790  0.62124  0.03200  Biso   1.000  S
  S56      1.0000 0.92355  0.67635  0.81617  Biso   1.000  S
  S57      1.0000 0.04886  0.62124  0.29790  Biso   1.000  S
  S58      1.0000 0.08393  0.67635  0.42355  Biso   1.000  S
  S59      1.0000 0.53200  0.29790  0.62124  Biso   1.000  S
  S60      1.0000 0.31617  0.42355  0.67635  Biso   1.000  S
  S61      1.0000 0.12124  0.54886  0.03200  Biso   1.000  S
  S62      1.0000 0.17635  0.58393  0.81617  Biso   1.000  S
  S63      1.0000 0.79790  0.03200  0.54886  Biso   1.000  S
  S64      1.0000 0.92355  0.81617  0.58393  Biso   1.000  S
  S65      1.0000 0.04886  0.29790  0.03200  Biso   1.000  S
  S66      1.0000 0.08393  0.42355  0.81617  Biso   1.000  S
  S67      1.0000 0.53200  0.62124  0.54886  Biso   1.000  S
  S68      1.0000 0.31617  0.67635  0.58393  Biso   1.000  S
  S69      1.0000 0.12124  0.03200  0.29790  Biso   1.000  S
  S70      1.0000 0.17635  0.81617  0.42355  Biso   1.000  S
  S71      1.0000 0.79790  0.54886  0.62124  Biso   1.000  S
  S72      1.0000 0.92355  0.58393  0.67635  Biso   1.000  S
  S73      1.0000 0.96800  0.95114  0.87876  Biso   1.000  S
  S74      1.0000 0.18383  0.91607  0.82365  Biso   1.000  S
  S75      1.0000 0.45114  0.46800  0.20210  Biso   1.000  S
  S76      1.0000 0.41607  0.68383  0.07645  Biso   1.000  S
  S77      1.0000 0.70210  0.87876  0.95114  Biso   1.000  S
  S78      1.0000 0.57645  0.82365  0.91607  Biso   1.000  S
  S79      1.0000 0.37876  0.20210  0.46800  Biso   1.000  S
  S80      1.0000 0.32365  0.07645  0.68383  Biso   1.000  S
  S81      1.0000 0.37876  0.95114  0.20210  Biso   1.000  S
  S82      1.0000 0.32365  0.91607  0.07645  Biso   1.000  S
  S83      1.0000 0.70210  0.46800  0.87876  Biso   1.000  S
  S84      1.0000 0.57645  0.68383  0.82365  Biso   1.000  S
  S85      1.0000 0.45114  0.87876  0.46800  Biso   1.000  S
  S86      1.0000 0.41607  0.82365  0.68383  Biso   1.000  S
  S87      1.0000 0.96800  0.20210  0.95114  Biso   1.000  S
  S88      1.0000 0.18383  0.07645  0.91607  Biso   1.000  S
  S89      1.0000 0.70210  0.95114  0.46800  Biso   1.000  S
  S90      1.0000 0.57645  0.91607  0.68383  Biso   1.000  S
  S91      1.0000 0.37876  0.46800  0.95114  Biso   1.000  S
  S92      1.0000 0.32365  0.68383  0.91607  Biso   1.000  S
  S93      1.0000 0.96800  0.87876  0.20210  Biso   1.000  S
  S94      1.0000 0.18383  0.82365  0.07645  Biso   1.000  S
  S95      1.0000 0.45114  0.20210  0.87876  Biso   1.000  S
  S96      1.0000 0.41607  0.07645  0.82365  Biso   1.000  S
  N1       1.0000 0.96734  0.98592  0.30524  Biso   1.000  N
  N2       1.0000 0.96898  0.06152  0.25964  Biso   1.000  N
  N3       1.0000 0.99421  0.20663  0.03921  Biso   1.000  N
  N4       1.0000 0.97331  0.15151  0.16721  Biso   1.000  N
  N5       1.0000 0.98827  0.20533  0.13383  Biso   1.000  N
  N6       1.0000 0.97584  0.17956  0.19754  Biso   1.000  N
  N7       1.0000 0.00571  0.25231  0.19589  Biso   1.000  N
  N8       1.0000 0.96613  0.21903  0.27857  Biso   1.000  N
  N9       1.0000 0.95465  0.29633  0.24281  Biso   1.000  N
  N10      1.0000 0.95260  0.39240  0.23426  Biso   1.000  N
  N11      1.0000 0.48592  0.46734  0.74150  Biso   1.000  N
  N12      1.0000 0.56152  0.46898  0.70986  Biso   1.000  N
  N13      1.0000 0.70663  0.49421  0.75995  Biso   1.000  N
  N14      1.0000 0.65151  0.47331  0.70797  Biso   1.000  N
  N15      1.0000 0.70533  0.48827  0.67257  Biso   1.000  N
  N16      1.0000 0.67956  0.47584  0.64706  Biso   1.000  N
  N17      1.0000 0.75231  0.50571  0.54609  Biso   1.000  N
  N18      1.0000 0.71903  0.46613  0.53627  Biso   1.000  N
  N19      1.0000 0.79633  0.45465  0.50621  Biso   1.000  N
  N20      1.0000 0.89240  0.45260  0.42074  Biso   1.000  N
  N21      1.0000 0.80524  0.74150  0.46734  Biso   1.000  N
  N22      1.0000 0.75964  0.70986  0.46898  Biso   1.000  N
  N23      1.0000 0.53921  0.75995  0.49421  Biso   1.000  N
  N24      1.0000 0.66721  0.70797  0.47331  Biso   1.000  N
  N25      1.0000 0.63383  0.67257  0.48827  Biso   1.000  N
  N26      1.0000 0.69754  0.64706  0.47584  Biso   1.000  N
  N27      1.0000 0.69589  0.54609  0.50571  Biso   1.000  N
  N28      1.0000 0.77857  0.53627  0.46613  Biso   1.000  N
  N29      1.0000 0.74281  0.50621  0.45465  Biso   1.000  N
  N30      1.0000 0.73426  0.42074  0.45260  Biso   1.000  N
  N31      1.0000 0.24150  0.30524  0.98592  Biso   1.000  N
  N32      1.0000 0.20986  0.25964  0.06152  Biso   1.000  N
  N33      1.0000 0.25995  0.03921  0.20663  Biso   1.000  N
  N34      1.0000 0.20797  0.16721  0.15151  Biso   1.000  N
  N35      1.0000 0.17257  0.13383  0.20533  Biso   1.000  N
  N36      1.0000 0.14706  0.19754  0.17956  Biso   1.000  N
  N37      1.0000 0.04609  0.19589  0.25231  Biso   1.000  N
  N38      1.0000 0.03627  0.27857  0.21903  Biso   1.000  N
  N39      1.0000 0.00621  0.24281  0.29633  Biso   1.000  N
  N40      1.0000 0.92074  0.23426  0.39240  Biso   1.000  N
  N41      1.0000 0.96734  0.30524  0.74150  Biso   1.000  N
  N42      1.0000 0.96898  0.25964  0.70986  Biso   1.000  N
  N43      1.0000 0.99421  0.03921  0.75995  Biso   1.000  N
  N44      1.0000 0.97331  0.16721  0.70797  Biso   1.000  N
  N45      1.0000 0.98827  0.13383  0.67257  Biso   1.000  N
  N46      1.0000 0.97584  0.19754  0.64706  Biso   1.000  N
  N47      1.0000 0.00571  0.19589  0.54609  Biso   1.000  N
  N48      1.0000 0.96613  0.27857  0.53627  Biso   1.000  N
  N49      1.0000 0.95465  0.24281  0.50621  Biso   1.000  N
  N50      1.0000 0.95260  0.23426  0.42074  Biso   1.000  N
  N51      1.0000 0.48592  0.74150  0.30524  Biso   1.000  N
  N52      1.0000 0.56152  0.70986  0.25964  Biso   1.000  N
  N53      1.0000 0.70663  0.75995  0.03921  Biso   1.000  N
  N54      1.0000 0.65151  0.70797  0.16721  Biso   1.000  N
  N55      1.0000 0.70533  0.67257  0.13383  Biso   1.000  N
  N56      1.0000 0.67956  0.64706  0.19754  Biso   1.000  N
  N57      1.0000 0.75231  0.54609  0.19589  Biso   1.000  N
  N58      1.0000 0.71903  0.53627  0.27857  Biso   1.000  N
  N59      1.0000 0.79633  0.50621  0.24281  Biso   1.000  N
  N60      1.0000 0.89240  0.42074  0.23426  Biso   1.000  N
  N61      1.0000 0.80524  0.46734  0.98592  Biso   1.000  N
  N62      1.0000 0.75964  0.46898  0.06152  Biso   1.000  N
  N63      1.0000 0.53921  0.49421  0.20663  Biso   1.000  N
  N64      1.0000 0.66721  0.47331  0.15151  Biso   1.000  N
  N65      1.0000 0.63383  0.48827  0.20533  Biso   1.000  N
  N66      1.0000 0.69754  0.47584  0.17956  Biso   1.000  N
  N67      1.0000 0.69589  0.50571  0.25231  Biso   1.000  N
  N68      1.0000 0.77857  0.46613  0.21903  Biso   1.000  N
  N69      1.0000 0.74281  0.45465  0.29633  Biso   1.000  N
  N70      1.0000 0.73426  0.45260  0.39240  Biso   1.000  N
  N71      1.0000 0.24150  0.98592  0.46734  Biso   1.000  N
  N72      1.0000 0.20986  0.06152  0.46898  Biso   1.000  N
  N73      1.0000 0.25995  0.20663  0.49421  Biso   1.000  N
  N74      1.0000 0.20797  0.15151  0.47331  Biso   1.000  N
  N75      1.0000 0.17257  0.20533  0.48827  Biso   1.000  N
  N76      1.0000 0.14706  0.17956  0.47584  Biso   1.000  N
  N77      1.0000 0.04609  0.25231  0.50571  Biso   1.000  N
  N78      1.0000 0.03627  0.21903  0.46613  Biso   1.000  N
  N79      1.0000 0.00621  0.29633  0.45465  Biso   1.000  N
  N80      1.0000 0.92074  0.39240  0.45260  Biso   1.000  N
  N81      1.0000 0.96734  0.74150  0.98592  Biso   1.000  N
  N82      1.0000 0.96898  0.70986  0.06152  Biso   1.000  N
  N83      1.0000 0.99421  0.75995  0.20663  Biso   1.000  N
  N84      1.0000 0.97331  0.70797  0.15151  Biso   1.000  N
  N85      1.0000 0.98827  0.67257  0.20533  Biso   1.000  N
  N86      1.0000 0.97584  0.64706  0.17956  Biso   1.000  N
  N87      1.0000 0.00571  0.54609  0.25231  Biso   1.000  N
  N88      1.0000 0.96613  0.53627  0.21903  Biso   1.000  N
  N89      1.0000 0.95465  0.50621  0.29633  Biso   1.000  N
  N90      1.0000 0.95260  0.42074  0.39240  Biso   1.000  N
  N91      1.0000 0.48592  0.30524  0.46734  Biso   1.000  N
  N92      1.0000 0.56152  0.25964  0.46898  Biso   1.000  N
  N93      1.0000 0.70663  0.03921  0.49421  Biso   1.000  N
  N94      1.0000 0.65151  0.16721  0.47331  Biso   1.000  N
  N95      1.0000 0.70533  0.13383  0.48827  Biso   1.000  N
  N96      1.0000 0.67956  0.19754  0.47584  Biso   1.000  N
  N97      1.0000 0.75231  0.19589  0.50571  Biso   1.000  N
  N98      1.0000 0.71903  0.27857  0.46613  Biso   1.000  N
  N99      1.0000 0.79633  0.24281  0.45465  Biso   1.000  N
  N100     1.0000 0.89240  0.23426  0.45260  Biso   1.000  N
  N101     1.0000 0.80524  0.98592  0.74150  Biso   1.000  N
  N102     1.0000 0.75964  0.06152  0.70986  Biso   1.000  N
  N103     1.0000 0.53921  0.20663  0.75995  Biso   1.000  N
  N104     1.0000 0.66721  0.15151  0.70797  Biso   1.000  N
  N105     1.0000 0.63383  0.20533  0.67257  Biso   1.000  N
  N106     1.0000 0.69754  0.17956  0.64706  Biso   1.000  N
  N107     1.0000 0.69589  0.25231  0.54609  Biso   1.000  N
  N108     1.0000 0.77857  0.21903  0.53627  Biso   1.000  N
  N109     1.0000 0.74281  0.29633  0.50621  Biso   1.000  N
  N110     1.0000 0.73426  0.39240  0.42074  Biso   1.000  N
  N111     1.0000 0.24150  0.46734  0.30524  Biso   1.000  N
  N112     1.0000 0.20986  0.46898  0.25964  Biso   1.000  N
  N113     1.0000 0.25995  0.49421  0.03921  Biso   1.000  N
  N114     1.0000 0.20797  0.47331  0.16721  Biso   1.000  N
  N115     1.0000 0.17257  0.48827  0.13383  Biso   1.000  N
  N116     1.0000 0.14706  0.47584  0.19754  Biso   1.000  N
  N117     1.0000 0.04609  0.50571  0.19589  Biso   1.000  N
  N118     1.0000 0.03627  0.46613  0.27857  Biso   1.000  N
  N119     1.0000 0.00621  0.45465  0.24281  Biso   1.000  N
  N120     1.0000 0.92074  0.45260  0.23426  Biso   1.000  N
  N121     1.0000 0.01408  0.03266  0.19476  Biso   1.000  N
  N122     1.0000 0.93848  0.03102  0.24036  Biso   1.000  N
  N123     1.0000 0.79337  0.00579  0.46079  Biso   1.000  N
  N124     1.0000 0.84849  0.02669  0.33279  Biso   1.000  N
  N125     1.0000 0.79467  0.01173  0.36617  Biso   1.000  N
  N126     1.0000 0.82044  0.02416  0.30246  Biso   1.000  N
  N127     1.0000 0.74769  0.99429  0.30411  Biso   1.000  N
  N128     1.0000 0.78097  0.03387  0.22143  Biso   1.000  N
  N129     1.0000 0.70367  0.04535  0.25719  Biso   1.000  N
  N130     1.0000 0.60760  0.04740  0.26574  Biso   1.000  N
  N131     1.0000 0.53266  0.51408  0.75850  Biso   1.000  N
  N132     1.0000 0.53102  0.43848  0.79014  Biso   1.000  N
  N133     1.0000 0.50579  0.29337  0.74005  Biso   1.000  N
  N134     1.0000 0.52669  0.34849  0.79203  Biso   1.000  N
  N135     1.0000 0.51173  0.29467  0.82743  Biso   1.000  N
  N136     1.0000 0.52416  0.32044  0.85294  Biso   1.000  N
  N137     1.0000 0.49429  0.24769  0.95391  Biso   1.000  N
  N138     1.0000 0.53387  0.28097  0.96373  Biso   1.000  N
  N139     1.0000 0.54535  0.20367  0.99379  Biso   1.000  N
  N140     1.0000 0.54740  0.10760  0.07926  Biso   1.000  N
  N141     1.0000 0.25850  0.19476  0.03266  Biso   1.000  N
  N142     1.0000 0.29014  0.24036  0.03102  Biso   1.000  N
  N143     1.0000 0.24005  0.46079  0.00579  Biso   1.000  N
  N144     1.0000 0.29203  0.33279  0.02669  Biso   1.000  N
  N145     1.0000 0.32743  0.36617  0.01173  Biso   1.000  N
  N146     1.0000 0.35294  0.30246  0.02416  Biso   1.000  N
  N147     1.0000 0.45391  0.30411  0.99429  Biso   1.000  N
  N148     1.0000 0.46373  0.22143  0.03387  Biso   1.000  N
  N149     1.0000 0.49379  0.25719  0.04535  Biso   1.000  N
  N150     1.0000 0.57926  0.26574  0.04740  Biso   1.000  N
  N151     1.0000 0.69476  0.75850  0.51408  Biso   1.000  N
  N152     1.0000 0.74036  0.79014  0.43848  Biso   1.000  N
  N153     1.0000 0.96079  0.74005  0.29337  Biso   1.000  N
  N154     1.0000 0.83279  0.79203  0.34849  Biso   1.000  N
  N155     1.0000 0.86617  0.82743  0.29467  Biso   1.000  N
  N156     1.0000 0.80246  0.85294  0.32044  Biso   1.000  N
  N157     1.0000 0.80411  0.95391  0.24769  Biso   1.000  N
  N158     1.0000 0.72143  0.96373  0.28097  Biso   1.000  N
  N159     1.0000 0.75719  0.99379  0.20367  Biso   1.000  N
  N160     1.0000 0.76574  0.07926  0.10760  Biso   1.000  N
  N161     1.0000 0.69476  0.03266  0.75850  Biso   1.000  N
  N162     1.0000 0.74036  0.03102  0.79014  Biso   1.000  N
  N163     1.0000 0.96079  0.00579  0.74005  Biso   1.000  N
  N164     1.0000 0.83279  0.02669  0.79203  Biso   1.000  N
  N165     1.0000 0.86617  0.01173  0.82743  Biso   1.000  N
  N166     1.0000 0.80246  0.02416  0.85294  Biso   1.000  N
  N167     1.0000 0.80411  0.99429  0.95391  Biso   1.000  N
  N168     1.0000 0.72143  0.03387  0.96373  Biso   1.000  N
  N169     1.0000 0.75719  0.04535  0.99379  Biso   1.000  N
  N170     1.0000 0.76574  0.04740  0.07926  Biso   1.000  N
  N171     1.0000 0.25850  0.51408  0.19476  Biso   1.000  N
  N172     1.0000 0.29014  0.43848  0.24036  Biso   1.000  N
  N173     1.0000 0.24005  0.29337  0.46079  Biso   1.000  N
  N174     1.0000 0.29203  0.34849  0.33279  Biso   1.000  N
  N175     1.0000 0.32743  0.29467  0.36617  Biso   1.000  N
  N176     1.0000 0.35294  0.32044  0.30246  Biso   1.000  N
  N177     1.0000 0.45391  0.24769  0.30411  Biso   1.000  N
  N178     1.0000 0.46373  0.28097  0.22143  Biso   1.000  N
  N179     1.0000 0.49379  0.20367  0.25719  Biso   1.000  N
  N180     1.0000 0.57926  0.10760  0.26574  Biso   1.000  N
  N181     1.0000 0.53266  0.19476  0.51408  Biso   1.000  N
  N182     1.0000 0.53102  0.24036  0.43848  Biso   1.000  N
  N183     1.0000 0.50579  0.46079  0.29337  Biso   1.000  N
  N184     1.0000 0.52669  0.33279  0.34849  Biso   1.000  N
  N185     1.0000 0.51173  0.36617  0.29467  Biso   1.000  N
  N186     1.0000 0.52416  0.30246  0.32044  Biso   1.000  N
  N187     1.0000 0.49429  0.30411  0.24769  Biso   1.000  N
  N188     1.0000 0.53387  0.22143  0.28097  Biso   1.000  N
  N189     1.0000 0.54535  0.25719  0.20367  Biso   1.000  N
  N190     1.0000 0.54740  0.26574  0.10760  Biso   1.000  N
  N191     1.0000 0.01408  0.75850  0.03266  Biso   1.000  N
  N192     1.0000 0.93848  0.79014  0.03102  Biso   1.000  N
  N193     1.0000 0.79337  0.74005  0.00579  Biso   1.000  N
  N194     1.0000 0.84849  0.79203  0.02669  Biso   1.000  N
  N195     1.0000 0.79467  0.82743  0.01173  Biso   1.000  N
  N196     1.0000 0.82044  0.85294  0.02416  Biso   1.000  N
  N197     1.0000 0.74769  0.95391  0.99429  Biso   1.000  N
  N198     1.0000 0.78097  0.96373  0.03387  Biso   1.000  N
  N199     1.0000 0.70367  0.99379  0.04535  Biso   1.000  N
  N200     1.0000 0.60760  0.07926  0.04740  Biso   1.000  N
  N201     1.0000 0.25850  0.03266  0.51408  Biso   1.000  N
  N202     1.0000 0.29014  0.03102  0.43848  Biso   1.000  N
  N203     1.0000 0.24005  0.00579  0.29337  Biso   1.000  N
  N204     1.0000 0.29203  0.02669  0.34849  Biso   1.000  N
  N205     1.0000 0.32743  0.01173  0.29467  Biso   1.000  N
  N206     1.0000 0.35294  0.02416  0.32044  Biso   1.000  N
  N207     1.0000 0.45391  0.99429  0.24769  Biso   1.000  N
  N208     1.0000 0.46373  0.03387  0.28097  Biso   1.000  N
  N209     1.0000 0.49379  0.04535  0.20367  Biso   1.000  N
  N210     1.0000 0.57926  0.04740  0.10760  Biso   1.000  N
  N211     1.0000 0.69476  0.51408  0.03266  Biso   1.000  N
  N212     1.0000 0.74036  0.43848  0.03102  Biso   1.000  N
  N213     1.0000 0.96079  0.29337  0.00579  Biso   1.000  N
  N214     1.0000 0.83279  0.34849  0.02669  Biso   1.000  N
  N215     1.0000 0.86617  0.29467  0.01173  Biso   1.000  N
  N216     1.0000 0.80246  0.32044  0.02416  Biso   1.000  N
  N217     1.0000 0.80411  0.24769  0.99429  Biso   1.000  N
  N218     1.0000 0.72143  0.28097  0.03387  Biso   1.000  N
  N219     1.0000 0.75719  0.20367  0.04535  Biso   1.000  N
  N220     1.0000 0.76574  0.10760  0.04740  Biso   1.000  N
  N221     1.0000 0.01408  0.19476  0.75850  Biso   1.000  N
  N222     1.0000 0.93848  0.24036  0.79014  Biso   1.000  N
  N223     1.0000 0.79337  0.46079  0.74005  Biso   1.000  N
  N224     1.0000 0.84849  0.33279  0.79203  Biso   1.000  N
  N225     1.0000 0.79467  0.36617  0.82743  Biso   1.000  N
  N226     1.0000 0.82044  0.30246  0.85294  Biso   1.000  N
  N227     1.0000 0.74769  0.30411  0.95391  Biso   1.000  N
  N228     1.0000 0.78097  0.22143  0.96373  Biso   1.000  N
  N229     1.0000 0.70367  0.25719  0.99379  Biso   1.000  N
  N230     1.0000 0.60760  0.26574  0.07926  Biso   1.000  N
  N231     1.0000 0.53266  0.75850  0.19476  Biso   1.000  N
  N232     1.0000 0.53102  0.79014  0.24036  Biso   1.000  N
  N233     1.0000 0.50579  0.74005  0.46079  Biso   1.000  N
  N234     1.0000 0.52669  0.79203  0.33279  Biso   1.000  N
  N235     1.0000 0.51173  0.82743  0.36617  Biso   1.000  N
  N236     1.0000 0.52416  0.85294  0.30246  Biso   1.000  N
  N237     1.0000 0.49429  0.95391  0.30411  Biso   1.000  N
  N238     1.0000 0.53387  0.96373  0.22143  Biso   1.000  N
  N239     1.0000 0.54535  0.99379  0.25719  Biso   1.000  N
  N240     1.0000 0.54740  0.07926  0.26574  Biso   1.000  N
  N241     1.0000 0.03266  0.01408  0.69476  Biso   1.000  N
  N242     1.0000 0.03102  0.93848  0.74036  Biso   1.000  N
  N243     1.0000 0.00579  0.79337  0.96079  Biso   1.000  N
  N244     1.0000 0.02669  0.84849  0.83279  Biso   1.000  N
  N245     1.0000 0.01173  0.79467  0.86617  Biso   1.000  N
  N246     1.0000 0.02416  0.82044  0.80246  Biso   1.000  N
  N247     1.0000 0.99429  0.74769  0.80411  Biso   1.000  N
  N248     1.0000 0.03387  0.78097  0.72143  Biso   1.000  N
  N249     1.0000 0.04535  0.70367  0.75719  Biso   1.000  N
  N250     1.0000 0.04740  0.60760  0.76574  Biso   1.000  N
  N251     1.0000 0.51408  0.53266  0.25850  Biso   1.000  N
  N252     1.0000 0.43848  0.53102  0.29014  Biso   1.000  N
  N253     1.0000 0.29337  0.50579  0.24005  Biso   1.000  N
  N254     1.0000 0.34849  0.52669  0.29203  Biso   1.000  N
  N255     1.0000 0.29467  0.51173  0.32743  Biso   1.000  N
  N256     1.0000 0.32044  0.52416  0.35294  Biso   1.000  N
  N257     1.0000 0.24769  0.49429  0.45391  Biso   1.000  N
  N258     1.0000 0.28097  0.53387  0.46373  Biso   1.000  N
  N259     1.0000 0.20367  0.54535  0.49379  Biso   1.000  N
  N260     1.0000 0.10760  0.54740  0.57926  Biso   1.000  N
  N261     1.0000 0.19476  0.25850  0.53266  Biso   1.000  N
  N262     1.0000 0.24036  0.29014  0.53102  Biso   1.000  N
  N263     1.0000 0.46079  0.24005  0.50579  Biso   1.000  N
  N264     1.0000 0.33279  0.29203  0.52669  Biso   1.000  N
  N265     1.0000 0.36617  0.32743  0.51173  Biso   1.000  N
  N266     1.0000 0.30246  0.35294  0.52416  Biso   1.000  N
  N267     1.0000 0.30411  0.45391  0.49429  Biso   1.000  N
  N268     1.0000 0.22143  0.46373  0.53387  Biso   1.000  N
  N269     1.0000 0.25719  0.49379  0.54535  Biso   1.000  N
  N270     1.0000 0.26574  0.57926  0.54740  Biso   1.000  N
  N271     1.0000 0.75850  0.69476  0.01408  Biso   1.000  N
  N272     1.0000 0.79014  0.74036  0.93848  Biso   1.000  N
  N273     1.0000 0.74005  0.96079  0.79337  Biso   1.000  N
  N274     1.0000 0.79203  0.83279  0.84849  Biso   1.000  N
  N275     1.0000 0.82743  0.86617  0.79467  Biso   1.000  N
  N276     1.0000 0.85294  0.80246  0.82044  Biso   1.000  N
  N277     1.0000 0.95391  0.80411  0.74769  Biso   1.000  N
  N278     1.0000 0.96373  0.72143  0.78097  Biso   1.000  N
  N279     1.0000 0.99379  0.75719  0.70367  Biso   1.000  N
  N280     1.0000 0.07926  0.76574  0.60760  Biso   1.000  N
  N281     1.0000 0.03266  0.69476  0.25850  Biso   1.000  N
  N282     1.0000 0.03102  0.74036  0.29014  Biso   1.000  N
  N283     1.0000 0.00579  0.96079  0.24005  Biso   1.000  N
  N284     1.0000 0.02669  0.83279  0.29203  Biso   1.000  N
  N285     1.0000 0.01173  0.86617  0.32743  Biso   1.000  N
  N286     1.0000 0.02416  0.80246  0.35294  Biso   1.000  N
  N287     1.0000 0.99429  0.80411  0.45391  Biso   1.000  N
  N288     1.0000 0.03387  0.72143  0.46373  Biso   1.000  N
  N289     1.0000 0.04535  0.75719  0.49379  Biso   1.000  N
  N290     1.0000 0.04740  0.76574  0.57926  Biso   1.000  N
  N291     1.0000 0.51408  0.25850  0.69476  Biso   1.000  N
  N292     1.0000 0.43848  0.29014  0.74036  Biso   1.000  N
  N293     1.0000 0.29337  0.24005  0.96079  Biso   1.000  N
  N294     1.0000 0.34849  0.29203  0.83279  Biso   1.000  N
  N295     1.0000 0.29467  0.32743  0.86617  Biso   1.000  N
  N296     1.0000 0.32044  0.35294  0.80246  Biso   1.000  N
  N297     1.0000 0.24769  0.45391  0.80411  Biso   1.000  N
  N298     1.0000 0.28097  0.46373  0.72143  Biso   1.000  N
  N299     1.0000 0.20367  0.49379  0.75719  Biso   1.000  N
  N300     1.0000 0.10760  0.57926  0.76574  Biso   1.000  N
  N301     1.0000 0.19476  0.53266  0.01408  Biso   1.000  N
  N302     1.0000 0.24036  0.53102  0.93848  Biso   1.000  N
  N303     1.0000 0.46079  0.50579  0.79337  Biso   1.000  N
  N304     1.0000 0.33279  0.52669  0.84849  Biso   1.000  N
  N305     1.0000 0.36617  0.51173  0.79467  Biso   1.000  N
  N306     1.0000 0.30246  0.52416  0.82044  Biso   1.000  N
  N307     1.0000 0.30411  0.49429  0.74769  Biso   1.000  N
  N308     1.0000 0.22143  0.53387  0.78097  Biso   1.000  N
  N309     1.0000 0.25719  0.54535  0.70367  Biso   1.000  N
  N310     1.0000 0.26574  0.54740  0.60760  Biso   1.000  N
  N311     1.0000 0.75850  0.01408  0.53266  Biso   1.000  N
  N312     1.0000 0.79014  0.93848  0.53102  Biso   1.000  N
  N313     1.0000 0.74005  0.79337  0.50579  Biso   1.000  N
  N314     1.0000 0.79203  0.84849  0.52669  Biso   1.000  N
  N315     1.0000 0.82743  0.79467  0.51173  Biso   1.000  N
  N316     1.0000 0.85294  0.82044  0.52416  Biso   1.000  N
  N317     1.0000 0.95391  0.74769  0.49429  Biso   1.000  N
  N318     1.0000 0.96373  0.78097  0.53387  Biso   1.000  N
  N319     1.0000 0.99379  0.70367  0.54535  Biso   1.000  N
  N320     1.0000 0.07926  0.60760  0.54740  Biso   1.000  N
  N321     1.0000 0.03266  0.25850  0.01408  Biso   1.000  N
  N322     1.0000 0.03102  0.29014  0.93848  Biso   1.000  N
  N323     1.0000 0.00579  0.24005  0.79337  Biso   1.000  N
  N324     1.0000 0.02669  0.29203  0.84849  Biso   1.000  N
  N325     1.0000 0.01173  0.32743  0.79467  Biso   1.000  N
  N326     1.0000 0.02416  0.35294  0.82044  Biso   1.000  N
  N327     1.0000 0.99429  0.45391  0.74769  Biso   1.000  N
  N328     1.0000 0.03387  0.46373  0.78097  Biso   1.000  N
  N329     1.0000 0.04535  0.49379  0.70367  Biso   1.000  N
  N330     1.0000 0.04740  0.57926  0.60760  Biso   1.000  N
  N331     1.0000 0.51408  0.69476  0.53266  Biso   1.000  N
  N332     1.0000 0.43848  0.74036  0.53102  Biso   1.000  N
  N333     1.0000 0.29337  0.96079  0.50579  Biso   1.000  N
  N334     1.0000 0.34849  0.83279  0.52669  Biso   1.000  N
  N335     1.0000 0.29467  0.86617  0.51173  Biso   1.000  N
  N336     1.0000 0.32044  0.80246  0.52416  Biso   1.000  N
  N337     1.0000 0.24769  0.80411  0.49429  Biso   1.000  N
  N338     1.0000 0.28097  0.72143  0.53387  Biso   1.000  N
  N339     1.0000 0.20367  0.75719  0.54535  Biso   1.000  N
  N340     1.0000 0.10760  0.76574  0.54740  Biso   1.000  N
  N341     1.0000 0.19476  0.01408  0.25850  Biso   1.000  N
  N342     1.0000 0.24036  0.93848  0.29014  Biso   1.000  N
  N343     1.0000 0.46079  0.79337  0.24005  Biso   1.000  N
  N344     1.0000 0.33279  0.84849  0.29203  Biso   1.000  N
  N345     1.0000 0.36617  0.79467  0.32743  Biso   1.000  N
  N346     1.0000 0.30246  0.82044  0.35294  Biso   1.000  N
  N347     1.0000 0.30411  0.74769  0.45391  Biso   1.000  N
  N348     1.0000 0.22143  0.78097  0.46373  Biso   1.000  N
  N349     1.0000 0.25719  0.70367  0.49379  Biso   1.000  N
  N350     1.0000 0.26574  0.60760  0.57926  Biso   1.000  N
  N351     1.0000 0.75850  0.53266  0.69476  Biso   1.000  N
  N352     1.0000 0.79014  0.53102  0.74036  Biso   1.000  N
  N353     1.0000 0.74005  0.50579  0.96079  Biso   1.000  N
  N354     1.0000 0.79203  0.52669  0.83279  Biso   1.000  N
  N355     1.0000 0.82743  0.51173  0.86617  Biso   1.000  N
  N356     1.0000 0.85294  0.52416  0.80246  Biso   1.000  N
  N357     1.0000 0.95391  0.49429  0.80411  Biso   1.000  N
  N358     1.0000 0.96373  0.53387  0.72143  Biso   1.000  N
  N359     1.0000 0.99379  0.54535  0.75719  Biso   1.000  N
  N360     1.0000 0.07926  0.54740  0.76574  Biso   1.000  N
  N361     1.0000 0.98592  0.96734  0.80524  Biso   1.000  N
  N362     1.0000 0.06152  0.96898  0.75964  Biso   1.000  N
  N363     1.0000 0.20663  0.99421  0.53921  Biso   1.000  N
  N364     1.0000 0.15151  0.97331  0.66721  Biso   1.000  N
  N365     1.0000 0.20533  0.98827  0.63383  Biso   1.000  N
  N366     1.0000 0.17956  0.97584  0.69754  Biso   1.000  N
  N367     1.0000 0.25231  0.00571  0.69589  Biso   1.000  N
  N368     1.0000 0.21903  0.96613  0.77857  Biso   1.000  N
  N369     1.0000 0.29633  0.95465  0.74281  Biso   1.000  N
  N370     1.0000 0.39240  0.95260  0.73426  Biso   1.000  N
  N371     1.0000 0.46734  0.48592  0.24150  Biso   1.000  N
  N372     1.0000 0.46898  0.56152  0.20986  Biso   1.000  N
  N373     1.0000 0.49421  0.70663  0.25995  Biso   1.000  N
  N374     1.0000 0.47331  0.65151  0.20797  Biso   1.000  N
  N375     1.0000 0.48827  0.70533  0.17257  Biso   1.000  N
  N376     1.0000 0.47584  0.67956  0.14706  Biso   1.000  N
  N377     1.0000 0.50571  0.75231  0.04609  Biso   1.000  N
  N378     1.0000 0.46613  0.71903  0.03627  Biso   1.000  N
  N379     1.0000 0.45465  0.79633  0.00621  Biso   1.000  N
  N380     1.0000 0.45260  0.89240  0.92074  Biso   1.000  N
  N381     1.0000 0.74150  0.80524  0.96734  Biso   1.000  N
  N382     1.0000 0.70986  0.75964  0.96898  Biso   1.000  N
  N383     1.0000 0.75995  0.53921  0.99421  Biso   1.000  N
  N384     1.0000 0.70797  0.66721  0.97331  Biso   1.000  N
  N385     1.0000 0.67257  0.63383  0.98827  Biso   1.000  N
  N386     1.0000 0.64706  0.69754  0.97584  Biso   1.000  N
  N387     1.0000 0.54609  0.69589  0.00571  Biso   1.000  N
  N388     1.0000 0.53627  0.77857  0.96613  Biso   1.000  N
  N389     1.0000 0.50621  0.74281  0.95465  Biso   1.000  N
  N390     1.0000 0.42074  0.73426  0.95260  Biso   1.000  N
  N391     1.0000 0.30524  0.24150  0.48592  Biso   1.000  N
  N392     1.0000 0.25964  0.20986  0.56152  Biso   1.000  N
  N393     1.0000 0.03921  0.25995  0.70663  Biso   1.000  N
  N394     1.0000 0.16721  0.20797  0.65151  Biso   1.000  N
  N395     1.0000 0.13383  0.17257  0.70533  Biso   1.000  N
  N396     1.0000 0.19754  0.14706  0.67956  Biso   1.000  N
  N397     1.0000 0.19589  0.04609  0.75231  Biso   1.000  N
  N398     1.0000 0.27857  0.03627  0.71903  Biso   1.000  N
  N399     1.0000 0.24281  0.00621  0.79633  Biso   1.000  N
  N400     1.0000 0.23426  0.92074  0.89240  Biso   1.000  N
  N401     1.0000 0.30524  0.96734  0.24150  Biso   1.000  N
  N402     1.0000 0.25964  0.96898  0.20986  Biso   1.000  N
  N403     1.0000 0.03921  0.99421  0.25995  Biso   1.000  N
  N404     1.0000 0.16721  0.97331  0.20797  Biso   1.000  N
  N405     1.0000 0.13383  0.98827  0.17257  Biso   1.000  N
  N406     1.0000 0.19754  0.97584  0.14706  Biso   1.000  N
  N407     1.0000 0.19589  0.00571  0.04609  Biso   1.000  N
  N408     1.0000 0.27857  0.96613  0.03627  Biso   1.000  N
  N409     1.0000 0.24281  0.95465  0.00621  Biso   1.000  N
  N410     1.0000 0.23426  0.95260  0.92074  Biso   1.000  N
  N411     1.0000 0.74150  0.48592  0.80524  Biso   1.000  N
  N412     1.0000 0.70986  0.56152  0.75964  Biso   1.000  N
  N413     1.0000 0.75995  0.70663  0.53921  Biso   1.000  N
  N414     1.0000 0.70797  0.65151  0.66721  Biso   1.000  N
  N415     1.0000 0.67257  0.70533  0.63383  Biso   1.000  N
  N416     1.0000 0.64706  0.67956  0.69754  Biso   1.000  N
  N417     1.0000 0.54609  0.75231  0.69589  Biso   1.000  N
  N418     1.0000 0.53627  0.71903  0.77857  Biso   1.000  N
  N419     1.0000 0.50621  0.79633  0.74281  Biso   1.000  N
  N420     1.0000 0.42074  0.89240  0.73426  Biso   1.000  N
  N421     1.0000 0.46734  0.80524  0.48592  Biso   1.000  N
  N422     1.0000 0.46898  0.75964  0.56152  Biso   1.000  N
  N423     1.0000 0.49421  0.53921  0.70663  Biso   1.000  N
  N424     1.0000 0.47331  0.66721  0.65151  Biso   1.000  N
  N425     1.0000 0.48827  0.63383  0.70533  Biso   1.000  N
  N426     1.0000 0.47584  0.69754  0.67956  Biso   1.000  N
  N427     1.0000 0.50571  0.69589  0.75231  Biso   1.000  N
  N428     1.0000 0.46613  0.77857  0.71903  Biso   1.000  N
  N429     1.0000 0.45465  0.74281  0.79633  Biso   1.000  N
  N430     1.0000 0.45260  0.73426  0.89240  Biso   1.000  N
  N431     1.0000 0.98592  0.24150  0.96734  Biso   1.000  N
  N432     1.0000 0.06152  0.20986  0.96898  Biso   1.000  N
  N433     1.0000 0.20663  0.25995  0.99421  Biso   1.000  N
  N434     1.0000 0.15151  0.20797  0.97331  Biso   1.000  N
  N435     1.0000 0.20533  0.17257  0.98827  Biso   1.000  N
  N436     1.0000 0.17956  0.14706  0.97584  Biso   1.000  N
  N437     1.0000 0.25231  0.04609  0.00571  Biso   1.000  N
  N438     1.0000 0.21903  0.03627  0.96613  Biso   1.000  N
  N439     1.0000 0.29633  0.00621  0.95465  Biso   1.000  N
  N440     1.0000 0.39240  0.92074  0.95260  Biso   1.000  N
  N441     1.0000 0.74150  0.96734  0.48592  Biso   1.000  N
  N442     1.0000 0.70986  0.96898  0.56152  Biso   1.000  N
  N443     1.0000 0.75995  0.99421  0.70663  Biso   1.000  N
  N444     1.0000 0.70797  0.97331  0.65151  Biso   1.000  N
  N445     1.0000 0.67257  0.98827  0.70533  Biso   1.000  N
  N446     1.0000 0.64706  0.97584  0.67956  Biso   1.000  N
  N447     1.0000 0.54609  0.00571  0.75231  Biso   1.000  N
  N448     1.0000 0.53627  0.96613  0.71903  Biso   1.000  N
  N449     1.0000 0.50621  0.95465  0.79633  Biso   1.000  N
  N450     1.0000 0.42074  0.95260  0.89240  Biso   1.000  N
  N451     1.0000 0.30524  0.48592  0.96734  Biso   1.000  N
  N452     1.0000 0.25964  0.56152  0.96898  Biso   1.000  N
  N453     1.0000 0.03921  0.70663  0.99421  Biso   1.000  N
  N454     1.0000 0.16721  0.65151  0.97331  Biso   1.000  N
  N455     1.0000 0.13383  0.70533  0.98827  Biso   1.000  N
  N456     1.0000 0.19754  0.67956  0.97584  Biso   1.000  N
  N457     1.0000 0.19589  0.75231  0.00571  Biso   1.000  N
  N458     1.0000 0.27857  0.71903  0.96613  Biso   1.000  N
  N459     1.0000 0.24281  0.79633  0.95465  Biso   1.000  N
  N460     1.0000 0.23426  0.89240  0.95260  Biso   1.000  N
  N461     1.0000 0.98592  0.80524  0.24150  Biso   1.000  N
  N462     1.0000 0.06152  0.75964  0.20986  Biso   1.000  N
  N463     1.0000 0.20663  0.53921  0.25995  Biso   1.000  N
  N464     1.0000 0.15151  0.66721  0.20797  Biso   1.000  N
  N465     1.0000 0.20533  0.63383  0.17257  Biso   1.000  N
  N466     1.0000 0.17956  0.69754  0.14706  Biso   1.000  N
  N467     1.0000 0.25231  0.69589  0.04609  Biso   1.000  N
  N468     1.0000 0.21903  0.77857  0.03627  Biso   1.000  N
  N469     1.0000 0.29633  0.74281  0.00621  Biso   1.000  N
  N470     1.0000 0.39240  0.73426  0.92074  Biso   1.000  N
  N471     1.0000 0.46734  0.24150  0.80524  Biso   1.000  N
  N472     1.0000 0.46898  0.20986  0.75964  Biso   1.000  N
  N473     1.0000 0.49421  0.25995  0.53921  Biso   1.000  N
  N474     1.0000 0.47331  0.20797  0.66721  Biso   1.000  N
  N475     1.0000 0.48827  0.17257  0.63383  Biso   1.000  N
  N476     1.0000 0.47584  0.14706  0.69754  Biso   1.000  N
  N477     1.0000 0.50571  0.04609  0.69589  Biso   1.000  N
  N478     1.0000 0.46613  0.03627  0.77857  Biso   1.000  N
  N479     1.0000 0.45465  0.00621  0.74281  Biso   1.000  N
  N480     1.0000 0.45260  0.92074  0.73426  Biso   1.000  N
