data_image0
_cell_length_a       30.4787
_cell_length_b       30.4787
_cell_length_c       30.4787
_cell_angle_alpha    109.471
_cell_angle_beta     109.471
_cell_angle_gamma    109.471

_symmetry_space_group_name_H-M    P 1
_symmetry_int_tables_number       1

loop_
  _symmetry_equiv_pos_as_xyz
  'x, y, z'

loop_
  _atom_site_label
  _atom_site_occupancy
  _atom_site_fract_x
  _atom_site_fract_y
  _atom_site_fract_z
  _atom_site_thermal_displace_type
  _atom_site_B_iso_or_equiv
  _atom_site_type_symbol
  Mg1      1.0000 0.76940  0.21540  0.21540  Biso   1.000  Mg
  Mg2      1.0000 0.67350  0.24300  0.24300  Biso   1.000  Mg
  Mg3      1.0000 0.00000  0.55400  0.78460  Biso   1.000  Mg
  Mg4      1.0000 0.00000  0.43050  0.75700  Biso   1.000  Mg
  Mg5      1.0000 0.00000  0.78460  0.55400  Biso   1.000  Mg
  Mg6      1.0000 1.00000  0.75700  0.43050  Biso   1.000  Mg
  Mg7      1.0000 0.23060  0.44600  0.44600  Biso   1.000  Mg
  Mg8      1.0000 0.32650  0.56950  0.56950  Biso   1.000  Mg
  Mg9      1.0000 0.55400  0.00000  0.78460  Biso   1.000  Mg
  Mg10     1.0000 0.43050  0.00000  0.75700  Biso   1.000  Mg
  Mg11     1.0000 0.44600  0.23060  0.44600  Biso   1.000  Mg
  Mg12     1.0000 0.56950  0.32650  0.56950  Biso   1.000  Mg
  Mg13     1.0000 0.21540  0.76940  0.21540  Biso   1.000  Mg
  Mg14     1.0000 0.24300  0.67350  0.24300  Biso   1.000  Mg
  Mg15     1.0000 0.78460  0.00000  0.55400  Biso   1.000  Mg
  Mg16     1.0000 0.75700  0.00000  0.43050  Biso   1.000  Mg
  Mg17     1.0000 0.55400  0.78460  0.00000  Biso   1.000  Mg
  Mg18     1.0000 0.43050  0.75700  0.00000  Biso   1.000  Mg
  Mg19     1.0000 0.21540  0.21540  0.76940  Biso   1.000  Mg
  Mg20     1.0000 0.24300  0.24300  0.67350  Biso   1.000  Mg
  Mg21     1.0000 0.44600  0.44600  0.23060  Biso   1.000  Mg
  Mg22     1.0000 0.56950  0.56950  0.32650  Biso   1.000  Mg
  Mg23     1.0000 0.78460  0.55400  0.00000  Biso   1.000  Mg
  Mg24     1.0000 0.75700  0.43050  0.00000  Biso   1.000  Mg
  Mg25     1.0000 0.78460  0.23060  0.78460  Biso   1.000  Mg
  Mg26     1.0000 0.75700  0.32650  0.75700  Biso   1.000  Mg
  Mg27     1.0000 0.44600  0.00000  0.21540  Biso   1.000  Mg
  Mg28     1.0000 0.56950  0.00000  0.24300  Biso   1.000  Mg
  Mg29     1.0000 0.21540  0.00000  0.44600  Biso   1.000  Mg
  Mg30     1.0000 0.24300  0.00000  0.56950  Biso   1.000  Mg
  Mg31     1.0000 0.55400  0.76940  0.55400  Biso   1.000  Mg
  Mg32     1.0000 0.43050  0.67350  0.43050  Biso   1.000  Mg
  Mg33     1.0000 0.00000  0.44600  0.21540  Biso   1.000  Mg
  Mg34     1.0000 0.00000  0.56950  0.24300  Biso   1.000  Mg
  Mg35     1.0000 0.76940  0.55400  0.55400  Biso   1.000  Mg
  Mg36     1.0000 0.67350  0.43050  0.43050  Biso   1.000  Mg
  Mg37     1.0000 0.23060  0.78460  0.78460  Biso   1.000  Mg
  Mg38     1.0000 0.32650  0.75700  0.75700  Biso   1.000  Mg
  Mg39     1.0000 0.00000  0.21540  0.44600  Biso   1.000  Mg
  Mg40     1.0000 0.00000  0.24300  0.56950  Biso   1.000  Mg
  Mg41     1.0000 0.21540  0.44600  0.00000  Biso   1.000  Mg
  Mg42     1.0000 0.24300  0.56950  1.00000  Biso   1.000  Mg
  Mg43     1.0000 0.78460  0.78460  0.23060  Biso   1.000  Mg
  Mg44     1.0000 0.75700  0.75700  0.32650  Biso   1.000  Mg
  Mg45     1.0000 0.55400  0.55400  0.76940  Biso   1.000  Mg
  Mg46     1.0000 0.43050  0.43050  0.67350  Biso   1.000  Mg
  Mg47     1.0000 0.44600  0.21540  0.00000  Biso   1.000  Mg
  Mg48     1.0000 0.56950  0.24300  0.00000  Biso   1.000  Mg
  H1       1.0000 0.67390  0.34910  0.27240  Biso   1.000  H
  H2       1.0000 0.61130  0.31140  0.24750  Biso   1.000  H
  H3       1.0000 0.75830  0.32020  0.37430  Biso   1.000  H
  H4       1.0000 0.79650  0.27270  0.13260  Biso   1.000  H
  H5       1.0000 0.07670  0.40150  0.72760  Biso   1.000  H
  H6       1.0000 0.06390  0.36380  0.75250  Biso   1.000  H
  H7       1.0000 0.94590  0.38400  0.62570  Biso   1.000  H
  H8       1.0000 0.14010  0.66390  0.86740  Biso   1.000  H
  H9       1.0000 0.92330  0.65090  0.32480  Biso   1.000  H
  H10      1.0000 0.93610  0.68860  0.29990  Biso   1.000  H
  H11      1.0000 0.05410  0.67980  0.43810  Biso   1.000  H
  H12      1.0000 0.85990  0.72730  0.52380  Biso   1.000  H
  H13      1.0000 0.32610  0.59850  0.67520  Biso   1.000  H
  H14      1.0000 0.38870  0.63620  0.70010  Biso   1.000  H
  H15      1.0000 0.24170  0.61600  0.56190  Biso   1.000  H
  H16      1.0000 0.20350  0.33610  0.47620  Biso   1.000  H
  H17      1.0000 0.32480  0.92330  0.65090  Biso   1.000  H
  H18      1.0000 0.29990  0.93610  0.68860  Biso   1.000  H
  H19      1.0000 0.43810  0.05410  0.67980  Biso   1.000  H
  H20      1.0000 0.52380  0.85990  0.72730  Biso   1.000  H
  H21      1.0000 0.67520  0.32610  0.59850  Biso   1.000  H
  H22      1.0000 0.70010  0.38870  0.63620  Biso   1.000  H
  H23      1.0000 0.56190  0.24170  0.61600  Biso   1.000  H
  H24      1.0000 0.47620  0.20350  0.33610  Biso   1.000  H
  H25      1.0000 0.27240  0.67390  0.34910  Biso   1.000  H
  H26      1.0000 0.24750  0.61130  0.31140  Biso   1.000  H
  H27      1.0000 0.37430  0.75830  0.32020  Biso   1.000  H
  H28      1.0000 0.13260  0.79650  0.27270  Biso   1.000  H
  H29      1.0000 0.72760  0.07670  0.40150  Biso   1.000  H
  H30      1.0000 0.75250  0.06390  0.36380  Biso   1.000  H
  H31      1.0000 0.62570  0.94590  0.38400  Biso   1.000  H
  H32      1.0000 0.86740  0.14010  0.66390  Biso   1.000  H
  H33      1.0000 0.40150  0.72760  0.07670  Biso   1.000  H
  H34      1.0000 0.36380  0.75250  0.06390  Biso   1.000  H
  H35      1.0000 0.38400  0.62570  0.94590  Biso   1.000  H
  H36      1.0000 0.66390  0.86740  0.14010  Biso   1.000  H
  H37      1.0000 0.34910  0.27240  0.67390  Biso   1.000  H
  H38      1.0000 0.31140  0.24750  0.61130  Biso   1.000  H
  H39      1.0000 0.32020  0.37430  0.75830  Biso   1.000  H
  H40      1.0000 0.27270  0.13260  0.79650  Biso   1.000  H
  H41      1.0000 0.59850  0.67520  0.32610  Biso   1.000  H
  H42      1.0000 0.63620  0.70010  0.38870  Biso   1.000  H
  H43      1.0000 0.61600  0.56190  0.24170  Biso   1.000  H
  H44      1.0000 0.33610  0.47620  0.20350  Biso   1.000  H
  H45      1.0000 0.65090  0.32480  0.92330  Biso   1.000  H
  H46      1.0000 0.68860  0.29990  0.93610  Biso   1.000  H
  H47      1.0000 0.67980  0.43810  0.05410  Biso   1.000  H
  H48      1.0000 0.72730  0.52380  0.85990  Biso   1.000  H
  H49      1.0000 0.65090  0.32610  0.72760  Biso   1.000  H
  H50      1.0000 0.68860  0.38870  0.75250  Biso   1.000  H
  H51      1.0000 0.67980  0.24170  0.62570  Biso   1.000  H
  H52      1.0000 0.72730  0.20350  0.86740  Biso   1.000  H
  H53      1.0000 0.59850  0.92330  0.27240  Biso   1.000  H
  H54      1.0000 0.63620  0.93610  0.24750  Biso   1.000  H
  H55      1.0000 0.61600  0.05410  0.37430  Biso   1.000  H
  H56      1.0000 0.33610  0.85990  0.13260  Biso   1.000  H
  H57      1.0000 0.34910  0.07670  0.67520  Biso   1.000  H
  H58      1.0000 0.31140  0.06390  0.70010  Biso   1.000  H
  H59      1.0000 0.32020  0.94590  0.56190  Biso   1.000  H
  H60      1.0000 0.27270  0.14010  0.47620  Biso   1.000  H
  H61      1.0000 0.40150  0.67390  0.32480  Biso   1.000  H
  H62      1.0000 0.36380  0.61130  0.29990  Biso   1.000  H
  H63      1.0000 0.38400  0.75830  0.43810  Biso   1.000  H
  H64      1.0000 0.66390  0.79650  0.52380  Biso   1.000  H
  H65      1.0000 0.07670  0.67520  0.34910  Biso   1.000  H
  H66      1.0000 0.06390  0.70010  0.31140  Biso   1.000  H
  H67      1.0000 0.94590  0.56190  0.32020  Biso   1.000  H
  H68      1.0000 0.14010  0.47620  0.27270  Biso   1.000  H
  H69      1.0000 0.67390  0.32480  0.40150  Biso   1.000  H
  H70      1.0000 0.61130  0.29990  0.36380  Biso   1.000  H
  H71      1.0000 0.75830  0.43810  0.38400  Biso   1.000  H
  H72      1.0000 0.79650  0.52380  0.66390  Biso   1.000  H
  H73      1.0000 0.32610  0.72760  0.65090  Biso   1.000  H
  H74      1.0000 0.38870  0.75250  0.68860  Biso   1.000  H
  H75      1.0000 0.24170  0.62570  0.67980  Biso   1.000  H
  H76      1.0000 0.20350  0.86740  0.72730  Biso   1.000  H
  H77      1.0000 0.92330  0.27240  0.59850  Biso   1.000  H
  H78      1.0000 0.93610  0.24750  0.63620  Biso   1.000  H
  H79      1.0000 0.05410  0.37430  0.61600  Biso   1.000  H
  H80      1.0000 0.85990  0.13260  0.33610  Biso   1.000  H
  H81      1.0000 0.27240  0.59850  0.92330  Biso   1.000  H
  H82      1.0000 0.24750  0.63620  0.93610  Biso   1.000  H
  H83      1.0000 0.37430  0.61600  0.05410  Biso   1.000  H
  H84      1.0000 0.13260  0.33610  0.85990  Biso   1.000  H
  H85      1.0000 0.72760  0.65090  0.32610  Biso   1.000  H
  H86      1.0000 0.75250  0.68860  0.38870  Biso   1.000  H
  H87      1.0000 0.62570  0.67980  0.24170  Biso   1.000  H
  H88      1.0000 0.86740  0.72730  0.20350  Biso   1.000  H
  H89      1.0000 0.32480  0.40150  0.67390  Biso   1.000  H
  H90      1.0000 0.29990  0.36380  0.61130  Biso   1.000  H
  H91      1.0000 0.43810  0.38400  0.75830  Biso   1.000  H
  H92      1.0000 0.52380  0.66390  0.79650  Biso   1.000  H
  H93      1.0000 0.67520  0.34910  0.07670  Biso   1.000  H
  H94      1.0000 0.70010  0.31140  0.06390  Biso   1.000  H
  H95      1.0000 0.56190  0.32020  0.94590  Biso   1.000  H
  H96      1.0000 0.47620  0.27270  0.14010  Biso   1.000  H
  H97      1.0000 0.32610  0.65090  0.72760  Biso   1.000  H
  H98      1.0000 0.38870  0.68860  0.75250  Biso   1.000  H
  H99      1.0000 0.24170  0.67980  0.62570  Biso   1.000  H
  H100     1.0000 0.20350  0.72730  0.86740  Biso   1.000  H
  H101     1.0000 0.92330  0.59850  0.27240  Biso   1.000  H
  H102     1.0000 0.93610  0.63620  0.24750  Biso   1.000  H
  H103     1.0000 0.05410  0.61600  0.37430  Biso   1.000  H
  H104     1.0000 0.85990  0.33610  0.13260  Biso   1.000  H
  H105     1.0000 0.07670  0.34910  0.67520  Biso   1.000  H
  H106     1.0000 0.06390  0.31140  0.70010  Biso   1.000  H
  H107     1.0000 0.94590  0.32020  0.56190  Biso   1.000  H
  H108     1.0000 0.14010  0.27270  0.47620  Biso   1.000  H
  H109     1.0000 0.67390  0.40150  0.32480  Biso   1.000  H
  H110     1.0000 0.61130  0.36380  0.29990  Biso   1.000  H
  H111     1.0000 0.75830  0.38400  0.43810  Biso   1.000  H
  H112     1.0000 0.79650  0.66390  0.52380  Biso   1.000  H
  H113     1.0000 0.67520  0.07670  0.34910  Biso   1.000  H
  H114     1.0000 0.70010  0.06390  0.31140  Biso   1.000  H
  H115     1.0000 0.56190  0.94590  0.32020  Biso   1.000  H
  H116     1.0000 0.47620  0.14010  0.27270  Biso   1.000  H
  H117     1.0000 0.32480  0.67390  0.40150  Biso   1.000  H
  H118     1.0000 0.29990  0.61130  0.36380  Biso   1.000  H
  H119     1.0000 0.43810  0.75830  0.38400  Biso   1.000  H
  H120     1.0000 0.52380  0.79650  0.66390  Biso   1.000  H
  H121     1.0000 0.72760  0.32610  0.65090  Biso   1.000  H
  H122     1.0000 0.75250  0.38870  0.68860  Biso   1.000  H
  H123     1.0000 0.62570  0.24170  0.67980  Biso   1.000  H
  H124     1.0000 0.86740  0.20350  0.72730  Biso   1.000  H
  H125     1.0000 0.27240  0.92330  0.59850  Biso   1.000  H
  H126     1.0000 0.24750  0.93610  0.63620  Biso   1.000  H
  H127     1.0000 0.37430  0.05410  0.61600  Biso   1.000  H
  H128     1.0000 0.13260  0.85990  0.33610  Biso   1.000  H
  H129     1.0000 0.59850  0.27240  0.92330  Biso   1.000  H
  H130     1.0000 0.63620  0.24750  0.93610  Biso   1.000  H
  H131     1.0000 0.61600  0.37430  0.05410  Biso   1.000  H
  H132     1.0000 0.33610  0.13260  0.85990  Biso   1.000  H
  H133     1.0000 0.65090  0.72760  0.32610  Biso   1.000  H
  H134     1.0000 0.68860  0.75250  0.38870  Biso   1.000  H
  H135     1.0000 0.67980  0.62570  0.24170  Biso   1.000  H
  H136     1.0000 0.72730  0.86740  0.20350  Biso   1.000  H
  H137     1.0000 0.40150  0.32480  0.67390  Biso   1.000  H
  H138     1.0000 0.36380  0.29990  0.61130  Biso   1.000  H
  H139     1.0000 0.38400  0.43810  0.75830  Biso   1.000  H
  H140     1.0000 0.66390  0.52380  0.79650  Biso   1.000  H
  H141     1.0000 0.34910  0.67520  0.07670  Biso   1.000  H
  H142     1.0000 0.31140  0.70010  0.06390  Biso   1.000  H
  H143     1.0000 0.32020  0.56190  0.94590  Biso   1.000  H
  H144     1.0000 0.27270  0.47620  0.14010  Biso   1.000  H
  H145     1.0000 0.34910  0.67390  0.27240  Biso   1.000  H
  H146     1.0000 0.31140  0.61130  0.24750  Biso   1.000  H
  H147     1.0000 0.32020  0.75830  0.37430  Biso   1.000  H
  H148     1.0000 0.27270  0.79650  0.13260  Biso   1.000  H
  H149     1.0000 0.40150  0.07670  0.72760  Biso   1.000  H
  H150     1.0000 0.36380  0.06390  0.75250  Biso   1.000  H
  H151     1.0000 0.38400  0.94590  0.62570  Biso   1.000  H
  H152     1.0000 0.66390  0.14010  0.86740  Biso   1.000  H
  H153     1.0000 0.65090  0.92330  0.32480  Biso   1.000  H
  H154     1.0000 0.68860  0.93610  0.29990  Biso   1.000  H
  H155     1.0000 0.67980  0.05410  0.43810  Biso   1.000  H
  H156     1.0000 0.72730  0.85990  0.52380  Biso   1.000  H
  H157     1.0000 0.59850  0.32610  0.67520  Biso   1.000  H
  H158     1.0000 0.63620  0.38870  0.70010  Biso   1.000  H
  H159     1.0000 0.61600  0.24170  0.56190  Biso   1.000  H
  H160     1.0000 0.33610  0.20350  0.47620  Biso   1.000  H
  H161     1.0000 0.92330  0.32480  0.65090  Biso   1.000  H
  H162     1.0000 0.93610  0.29990  0.68860  Biso   1.000  H
  H163     1.0000 0.05410  0.43810  0.67980  Biso   1.000  H
  H164     1.0000 0.85990  0.52380  0.72730  Biso   1.000  H
  H165     1.0000 0.32610  0.67520  0.59850  Biso   1.000  H
  H166     1.0000 0.38870  0.70010  0.63620  Biso   1.000  H
  H167     1.0000 0.24170  0.56190  0.61600  Biso   1.000  H
  H168     1.0000 0.20350  0.47620  0.33610  Biso   1.000  H
  H169     1.0000 0.67390  0.27240  0.34910  Biso   1.000  H
  H170     1.0000 0.61130  0.24750  0.31140  Biso   1.000  H
  H171     1.0000 0.75830  0.37430  0.32020  Biso   1.000  H
  H172     1.0000 0.79650  0.13260  0.27270  Biso   1.000  H
  H173     1.0000 0.07670  0.72760  0.40150  Biso   1.000  H
  H174     1.0000 0.06390  0.75250  0.36380  Biso   1.000  H
  H175     1.0000 0.94590  0.62570  0.38400  Biso   1.000  H
  H176     1.0000 0.14010  0.86740  0.66390  Biso   1.000  H
  H177     1.0000 0.72760  0.40150  0.07670  Biso   1.000  H
  H178     1.0000 0.75250  0.36380  0.06390  Biso   1.000  H
  H179     1.0000 0.62570  0.38400  0.94590  Biso   1.000  H
  H180     1.0000 0.86740  0.66390  0.14010  Biso   1.000  H
  H181     1.0000 0.27240  0.34910  0.67390  Biso   1.000  H
  H182     1.0000 0.24750  0.31140  0.61130  Biso   1.000  H
  H183     1.0000 0.37430  0.32020  0.75830  Biso   1.000  H
  H184     1.0000 0.13260  0.27270  0.79650  Biso   1.000  H
  H185     1.0000 0.67520  0.59850  0.32610  Biso   1.000  H
  H186     1.0000 0.70010  0.63620  0.38870  Biso   1.000  H
  H187     1.0000 0.56190  0.61600  0.24170  Biso   1.000  H
  H188     1.0000 0.47620  0.33610  0.20350  Biso   1.000  H
  H189     1.0000 0.32480  0.65090  0.92330  Biso   1.000  H
  H190     1.0000 0.29990  0.68860  0.93610  Biso   1.000  H
  H191     1.0000 0.43810  0.67980  0.05410  Biso   1.000  H
  H192     1.0000 0.52380  0.72730  0.85990  Biso   1.000  H
  H193     1.0000 0.85610  0.22930  0.37320  Biso   1.000  H
  H194     1.0000 0.85610  0.48290  0.62680  Biso   1.000  H
  H195     1.0000 0.14390  0.77070  0.62680  Biso   1.000  H
  H196     1.0000 0.14390  0.51710  0.37320  Biso   1.000  H
  H197     1.0000 0.62680  0.14390  0.77070  Biso   1.000  H
  H198     1.0000 0.37320  0.14390  0.51710  Biso   1.000  H
  H199     1.0000 0.37320  0.85610  0.22930  Biso   1.000  H
  H200     1.0000 0.62680  0.85610  0.48290  Biso   1.000  H
  H201     1.0000 0.48290  0.62680  0.85610  Biso   1.000  H
  H202     1.0000 0.22930  0.37320  0.85610  Biso   1.000  H
  H203     1.0000 0.51710  0.37320  0.14390  Biso   1.000  H
  H204     1.0000 0.77070  0.62680  0.14390  Biso   1.000  H
  H205     1.0000 0.77070  0.14390  0.62680  Biso   1.000  H
  H206     1.0000 0.51710  0.14390  0.37320  Biso   1.000  H
  H207     1.0000 0.22930  0.85610  0.37320  Biso   1.000  H
  H208     1.0000 0.48290  0.85610  0.62680  Biso   1.000  H
  H209     1.0000 0.85610  0.37320  0.22930  Biso   1.000  H
  H210     1.0000 0.85610  0.62680  0.48290  Biso   1.000  H
  H211     1.0000 0.14390  0.62680  0.77070  Biso   1.000  H
  H212     1.0000 0.14390  0.37320  0.51710  Biso   1.000  H
  H213     1.0000 0.37320  0.51710  0.14390  Biso   1.000  H
  H214     1.0000 0.62680  0.77070  0.14390  Biso   1.000  H
  H215     1.0000 0.62680  0.48290  0.85610  Biso   1.000  H
  H216     1.0000 0.37320  0.22930  0.85610  Biso   1.000  H
  H217     1.0000 0.63260  0.11420  0.00000  Biso   1.000  H
  H218     1.0000 0.11420  0.63260  0.00000  Biso   1.000  H
  H219     1.0000 0.88580  0.88580  0.51840  Biso   1.000  H
  H220     1.0000 0.36740  0.36740  0.48160  Biso   1.000  H
  H221     1.0000 0.51840  0.88580  0.88580  Biso   1.000  H
  H222     1.0000 0.48160  0.36740  0.36740  Biso   1.000  H
  H223     1.0000 0.00000  0.63260  0.11420  Biso   1.000  H
  H224     1.0000 1.00000  0.11420  0.63260  Biso   1.000  H
  H225     1.0000 0.63260  0.00000  0.11420  Biso   1.000  H
  H226     1.0000 0.11420  0.00000  0.63260  Biso   1.000  H
  H227     1.0000 0.36740  0.48160  0.36740  Biso   1.000  H
  H228     1.0000 0.88580  0.51840  0.88580  Biso   1.000  H
  H229     1.0000 0.88580  0.36740  0.00000  Biso   1.000  H
  H230     1.0000 0.36740  0.88580  0.00000  Biso   1.000  H
  H231     1.0000 0.11420  0.11420  0.48160  Biso   1.000  H
  H232     1.0000 0.63260  0.63260  0.51840  Biso   1.000  H
  H233     1.0000 0.11420  0.48160  0.11420  Biso   1.000  H
  H234     1.0000 0.63260  0.51840  0.63260  Biso   1.000  H
  H235     1.0000 0.36740  0.00000  0.88580  Biso   1.000  H
  H236     1.0000 0.88580  0.00000  0.36740  Biso   1.000  H
  H237     1.0000 0.00000  0.36740  0.88580  Biso   1.000  H
  H238     1.0000 0.00000  0.88580  0.36740  Biso   1.000  H
  H239     1.0000 0.51840  0.63260  0.63260  Biso   1.000  H
  H240     1.0000 0.48160  0.11420  0.11420  Biso   1.000  H
  C1       1.0000 0.64670  0.33050  0.28040  Biso   1.000  C
  C2       1.0000 0.78170  0.25180  0.32450  Biso   1.000  C
  C3       1.0000 0.81810  0.27240  0.38410  Biso   1.000  C
  C4       1.0000 0.81542  0.31060  0.42382  Biso   1.000  C
  C5       1.0000 0.78155  0.33290  0.41105  Biso   1.000  C
  C6       1.0000 0.70810  0.18416  0.09786  Biso   1.000  C
  C7       1.0000 0.70697  0.18133  0.04902  Biso   1.000  C
  C8       1.0000 0.74580  0.22180  0.05022  Biso   1.000  C
  C9       1.0000 0.79268  0.26879  0.09909  Biso   1.000  C
  C10      1.0000 0.05010  0.36630  0.71960  Biso   1.000  C
  C11      1.0000 0.92730  0.45720  0.67550  Biso   1.000  C
  C12      1.0000 0.88830  0.43400  0.61590  Biso   1.000  C
  C13      1.0000 0.88678  0.39160  0.57618  Biso   1.000  C
  C14      1.0000 0.92185  0.37050  0.58895  Biso   1.000  C
  C15      1.0000 0.08630  0.61024  0.90214  Biso   1.000  C
  C16      1.0000 0.13231  0.65795  0.95098  Biso   1.000  C
  C17      1.0000 0.17158  0.69558  0.94978  Biso   1.000  C
  C18      1.0000 0.16970  0.69359  0.90091  Biso   1.000  C
  C19      1.0000 0.94990  0.66950  0.31620  Biso   1.000  C
  C20      1.0000 0.07270  0.74820  0.52990  Biso   1.000  C
  C21      1.0000 0.11170  0.72760  0.54570  Biso   1.000  C
  C22      1.0000 0.11322  0.68940  0.50482  Biso   1.000  C
  C23      1.0000 0.07815  0.66710  0.44865  Biso   1.000  C
  C24      1.0000 0.91370  0.81584  0.52394  Biso   1.000  C
  C25      1.0000 0.86769  0.81867  0.52564  Biso   1.000  C
  C26      1.0000 0.82842  0.77820  0.52400  Biso   1.000  C
  C27      1.0000 0.83030  0.73121  0.52389  Biso   1.000  C
  C28      1.0000 0.35330  0.63370  0.68380  Biso   1.000  C
  C29      1.0000 0.21830  0.54280  0.47010  Biso   1.000  C
  C30      1.0000 0.18190  0.56600  0.45430  Biso   1.000  C
  C31      1.0000 0.18458  0.60840  0.49518  Biso   1.000  C
  C32      1.0000 0.21845  0.62950  0.55135  Biso   1.000  C
  C33      1.0000 0.29190  0.38976  0.47606  Biso   1.000  C
  C34      1.0000 0.29303  0.34205  0.47436  Biso   1.000  C
  C35      1.0000 0.25420  0.30442  0.47600  Biso   1.000  C
  C36      1.0000 0.20732  0.30641  0.47611  Biso   1.000  C
  C37      1.0000 0.31620  0.94990  0.66950  Biso   1.000  C
  C38      1.0000 0.52990  0.07270  0.74820  Biso   1.000  C
  C39      1.0000 0.54570  0.11170  0.72760  Biso   1.000  C
  C40      1.0000 0.50482  0.11322  0.68940  Biso   1.000  C
  C41      1.0000 0.44865  0.07815  0.66710  Biso   1.000  C
  C42      1.0000 0.52394  0.91370  0.81584  Biso   1.000  C
  C43      1.0000 0.52564  0.86769  0.81867  Biso   1.000  C
  C44      1.0000 0.52400  0.82842  0.77820  Biso   1.000  C
  C45      1.0000 0.52389  0.83030  0.73121  Biso   1.000  C
  C46      1.0000 0.68380  0.35330  0.63370  Biso   1.000  C
  C47      1.0000 0.47010  0.21830  0.54280  Biso   1.000  C
  C48      1.0000 0.45430  0.18190  0.56600  Biso   1.000  C
  C49      1.0000 0.49518  0.18458  0.60840  Biso   1.000  C
  C50      1.0000 0.55135  0.21845  0.62950  Biso   1.000  C
  C51      1.0000 0.47606  0.29190  0.38976  Biso   1.000  C
  C52      1.0000 0.47436  0.29303  0.34205  Biso   1.000  C
  C53      1.0000 0.47600  0.25420  0.30442  Biso   1.000  C
  C54      1.0000 0.47611  0.20732  0.30641  Biso   1.000  C
  C55      1.0000 0.28040  0.64670  0.33050  Biso   1.000  C
  C56      1.0000 0.32450  0.78170  0.25180  Biso   1.000  C
  C57      1.0000 0.38410  0.81810  0.27240  Biso   1.000  C
  C58      1.0000 0.42382  0.81542  0.31060  Biso   1.000  C
  C59      1.0000 0.41105  0.78155  0.33290  Biso   1.000  C
  C60      1.0000 0.09786  0.70810  0.18416  Biso   1.000  C
  C61      1.0000 0.04902  0.70697  0.18133  Biso   1.000  C
  C62      1.0000 0.05022  0.74580  0.22180  Biso   1.000  C
  C63      1.0000 0.09909  0.79268  0.26879  Biso   1.000  C
  C64      1.0000 0.71960  0.05010  0.36630  Biso   1.000  C
  C65      1.0000 0.67550  0.92730  0.45720  Biso   1.000  C
  C66      1.0000 0.61590  0.88830  0.43400  Biso   1.000  C
  C67      1.0000 0.57618  0.88678  0.39160  Biso   1.000  C
  C68      1.0000 0.58895  0.92185  0.37050  Biso   1.000  C
  C69      1.0000 0.90214  0.08630  0.61024  Biso   1.000  C
  C70      1.0000 0.95098  0.13231  0.65795  Biso   1.000  C
  C71      1.0000 0.94978  0.17158  0.69558  Biso   1.000  C
  C72      1.0000 0.90091  0.16970  0.69359  Biso   1.000  C
  C73      1.0000 0.36630  0.71960  0.05010  Biso   1.000  C
  C74      1.0000 0.45720  0.67550  0.92730  Biso   1.000  C
  C75      1.0000 0.43400  0.61590  0.88830  Biso   1.000  C
  C76      1.0000 0.39160  0.57618  0.88678  Biso   1.000  C
  C77      1.0000 0.37050  0.58895  0.92185  Biso   1.000  C
  C78      1.0000 0.61024  0.90214  0.08630  Biso   1.000  C
  C79      1.0000 0.65795  0.95098  0.13231  Biso   1.000  C
  C80      1.0000 0.69558  0.94978  0.17158  Biso   1.000  C
  C81      1.0000 0.69359  0.90091  0.16970  Biso   1.000  C
  C82      1.0000 0.33050  0.28040  0.64670  Biso   1.000  C
  C83      1.0000 0.25180  0.32450  0.78170  Biso   1.000  C
  C84      1.0000 0.27240  0.38410  0.81810  Biso   1.000  C
  C85      1.0000 0.31060  0.42382  0.81542  Biso   1.000  C
  C86      1.0000 0.33290  0.41105  0.78155  Biso   1.000  C
  C87      1.0000 0.18416  0.09786  0.70810  Biso   1.000  C
  C88      1.0000 0.18133  0.04902  0.70697  Biso   1.000  C
  C89      1.0000 0.22180  0.05022  0.74580  Biso   1.000  C
  C90      1.0000 0.26879  0.09909  0.79268  Biso   1.000  C
  C91      1.0000 0.63370  0.68380  0.35330  Biso   1.000  C
  C92      1.0000 0.54280  0.47010  0.21830  Biso   1.000  C
  C93      1.0000 0.56600  0.45430  0.18190  Biso   1.000  C
  C94      1.0000 0.60840  0.49518  0.18458  Biso   1.000  C
  C95      1.0000 0.62950  0.55135  0.21845  Biso   1.000  C
  C96      1.0000 0.38976  0.47606  0.29190  Biso   1.000  C
  C97      1.0000 0.34205  0.47436  0.29303  Biso   1.000  C
  C98      1.0000 0.30442  0.47600  0.25420  Biso   1.000  C
  C99      1.0000 0.30641  0.47611  0.20732  Biso   1.000  C
  C100     1.0000 0.66950  0.31620  0.94990  Biso   1.000  C
  C101     1.0000 0.74820  0.52990  0.07270  Biso   1.000  C
  C102     1.0000 0.72760  0.54570  0.11170  Biso   1.000  C
  C103     1.0000 0.68940  0.50482  0.11322  Biso   1.000  C
  C104     1.0000 0.66710  0.44865  0.07815  Biso   1.000  C
  C105     1.0000 0.81584  0.52394  0.91370  Biso   1.000  C
  C106     1.0000 0.81867  0.52564  0.86769  Biso   1.000  C
  C107     1.0000 0.77820  0.52400  0.82842  Biso   1.000  C
  C108     1.0000 0.73121  0.52389  0.83030  Biso   1.000  C
  C109     1.0000 0.66950  0.35330  0.71960  Biso   1.000  C
  C110     1.0000 0.74820  0.21830  0.67550  Biso   1.000  C
  C111     1.0000 0.72760  0.18190  0.61590  Biso   1.000  C
  C112     1.0000 0.68940  0.18458  0.57618  Biso   1.000  C
  C113     1.0000 0.66710  0.21845  0.58895  Biso   1.000  C
  C114     1.0000 0.81584  0.29190  0.90214  Biso   1.000  C
  C115     1.0000 0.81867  0.29303  0.95098  Biso   1.000  C
  C116     1.0000 0.77820  0.25420  0.94978  Biso   1.000  C
  C117     1.0000 0.73121  0.20732  0.90091  Biso   1.000  C
  C118     1.0000 0.63370  0.94990  0.28040  Biso   1.000  C
  C119     1.0000 0.54280  0.07270  0.32450  Biso   1.000  C
  C120     1.0000 0.56600  0.11170  0.38410  Biso   1.000  C
  C121     1.0000 0.60840  0.11322  0.42382  Biso   1.000  C
  C122     1.0000 0.62950  0.07815  0.41105  Biso   1.000  C
  C123     1.0000 0.38976  0.91370  0.09786  Biso   1.000  C
  C124     1.0000 0.34205  0.86769  0.04902  Biso   1.000  C
  C125     1.0000 0.30442  0.82842  0.05022  Biso   1.000  C
  C126     1.0000 0.30641  0.83030  0.09909  Biso   1.000  C
  C127     1.0000 0.33050  0.05010  0.68380  Biso   1.000  C
  C128     1.0000 0.25180  0.92730  0.47010  Biso   1.000  C
  C129     1.0000 0.27240  0.88830  0.45430  Biso   1.000  C
  C130     1.0000 0.31060  0.88678  0.49518  Biso   1.000  C
  C131     1.0000 0.33290  0.92185  0.55135  Biso   1.000  C
  C132     1.0000 0.18416  0.08630  0.47606  Biso   1.000  C
  C133     1.0000 0.18133  0.13231  0.47436  Biso   1.000  C
  C134     1.0000 0.22180  0.17158  0.47600  Biso   1.000  C
  C135     1.0000 0.26879  0.16970  0.47611  Biso   1.000  C
  C136     1.0000 0.36630  0.64670  0.31620  Biso   1.000  C
  C137     1.0000 0.45720  0.78170  0.52990  Biso   1.000  C
  C138     1.0000 0.43400  0.81810  0.54570  Biso   1.000  C
  C139     1.0000 0.39160  0.81542  0.50482  Biso   1.000  C
  C140     1.0000 0.37050  0.78155  0.44865  Biso   1.000  C
  C141     1.0000 0.61024  0.70810  0.52394  Biso   1.000  C
  C142     1.0000 0.65795  0.70697  0.52564  Biso   1.000  C
  C143     1.0000 0.69558  0.74580  0.52400  Biso   1.000  C
  C144     1.0000 0.69359  0.79268  0.52389  Biso   1.000  C
  C145     1.0000 0.05010  0.68380  0.33050  Biso   1.000  C
  C146     1.0000 0.92730  0.47010  0.25180  Biso   1.000  C
  C147     1.0000 0.88830  0.45430  0.27240  Biso   1.000  C
  C148     1.0000 0.88678  0.49518  0.31060  Biso   1.000  C
  C149     1.0000 0.92185  0.55135  0.33290  Biso   1.000  C
  C150     1.0000 0.08630  0.47606  0.18416  Biso   1.000  C
  C151     1.0000 0.13231  0.47436  0.18133  Biso   1.000  C
  C152     1.0000 0.17158  0.47600  0.22180  Biso   1.000  C
  C153     1.0000 0.16970  0.47611  0.26879  Biso   1.000  C
  C154     1.0000 0.64670  0.31620  0.36630  Biso   1.000  C
  C155     1.0000 0.78170  0.52990  0.45720  Biso   1.000  C
  C156     1.0000 0.81810  0.54570  0.43400  Biso   1.000  C
  C157     1.0000 0.81542  0.50482  0.39160  Biso   1.000  C
  C158     1.0000 0.78155  0.44865  0.37050  Biso   1.000  C
  C159     1.0000 0.70810  0.52394  0.61024  Biso   1.000  C
  C160     1.0000 0.70697  0.52564  0.65795  Biso   1.000  C
  C161     1.0000 0.74580  0.52400  0.69558  Biso   1.000  C
  C162     1.0000 0.79268  0.52389  0.69359  Biso   1.000  C
  C163     1.0000 0.35330  0.71960  0.66950  Biso   1.000  C
  C164     1.0000 0.21830  0.67550  0.74820  Biso   1.000  C
  C165     1.0000 0.18190  0.61590  0.72760  Biso   1.000  C
  C166     1.0000 0.18458  0.57618  0.68940  Biso   1.000  C
  C167     1.0000 0.21845  0.58895  0.66710  Biso   1.000  C
  C168     1.0000 0.29190  0.90214  0.81584  Biso   1.000  C
  C169     1.0000 0.29303  0.95098  0.81867  Biso   1.000  C
  C170     1.0000 0.25420  0.94978  0.77820  Biso   1.000  C
  C171     1.0000 0.20732  0.90091  0.73121  Biso   1.000  C
  C172     1.0000 0.94990  0.28040  0.63370  Biso   1.000  C
  C173     1.0000 0.07270  0.32450  0.54280  Biso   1.000  C
  C174     1.0000 0.11170  0.38410  0.56600  Biso   1.000  C
  C175     1.0000 0.11322  0.42382  0.60840  Biso   1.000  C
  C176     1.0000 0.07815  0.41105  0.62950  Biso   1.000  C
  C177     1.0000 0.91370  0.09786  0.38976  Biso   1.000  C
  C178     1.0000 0.86769  0.04902  0.34205  Biso   1.000  C
  C179     1.0000 0.82842  0.05022  0.30442  Biso   1.000  C
  C180     1.0000 0.83030  0.09909  0.30641  Biso   1.000  C
  C181     1.0000 0.28040  0.63370  0.94990  Biso   1.000  C
  C182     1.0000 0.32450  0.54280  0.07270  Biso   1.000  C
  C183     1.0000 0.38410  0.56600  0.11170  Biso   1.000  C
  C184     1.0000 0.42382  0.60840  0.11322  Biso   1.000  C
  C185     1.0000 0.41105  0.62950  0.07815  Biso   1.000  C
  C186     1.0000 0.09786  0.38976  0.91370  Biso   1.000  C
  C187     1.0000 0.04902  0.34205  0.86769  Biso   1.000  C
  C188     1.0000 0.05022  0.30442  0.82842  Biso   1.000  C
  C189     1.0000 0.09909  0.30641  0.83030  Biso   1.000  C
  C190     1.0000 0.71960  0.66950  0.35330  Biso   1.000  C
  C191     1.0000 0.67550  0.74820  0.21830  Biso   1.000  C
  C192     1.0000 0.61590  0.72760  0.18190  Biso   1.000  C
  C193     1.0000 0.57618  0.68940  0.18458  Biso   1.000  C
  C194     1.0000 0.58895  0.66710  0.21845  Biso   1.000  C
  C195     1.0000 0.90214  0.81584  0.29190  Biso   1.000  C
  C196     1.0000 0.95098  0.81867  0.29303  Biso   1.000  C
  C197     1.0000 0.94978  0.77820  0.25420  Biso   1.000  C
  C198     1.0000 0.90091  0.73121  0.20732  Biso   1.000  C
  C199     1.0000 0.31620  0.36630  0.64670  Biso   1.000  C
  C200     1.0000 0.52990  0.45720  0.78170  Biso   1.000  C
  C201     1.0000 0.54570  0.43400  0.81810  Biso   1.000  C
  C202     1.0000 0.50482  0.39160  0.81542  Biso   1.000  C
  C203     1.0000 0.44865  0.37050  0.78155  Biso   1.000  C
  C204     1.0000 0.52394  0.61024  0.70810  Biso   1.000  C
  C205     1.0000 0.52564  0.65795  0.70697  Biso   1.000  C
  C206     1.0000 0.52400  0.69558  0.74580  Biso   1.000  C
  C207     1.0000 0.52389  0.69359  0.79268  Biso   1.000  C
  C208     1.0000 0.68380  0.33050  0.05010  Biso   1.000  C
  C209     1.0000 0.47010  0.25180  0.92730  Biso   1.000  C
  C210     1.0000 0.45430  0.27240  0.88830  Biso   1.000  C
  C211     1.0000 0.49518  0.31060  0.88678  Biso   1.000  C
  C212     1.0000 0.55135  0.33290  0.92185  Biso   1.000  C
  C213     1.0000 0.47606  0.18416  0.08630  Biso   1.000  C
  C214     1.0000 0.47436  0.18133  0.13231  Biso   1.000  C
  C215     1.0000 0.47600  0.22180  0.17158  Biso   1.000  C
  C216     1.0000 0.47611  0.26879  0.16970  Biso   1.000  C
  C217     1.0000 0.35330  0.66950  0.71960  Biso   1.000  C
  C218     1.0000 0.21830  0.74820  0.67550  Biso   1.000  C
  C219     1.0000 0.18190  0.72760  0.61590  Biso   1.000  C
  C220     1.0000 0.18458  0.68940  0.57618  Biso   1.000  C
  C221     1.0000 0.21845  0.66710  0.58895  Biso   1.000  C
  C222     1.0000 0.29190  0.81584  0.90214  Biso   1.000  C
  C223     1.0000 0.29303  0.81867  0.95098  Biso   1.000  C
  C224     1.0000 0.25420  0.77820  0.94978  Biso   1.000  C
  C225     1.0000 0.20732  0.73121  0.90091  Biso   1.000  C
  C226     1.0000 0.94990  0.63370  0.28040  Biso   1.000  C
  C227     1.0000 0.07270  0.54280  0.32450  Biso   1.000  C
  C228     1.0000 0.11170  0.56600  0.38410  Biso   1.000  C
  C229     1.0000 0.11322  0.60840  0.42382  Biso   1.000  C
  C230     1.0000 0.07815  0.62950  0.41105  Biso   1.000  C
  C231     1.0000 0.91370  0.38976  0.09786  Biso   1.000  C
  C232     1.0000 0.86769  0.34205  0.04902  Biso   1.000  C
  C233     1.0000 0.82842  0.30442  0.05022  Biso   1.000  C
  C234     1.0000 0.83030  0.30641  0.09909  Biso   1.000  C
  C235     1.0000 0.05010  0.33050  0.68380  Biso   1.000  C
  C236     1.0000 0.92730  0.25180  0.47010  Biso   1.000  C
  C237     1.0000 0.88830  0.27240  0.45430  Biso   1.000  C
  C238     1.0000 0.88678  0.31060  0.49518  Biso   1.000  C
  C239     1.0000 0.92185  0.33290  0.55135  Biso   1.000  C
  C240     1.0000 0.08630  0.18416  0.47606  Biso   1.000  C
  C241     1.0000 0.13231  0.18133  0.47436  Biso   1.000  C
  C242     1.0000 0.17158  0.22180  0.47600  Biso   1.000  C
  C243     1.0000 0.16970  0.26879  0.47611  Biso   1.000  C
  C244     1.0000 0.64670  0.36630  0.31620  Biso   1.000  C
  C245     1.0000 0.78170  0.45720  0.52990  Biso   1.000  C
  C246     1.0000 0.81810  0.43400  0.54570  Biso   1.000  C
  C247     1.0000 0.81542  0.39160  0.50482  Biso   1.000  C
  C248     1.0000 0.78155  0.37050  0.44865  Biso   1.000  C
  C249     1.0000 0.70810  0.61024  0.52394  Biso   1.000  C
  C250     1.0000 0.70697  0.65795  0.52564  Biso   1.000  C
  C251     1.0000 0.74580  0.69558  0.52400  Biso   1.000  C
  C252     1.0000 0.79268  0.69359  0.52389  Biso   1.000  C
  C253     1.0000 0.68380  0.05010  0.33050  Biso   1.000  C
  C254     1.0000 0.47010  0.92730  0.25180  Biso   1.000  C
  C255     1.0000 0.45430  0.88830  0.27240  Biso   1.000  C
  C256     1.0000 0.49518  0.88678  0.31060  Biso   1.000  C
  C257     1.0000 0.55135  0.92185  0.33290  Biso   1.000  C
  C258     1.0000 0.47606  0.08630  0.18416  Biso   1.000  C
  C259     1.0000 0.47436  0.13231  0.18133  Biso   1.000  C
  C260     1.0000 0.47600  0.17158  0.22180  Biso   1.000  C
  C261     1.0000 0.47611  0.16970  0.26879  Biso   1.000  C
  C262     1.0000 0.31620  0.64670  0.36630  Biso   1.000  C
  C263     1.0000 0.52990  0.78170  0.45720  Biso   1.000  C
  C264     1.0000 0.54570  0.81810  0.43400  Biso   1.000  C
  C265     1.0000 0.50482  0.81542  0.39160  Biso   1.000  C
  C266     1.0000 0.44865  0.78155  0.37050  Biso   1.000  C
  C267     1.0000 0.52394  0.70810  0.61024  Biso   1.000  C
  C268     1.0000 0.52564  0.70697  0.65795  Biso   1.000  C
  C269     1.0000 0.52400  0.74580  0.69558  Biso   1.000  C
  C270     1.0000 0.52389  0.79268  0.69359  Biso   1.000  C
  C271     1.0000 0.71960  0.35330  0.66950  Biso   1.000  C
  C272     1.0000 0.67550  0.21830  0.74820  Biso   1.000  C
  C273     1.0000 0.61590  0.18190  0.72760  Biso   1.000  C
  C274     1.0000 0.57618  0.18458  0.68940  Biso   1.000  C
  C275     1.0000 0.58895  0.21845  0.66710  Biso   1.000  C
  C276     1.0000 0.90214  0.29190  0.81584  Biso   1.000  C
  C277     1.0000 0.95098  0.29303  0.81867  Biso   1.000  C
  C278     1.0000 0.94978  0.25420  0.77820  Biso   1.000  C
  C279     1.0000 0.90091  0.20732  0.73121  Biso   1.000  C
  C280     1.0000 0.28040  0.94990  0.63370  Biso   1.000  C
  C281     1.0000 0.32450  0.07270  0.54280  Biso   1.000  C
  C282     1.0000 0.38410  0.11170  0.56600  Biso   1.000  C
  C283     1.0000 0.42382  0.11322  0.60840  Biso   1.000  C
  C284     1.0000 0.41105  0.07815  0.62950  Biso   1.000  C
  C285     1.0000 0.09786  0.91370  0.38976  Biso   1.000  C
  C286     1.0000 0.04902  0.86769  0.34205  Biso   1.000  C
  C287     1.0000 0.05022  0.82842  0.30442  Biso   1.000  C
  C288     1.0000 0.09909  0.83030  0.30641  Biso   1.000  C
  C289     1.0000 0.63370  0.28040  0.94990  Biso   1.000  C
  C290     1.0000 0.54280  0.32450  0.07270  Biso   1.000  C
  C291     1.0000 0.56600  0.38410  0.11170  Biso   1.000  C
  C292     1.0000 0.60840  0.42382  0.11322  Biso   1.000  C
  C293     1.0000 0.62950  0.41105  0.07815  Biso   1.000  C
  C294     1.0000 0.38976  0.09786  0.91370  Biso   1.000  C
  C295     1.0000 0.34205  0.04902  0.86769  Biso   1.000  C
  C296     1.0000 0.30442  0.05022  0.82842  Biso   1.000  C
  C297     1.0000 0.30641  0.09909  0.83030  Biso   1.000  C
  C298     1.0000 0.66950  0.71960  0.35330  Biso   1.000  C
  C299     1.0000 0.74820  0.67550  0.21830  Biso   1.000  C
  C300     1.0000 0.72760  0.61590  0.18190  Biso   1.000  C
  C301     1.0000 0.68940  0.57618  0.18458  Biso   1.000  C
  C302     1.0000 0.66710  0.58895  0.21845  Biso   1.000  C
  C303     1.0000 0.81584  0.90214  0.29190  Biso   1.000  C
  C304     1.0000 0.81867  0.95098  0.29303  Biso   1.000  C
  C305     1.0000 0.77820  0.94978  0.25420  Biso   1.000  C
  C306     1.0000 0.73121  0.90091  0.20732  Biso   1.000  C
  C307     1.0000 0.36630  0.31620  0.64670  Biso   1.000  C
  C308     1.0000 0.45720  0.52990  0.78170  Biso   1.000  C
  C309     1.0000 0.43400  0.54570  0.81810  Biso   1.000  C
  C310     1.0000 0.39160  0.50482  0.81542  Biso   1.000  C
  C311     1.0000 0.37050  0.44865  0.78155  Biso   1.000  C
  C312     1.0000 0.61024  0.52394  0.70810  Biso   1.000  C
  C313     1.0000 0.65795  0.52564  0.70697  Biso   1.000  C
  C314     1.0000 0.69558  0.52400  0.74580  Biso   1.000  C
  C315     1.0000 0.69359  0.52389  0.79268  Biso   1.000  C
  C316     1.0000 0.33050  0.68380  0.05010  Biso   1.000  C
  C317     1.0000 0.25180  0.47010  0.92730  Biso   1.000  C
  C318     1.0000 0.27240  0.45430  0.88830  Biso   1.000  C
  C319     1.0000 0.31060  0.49518  0.88678  Biso   1.000  C
  C320     1.0000 0.33290  0.55135  0.92185  Biso   1.000  C
  C321     1.0000 0.18416  0.47606  0.08630  Biso   1.000  C
  C322     1.0000 0.18133  0.47436  0.13231  Biso   1.000  C
  C323     1.0000 0.22180  0.47600  0.17158  Biso   1.000  C
  C324     1.0000 0.26879  0.47611  0.16970  Biso   1.000  C
  C325     1.0000 0.33050  0.64670  0.28040  Biso   1.000  C
  C326     1.0000 0.25180  0.78170  0.32450  Biso   1.000  C
  C327     1.0000 0.27240  0.81810  0.38410  Biso   1.000  C
  C328     1.0000 0.31060  0.81542  0.42382  Biso   1.000  C
  C329     1.0000 0.33290  0.78155  0.41105  Biso   1.000  C
  C330     1.0000 0.18416  0.70810  0.09786  Biso   1.000  C
  C331     1.0000 0.18133  0.70697  0.04902  Biso   1.000  C
  C332     1.0000 0.22180  0.74580  0.05022  Biso   1.000  C
  C333     1.0000 0.26879  0.79268  0.09909  Biso   1.000  C
  C334     1.0000 0.36630  0.05010  0.71960  Biso   1.000  C
  C335     1.0000 0.45720  0.92730  0.67550  Biso   1.000  C
  C336     1.0000 0.43400  0.88830  0.61590  Biso   1.000  C
  C337     1.0000 0.39160  0.88678  0.57618  Biso   1.000  C
  C338     1.0000 0.37050  0.92185  0.58895  Biso   1.000  C
  C339     1.0000 0.61024  0.08630  0.90214  Biso   1.000  C
  C340     1.0000 0.65795  0.13231  0.95098  Biso   1.000  C
  C341     1.0000 0.69558  0.17158  0.94978  Biso   1.000  C
  C342     1.0000 0.69359  0.16970  0.90091  Biso   1.000  C
  C343     1.0000 0.66950  0.94990  0.31620  Biso   1.000  C
  C344     1.0000 0.74820  0.07270  0.52990  Biso   1.000  C
  C345     1.0000 0.72760  0.11170  0.54570  Biso   1.000  C
  C346     1.0000 0.68940  0.11322  0.50482  Biso   1.000  C
  C347     1.0000 0.66710  0.07815  0.44865  Biso   1.000  C
  C348     1.0000 0.81584  0.91370  0.52394  Biso   1.000  C
  C349     1.0000 0.81867  0.86769  0.52564  Biso   1.000  C
  C350     1.0000 0.77820  0.82842  0.52400  Biso   1.000  C
  C351     1.0000 0.73121  0.83030  0.52389  Biso   1.000  C
  C352     1.0000 0.63370  0.35330  0.68380  Biso   1.000  C
  C353     1.0000 0.54280  0.21830  0.47010  Biso   1.000  C
  C354     1.0000 0.56600  0.18190  0.45430  Biso   1.000  C
  C355     1.0000 0.60840  0.18458  0.49518  Biso   1.000  C
  C356     1.0000 0.62950  0.21845  0.55135  Biso   1.000  C
  C357     1.0000 0.38976  0.29190  0.47606  Biso   1.000  C
  C358     1.0000 0.34205  0.29303  0.47436  Biso   1.000  C
  C359     1.0000 0.30442  0.25420  0.47600  Biso   1.000  C
  C360     1.0000 0.30641  0.20732  0.47611  Biso   1.000  C
  C361     1.0000 0.94990  0.31620  0.66950  Biso   1.000  C
  C362     1.0000 0.07270  0.52990  0.74820  Biso   1.000  C
  C363     1.0000 0.11170  0.54570  0.72760  Biso   1.000  C
  C364     1.0000 0.11322  0.50482  0.68940  Biso   1.000  C
  C365     1.0000 0.07815  0.44865  0.66710  Biso   1.000  C
  C366     1.0000 0.91370  0.52394  0.81584  Biso   1.000  C
  C367     1.0000 0.86769  0.52564  0.81867  Biso   1.000  C
  C368     1.0000 0.82842  0.52400  0.77820  Biso   1.000  C
  C369     1.0000 0.83030  0.52389  0.73121  Biso   1.000  C
  C370     1.0000 0.35330  0.68380  0.63370  Biso   1.000  C
  C371     1.0000 0.21830  0.47010  0.54280  Biso   1.000  C
  C372     1.0000 0.18190  0.45430  0.56600  Biso   1.000  C
  C373     1.0000 0.18458  0.49518  0.60840  Biso   1.000  C
  C374     1.0000 0.21845  0.55135  0.62950  Biso   1.000  C
  C375     1.0000 0.29190  0.47606  0.38976  Biso   1.000  C
  C376     1.0000 0.29303  0.47436  0.34205  Biso   1.000  C
  C377     1.0000 0.25420  0.47600  0.30442  Biso   1.000  C
  C378     1.0000 0.20732  0.47611  0.30641  Biso   1.000  C
  C379     1.0000 0.64670  0.28040  0.33050  Biso   1.000  C
  C380     1.0000 0.78170  0.32450  0.25180  Biso   1.000  C
  C381     1.0000 0.81810  0.38410  0.27240  Biso   1.000  C
  C382     1.0000 0.81542  0.42382  0.31060  Biso   1.000  C
  C383     1.0000 0.78155  0.41105  0.33290  Biso   1.000  C
  C384     1.0000 0.70810  0.09786  0.18416  Biso   1.000  C
  C385     1.0000 0.70697  0.04902  0.18133  Biso   1.000  C
  C386     1.0000 0.74580  0.05022  0.22180  Biso   1.000  C
  C387     1.0000 0.79268  0.09909  0.26879  Biso   1.000  C
  C388     1.0000 0.05010  0.71960  0.36630  Biso   1.000  C
  C389     1.0000 0.92730  0.67550  0.45720  Biso   1.000  C
  C390     1.0000 0.88830  0.61590  0.43400  Biso   1.000  C
  C391     1.0000 0.88678  0.57618  0.39160  Biso   1.000  C
  C392     1.0000 0.92185  0.58895  0.37050  Biso   1.000  C
  C393     1.0000 0.08630  0.90214  0.61024  Biso   1.000  C
  C394     1.0000 0.13231  0.95098  0.65795  Biso   1.000  C
  C395     1.0000 0.17158  0.94978  0.69558  Biso   1.000  C
  C396     1.0000 0.16970  0.90091  0.69359  Biso   1.000  C
  C397     1.0000 0.71960  0.36630  0.05010  Biso   1.000  C
  C398     1.0000 0.67550  0.45720  0.92730  Biso   1.000  C
  C399     1.0000 0.61590  0.43400  0.88830  Biso   1.000  C
  C400     1.0000 0.57618  0.39160  0.88678  Biso   1.000  C
  C401     1.0000 0.58895  0.37050  0.92185  Biso   1.000  C
  C402     1.0000 0.90214  0.61024  0.08630  Biso   1.000  C
  C403     1.0000 0.95098  0.65795  0.13231  Biso   1.000  C
  C404     1.0000 0.94978  0.69558  0.17158  Biso   1.000  C
  C405     1.0000 0.90091  0.69359  0.16970  Biso   1.000  C
  C406     1.0000 0.28040  0.33050  0.64670  Biso   1.000  C
  C407     1.0000 0.32450  0.25180  0.78170  Biso   1.000  C
  C408     1.0000 0.38410  0.27240  0.81810  Biso   1.000  C
  C409     1.0000 0.42382  0.31060  0.81542  Biso   1.000  C
  C410     1.0000 0.41105  0.33290  0.78155  Biso   1.000  C
  C411     1.0000 0.09786  0.18416  0.70810  Biso   1.000  C
  C412     1.0000 0.04902  0.18133  0.70697  Biso   1.000  C
  C413     1.0000 0.05022  0.22180  0.74580  Biso   1.000  C
  C414     1.0000 0.09909  0.26879  0.79268  Biso   1.000  C
  C415     1.0000 0.68380  0.63370  0.35330  Biso   1.000  C
  C416     1.0000 0.47010  0.54280  0.21830  Biso   1.000  C
  C417     1.0000 0.45430  0.56600  0.18190  Biso   1.000  C
  C418     1.0000 0.49518  0.60840  0.18458  Biso   1.000  C
  C419     1.0000 0.55135  0.62950  0.21845  Biso   1.000  C
  C420     1.0000 0.47606  0.38976  0.29190  Biso   1.000  C
  C421     1.0000 0.47436  0.34205  0.29303  Biso   1.000  C
  C422     1.0000 0.47600  0.30442  0.25420  Biso   1.000  C
  C423     1.0000 0.47611  0.30641  0.20732  Biso   1.000  C
  C424     1.0000 0.31620  0.66950  0.94990  Biso   1.000  C
  C425     1.0000 0.52990  0.74820  0.07270  Biso   1.000  C
  C426     1.0000 0.54570  0.72760  0.11170  Biso   1.000  C
  C427     1.0000 0.50482  0.68940  0.11322  Biso   1.000  C
  C428     1.0000 0.44865  0.66710  0.07815  Biso   1.000  C
  C429     1.0000 0.52394  0.81584  0.91370  Biso   1.000  C
  C430     1.0000 0.52564  0.81867  0.86769  Biso   1.000  C
  C431     1.0000 0.52400  0.77820  0.82842  Biso   1.000  C
  C432     1.0000 0.52389  0.73121  0.83030  Biso   1.000  C
  C433     1.0000 0.85440  0.25450  0.40010  Biso   1.000  C
  C434     1.0000 0.85140  0.33160  0.48020  Biso   1.000  C
  C435     1.0000 0.85440  0.45430  0.59990  Biso   1.000  C
  C436     1.0000 0.85140  0.37120  0.51980  Biso   1.000  C
  C437     1.0000 0.14560  0.74550  0.59990  Biso   1.000  C
  C438     1.0000 0.14860  0.66840  0.51980  Biso   1.000  C
  C439     1.0000 0.14560  0.54570  0.40010  Biso   1.000  C
  C440     1.0000 0.14860  0.62880  0.48020  Biso   1.000  C
  C441     1.0000 0.59990  0.14560  0.74550  Biso   1.000  C
  C442     1.0000 0.51980  0.14860  0.66840  Biso   1.000  C
  C443     1.0000 0.40010  0.14560  0.54570  Biso   1.000  C
  C444     1.0000 0.48020  0.14860  0.62880  Biso   1.000  C
  C445     1.0000 0.40010  0.85440  0.25450  Biso   1.000  C
  C446     1.0000 0.48020  0.85140  0.33160  Biso   1.000  C
  C447     1.0000 0.59990  0.85440  0.45430  Biso   1.000  C
  C448     1.0000 0.51980  0.85140  0.37120  Biso   1.000  C
  C449     1.0000 0.45430  0.59990  0.85440  Biso   1.000  C
  C450     1.0000 0.37120  0.51980  0.85140  Biso   1.000  C
  C451     1.0000 0.25450  0.40010  0.85440  Biso   1.000  C
  C452     1.0000 0.33160  0.48020  0.85140  Biso   1.000  C
  C453     1.0000 0.54570  0.40010  0.14560  Biso   1.000  C
  C454     1.0000 0.62880  0.48020  0.14860  Biso   1.000  C
  C455     1.0000 0.74550  0.59990  0.14560  Biso   1.000  C
  C456     1.0000 0.66840  0.51980  0.14860  Biso   1.000  C
  C457     1.0000 0.74550  0.14560  0.59990  Biso   1.000  C
  C458     1.0000 0.66840  0.14860  0.51980  Biso   1.000  C
  C459     1.0000 0.54570  0.14560  0.40010  Biso   1.000  C
  C460     1.0000 0.62880  0.14860  0.48020  Biso   1.000  C
  C461     1.0000 0.25450  0.85440  0.40010  Biso   1.000  C
  C462     1.0000 0.33160  0.85140  0.48020  Biso   1.000  C
  C463     1.0000 0.45430  0.85440  0.59990  Biso   1.000  C
  C464     1.0000 0.37120  0.85140  0.51980  Biso   1.000  C
  C465     1.0000 0.85440  0.40010  0.25450  Biso   1.000  C
  C466     1.0000 0.85140  0.48020  0.33160  Biso   1.000  C
  C467     1.0000 0.85440  0.59990  0.45430  Biso   1.000  C
  C468     1.0000 0.85140  0.51980  0.37120  Biso   1.000  C
  C469     1.0000 0.14560  0.59990  0.74550  Biso   1.000  C
  C470     1.0000 0.14860  0.51980  0.66840  Biso   1.000  C
  C471     1.0000 0.14560  0.40010  0.54570  Biso   1.000  C
  C472     1.0000 0.14860  0.48020  0.62880  Biso   1.000  C
  C473     1.0000 0.40010  0.54570  0.14560  Biso   1.000  C
  C474     1.0000 0.48020  0.62880  0.14860  Biso   1.000  C
  C475     1.0000 0.59990  0.74550  0.14560  Biso   1.000  C
  C476     1.0000 0.51980  0.66840  0.14860  Biso   1.000  C
  C477     1.0000 0.59990  0.45430  0.85440  Biso   1.000  C
  C478     1.0000 0.51980  0.37120  0.85140  Biso   1.000  C
  C479     1.0000 0.40010  0.25450  0.85440  Biso   1.000  C
  C480     1.0000 0.48020  0.33160  0.85140  Biso   1.000  C
  C481     1.0000 0.74256  0.21566  0.00000  Biso   1.000  C
  C482     1.0000 0.66160  0.13900  1.00000  Biso   1.000  C
  C483     1.0000 0.21566  0.74256  0.00000  Biso   1.000  C
  C484     1.0000 0.13900  0.66160  0.00000  Biso   1.000  C
  C485     1.0000 0.78434  0.78434  0.52690  Biso   1.000  C
  C486     1.0000 0.86100  0.86100  0.52260  Biso   1.000  C
  C487     1.0000 0.25744  0.25744  0.47310  Biso   1.000  C
  C488     1.0000 0.33840  0.33840  0.47740  Biso   1.000  C
  C489     1.0000 0.52690  0.78434  0.78434  Biso   1.000  C
  C490     1.0000 0.52260  0.86100  0.86100  Biso   1.000  C
  C491     1.0000 0.47310  0.25744  0.25744  Biso   1.000  C
  C492     1.0000 0.47740  0.33840  0.33840  Biso   1.000  C
  C493     1.0000 0.00000  0.74256  0.21566  Biso   1.000  C
  C494     1.0000 0.00000  0.66160  0.13900  Biso   1.000  C
  C495     1.0000 0.00000  0.21566  0.74256  Biso   1.000  C
  C496     1.0000 0.00000  0.13900  0.66160  Biso   1.000  C
  C497     1.0000 0.74256  0.00000  0.21566  Biso   1.000  C
  C498     1.0000 0.66160  1.00000  0.13900  Biso   1.000  C
  C499     1.0000 0.21566  0.00000  0.74256  Biso   1.000  C
  C500     1.0000 0.13900  0.00000  0.66160  Biso   1.000  C
  C501     1.0000 0.25744  0.47310  0.25744  Biso   1.000  C
  C502     1.0000 0.33840  0.47740  0.33840  Biso   1.000  C
  C503     1.0000 0.78434  0.52690  0.78434  Biso   1.000  C
  C504     1.0000 0.86100  0.52260  0.86100  Biso   1.000  C
  C505     1.0000 0.78434  0.25744  0.00000  Biso   1.000  C
  C506     1.0000 0.86100  0.33840  0.00000  Biso   1.000  C
  C507     1.0000 0.25744  0.78434  0.00000  Biso   1.000  C
  C508     1.0000 0.33840  0.86100  0.00000  Biso   1.000  C
  C509     1.0000 0.21566  0.21566  0.47310  Biso   1.000  C
  C510     1.0000 0.13900  0.13900  0.47740  Biso   1.000  C
  C511     1.0000 0.74256  0.74256  0.52690  Biso   1.000  C
  C512     1.0000 0.66160  0.66160  0.52260  Biso   1.000  C
  C513     1.0000 0.21566  0.47310  0.21566  Biso   1.000  C
  C514     1.0000 0.13900  0.47740  0.13900  Biso   1.000  C
  C515     1.0000 0.74256  0.52690  0.74256  Biso   1.000  C
  C516     1.0000 0.66160  0.52260  0.66160  Biso   1.000  C
  C517     1.0000 0.25744  0.00000  0.78434  Biso   1.000  C
  C518     1.0000 0.33840  0.00000  0.86100  Biso   1.000  C
  C519     1.0000 0.78434  0.00000  0.25744  Biso   1.000  C
  C520     1.0000 0.86100  0.00000  0.33840  Biso   1.000  C
  C521     1.0000 0.00000  0.25744  0.78434  Biso   1.000  C
  C522     1.0000 1.00000  0.33840  0.86100  Biso   1.000  C
  C523     1.0000 0.00000  0.78434  0.25744  Biso   1.000  C
  C524     1.0000 0.00000  0.86100  0.33840  Biso   1.000  C
  C525     1.0000 0.52690  0.74256  0.74256  Biso   1.000  C
  C526     1.0000 0.52260  0.66160  0.66160  Biso   1.000  C
  C527     1.0000 0.47310  0.21566  0.21566  Biso   1.000  C
  C528     1.0000 0.47740  0.13900  0.13900  Biso   1.000  C
  O1       1.0000 0.61580  0.23650  0.17590  Biso   1.000  O
  O2       1.0000 0.80243  0.23851  0.29564  Biso   1.000  O
  O3       1.0000 0.73468  0.24302  0.30870  Biso   1.000  O
  O4       1.0000 0.74960  0.19631  0.13735  Biso   1.000  O
  O5       1.0000 0.66087  0.17204  0.09779  Biso   1.000  O
  O6       1.0000 0.06060  0.43990  0.82410  Biso   1.000  O
  O7       1.0000 0.94287  0.50679  0.70436  Biso   1.000  O
  O8       1.0000 0.93432  0.42598  0.69130  Biso   1.000  O
  O9       1.0000 0.05896  0.61225  0.86265  Biso   1.000  O
  O10      1.0000 0.07425  0.56308  0.90221  Biso   1.000  O
  O11      1.0000 0.93940  0.76350  0.37930  Biso   1.000  O
  O12      1.0000 0.05713  0.76149  0.56392  Biso   1.000  O
  O13      1.0000 0.06568  0.75698  0.49166  Biso   1.000  O
  O14      1.0000 0.94104  0.80369  0.55329  Biso   1.000  O
  O15      1.0000 0.92575  0.82796  0.48883  Biso   1.000  O
  O16      1.0000 0.38420  0.56010  0.62070  Biso   1.000  O
  O17      1.0000 0.19757  0.49321  0.43608  Biso   1.000  O
  O18      1.0000 0.26532  0.57402  0.50834  Biso   1.000  O
  O19      1.0000 0.25040  0.38775  0.44671  Biso   1.000  O
  O20      1.0000 0.33913  0.43692  0.51117  Biso   1.000  O
  O21      1.0000 0.37930  0.93940  0.76350  Biso   1.000  O
  O22      1.0000 0.56392  0.05713  0.76149  Biso   1.000  O
  O23      1.0000 0.49166  0.06568  0.75698  Biso   1.000  O
  O24      1.0000 0.55329  0.94104  0.80369  Biso   1.000  O
  O25      1.0000 0.48883  0.92575  0.82796  Biso   1.000  O
  O26      1.0000 0.62070  0.38420  0.56010  Biso   1.000  O
  O27      1.0000 0.43608  0.19757  0.49321  Biso   1.000  O
  O28      1.0000 0.50834  0.26532  0.57402  Biso   1.000  O
  O29      1.0000 0.44671  0.25040  0.38775  Biso   1.000  O
  O30      1.0000 0.51117  0.33913  0.43692  Biso   1.000  O
  O31      1.0000 0.17590  0.61580  0.23650  Biso   1.000  O
  O32      1.0000 0.29564  0.80243  0.23851  Biso   1.000  O
  O33      1.0000 0.30870  0.73468  0.24302  Biso   1.000  O
  O34      1.0000 0.13735  0.74960  0.19631  Biso   1.000  O
  O35      1.0000 0.09779  0.66087  0.17204  Biso   1.000  O
  O36      1.0000 0.82410  0.06060  0.43990  Biso   1.000  O
  O37      1.0000 0.70436  0.94287  0.50679  Biso   1.000  O
  O38      1.0000 0.69130  0.93432  0.42598  Biso   1.000  O
  O39      1.0000 0.86265  0.05896  0.61225  Biso   1.000  O
  O40      1.0000 0.90221  0.07425  0.56308  Biso   1.000  O
  O41      1.0000 0.43990  0.82410  0.06060  Biso   1.000  O
  O42      1.0000 0.50679  0.70436  0.94287  Biso   1.000  O
  O43      1.0000 0.42598  0.69130  0.93432  Biso   1.000  O
  O44      1.0000 0.61225  0.86265  0.05896  Biso   1.000  O
  O45      1.0000 0.56308  0.90221  0.07425  Biso   1.000  O
  O46      1.0000 0.23650  0.17590  0.61580  Biso   1.000  O
  O47      1.0000 0.23851  0.29564  0.80243  Biso   1.000  O
  O48      1.0000 0.24302  0.30870  0.73468  Biso   1.000  O
  O49      1.0000 0.19631  0.13735  0.74960  Biso   1.000  O
  O50      1.0000 0.17204  0.09779  0.66087  Biso   1.000  O
  O51      1.0000 0.56010  0.62070  0.38420  Biso   1.000  O
  O52      1.0000 0.49321  0.43608  0.19757  Biso   1.000  O
  O53      1.0000 0.57402  0.50834  0.26532  Biso   1.000  O
  O54      1.0000 0.38775  0.44671  0.25040  Biso   1.000  O
  O55      1.0000 0.43692  0.51117  0.33913  Biso   1.000  O
  O56      1.0000 0.76350  0.37930  0.93940  Biso   1.000  O
  O57      1.0000 0.76149  0.56392  0.05713  Biso   1.000  O
  O58      1.0000 0.75698  0.49166  0.06568  Biso   1.000  O
  O59      1.0000 0.80369  0.55329  0.94104  Biso   1.000  O
  O60      1.0000 0.82796  0.48883  0.92575  Biso   1.000  O
  O61      1.0000 0.76350  0.38420  0.82410  Biso   1.000  O
  O62      1.0000 0.76149  0.19757  0.70436  Biso   1.000  O
  O63      1.0000 0.75698  0.26532  0.69130  Biso   1.000  O
  O64      1.0000 0.80369  0.25040  0.86265  Biso   1.000  O
  O65      1.0000 0.82796  0.33913  0.90221  Biso   1.000  O
  O66      1.0000 0.56010  0.93940  0.17590  Biso   1.000  O
  O67      1.0000 0.49321  0.05713  0.29564  Biso   1.000  O
  O68      1.0000 0.57402  0.06568  0.30870  Biso   1.000  O
  O69      1.0000 0.38775  0.94104  0.13735  Biso   1.000  O
  O70      1.0000 0.43692  0.92575  0.09779  Biso   1.000  O
  O71      1.0000 0.23650  0.06060  0.62070  Biso   1.000  O
  O72      1.0000 0.23851  0.94287  0.43608  Biso   1.000  O
  O73      1.0000 0.24302  0.93432  0.50834  Biso   1.000  O
  O74      1.0000 0.19631  0.05896  0.44671  Biso   1.000  O
  O75      1.0000 0.17204  0.07425  0.51117  Biso   1.000  O
  O76      1.0000 0.43990  0.61580  0.37930  Biso   1.000  O
  O77      1.0000 0.50679  0.80243  0.56392  Biso   1.000  O
  O78      1.0000 0.42598  0.73468  0.49166  Biso   1.000  O
  O79      1.0000 0.61225  0.74960  0.55329  Biso   1.000  O
  O80      1.0000 0.56308  0.66087  0.48883  Biso   1.000  O
  O81      1.0000 0.06060  0.62070  0.23650  Biso   1.000  O
  O82      1.0000 0.94287  0.43608  0.23851  Biso   1.000  O
  O83      1.0000 0.93432  0.50834  0.24302  Biso   1.000  O
  O84      1.0000 0.05896  0.44671  0.19631  Biso   1.000  O
  O85      1.0000 0.07425  0.51117  0.17204  Biso   1.000  O
  O86      1.0000 0.61580  0.37930  0.43990  Biso   1.000  O
  O87      1.0000 0.80243  0.56392  0.50679  Biso   1.000  O
  O88      1.0000 0.73468  0.49166  0.42598  Biso   1.000  O
  O89      1.0000 0.74960  0.55329  0.61225  Biso   1.000  O
  O90      1.0000 0.66087  0.48883  0.56308  Biso   1.000  O
  O91      1.0000 0.38420  0.82410  0.76350  Biso   1.000  O
  O92      1.0000 0.19757  0.70436  0.76149  Biso   1.000  O
  O93      1.0000 0.26532  0.69130  0.75698  Biso   1.000  O
  O94      1.0000 0.25040  0.86265  0.80369  Biso   1.000  O
  O95      1.0000 0.33913  0.90221  0.82796  Biso   1.000  O
  O96      1.0000 0.93940  0.17590  0.56010  Biso   1.000  O
  O97      1.0000 0.05713  0.29564  0.49321  Biso   1.000  O
  O98      1.0000 0.06568  0.30870  0.57402  Biso   1.000  O
  O99      1.0000 0.94104  0.13735  0.38775  Biso   1.000  O
  O100     1.0000 0.92575  0.09779  0.43692  Biso   1.000  O
  O101     1.0000 0.17590  0.56010  0.93940  Biso   1.000  O
  O102     1.0000 0.29564  0.49321  0.05713  Biso   1.000  O
  O103     1.0000 0.30870  0.57402  0.06568  Biso   1.000  O
  O104     1.0000 0.13735  0.38775  0.94104  Biso   1.000  O
  O105     1.0000 0.09779  0.43692  0.92575  Biso   1.000  O
  O106     1.0000 0.82410  0.76350  0.38420  Biso   1.000  O
  O107     1.0000 0.70436  0.76149  0.19757  Biso   1.000  O
  O108     1.0000 0.69130  0.75698  0.26532  Biso   1.000  O
  O109     1.0000 0.86265  0.80369  0.25040  Biso   1.000  O
  O110     1.0000 0.90221  0.82796  0.33913  Biso   1.000  O
  O111     1.0000 0.37930  0.43990  0.61580  Biso   1.000  O
  O112     1.0000 0.56392  0.50679  0.80243  Biso   1.000  O
  O113     1.0000 0.49166  0.42598  0.73468  Biso   1.000  O
  O114     1.0000 0.55329  0.61225  0.74960  Biso   1.000  O
  O115     1.0000 0.48883  0.56308  0.66087  Biso   1.000  O
  O116     1.0000 0.62070  0.23650  0.06060  Biso   1.000  O
  O117     1.0000 0.43608  0.23851  0.94287  Biso   1.000  O
  O118     1.0000 0.50834  0.24302  0.93432  Biso   1.000  O
  O119     1.0000 0.44671  0.19631  0.05896  Biso   1.000  O
  O120     1.0000 0.51117  0.17204  0.07425  Biso   1.000  O
  O121     1.0000 0.38420  0.76350  0.82410  Biso   1.000  O
  O122     1.0000 0.19757  0.76149  0.70436  Biso   1.000  O
  O123     1.0000 0.26532  0.75698  0.69130  Biso   1.000  O
  O124     1.0000 0.25040  0.80369  0.86265  Biso   1.000  O
  O125     1.0000 0.33913  0.82796  0.90221  Biso   1.000  O
  O126     1.0000 0.93940  0.56010  0.17590  Biso   1.000  O
  O127     1.0000 0.05713  0.49321  0.29564  Biso   1.000  O
  O128     1.0000 0.06568  0.57402  0.30870  Biso   1.000  O
  O129     1.0000 0.94104  0.38775  0.13735  Biso   1.000  O
  O130     1.0000 0.92575  0.43692  0.09779  Biso   1.000  O
  O131     1.0000 0.06060  0.23650  0.62070  Biso   1.000  O
  O132     1.0000 0.94287  0.23851  0.43608  Biso   1.000  O
  O133     1.0000 0.93432  0.24302  0.50834  Biso   1.000  O
  O134     1.0000 0.05896  0.19631  0.44671  Biso   1.000  O
  O135     1.0000 0.07425  0.17204  0.51117  Biso   1.000  O
  O136     1.0000 0.61580  0.43990  0.37930  Biso   1.000  O
  O137     1.0000 0.80243  0.50679  0.56392  Biso   1.000  O
  O138     1.0000 0.73468  0.42598  0.49166  Biso   1.000  O
  O139     1.0000 0.74960  0.61225  0.55329  Biso   1.000  O
  O140     1.0000 0.66087  0.56308  0.48883  Biso   1.000  O
  O141     1.0000 0.62070  0.06060  0.23650  Biso   1.000  O
  O142     1.0000 0.43608  0.94287  0.23851  Biso   1.000  O
  O143     1.0000 0.50834  0.93432  0.24302  Biso   1.000  O
  O144     1.0000 0.44671  0.05896  0.19631  Biso   1.000  O
  O145     1.0000 0.51117  0.07425  0.17204  Biso   1.000  O
  O146     1.0000 0.37930  0.61580  0.43990  Biso   1.000  O
  O147     1.0000 0.56392  0.80243  0.50679  Biso   1.000  O
  O148     1.0000 0.49166  0.73468  0.42598  Biso   1.000  O
  O149     1.0000 0.55329  0.74960  0.61225  Biso   1.000  O
  O150     1.0000 0.48883  0.66087  0.56308  Biso   1.000  O
  O151     1.0000 0.82410  0.38420  0.76350  Biso   1.000  O
  O152     1.0000 0.70436  0.19757  0.76149  Biso   1.000  O
  O153     1.0000 0.69130  0.26532  0.75698  Biso   1.000  O
  O154     1.0000 0.86265  0.25040  0.80369  Biso   1.000  O
  O155     1.0000 0.90221  0.33913  0.82796  Biso   1.000  O
  O156     1.0000 0.17590  0.93940  0.56010  Biso   1.000  O
  O157     1.0000 0.29564  0.05713  0.49321  Biso   1.000  O
  O158     1.0000 0.30870  0.06568  0.57402  Biso   1.000  O
  O159     1.0000 0.13735  0.94104  0.38775  Biso   1.000  O
  O160     1.0000 0.09779  0.92575  0.43692  Biso   1.000  O
  O161     1.0000 0.56010  0.17590  0.93940  Biso   1.000  O
  O162     1.0000 0.49321  0.29564  0.05713  Biso   1.000  O
  O163     1.0000 0.57402  0.30870  0.06568  Biso   1.000  O
  O164     1.0000 0.38775  0.13735  0.94104  Biso   1.000  O
  O165     1.0000 0.43692  0.09779  0.92575  Biso   1.000  O
  O166     1.0000 0.76350  0.82410  0.38420  Biso   1.000  O
  O167     1.0000 0.76149  0.70436  0.19757  Biso   1.000  O
  O168     1.0000 0.75698  0.69130  0.26532  Biso   1.000  O
  O169     1.0000 0.80369  0.86265  0.25040  Biso   1.000  O
  O170     1.0000 0.82796  0.90221  0.33913  Biso   1.000  O
  O171     1.0000 0.43990  0.37930  0.61580  Biso   1.000  O
  O172     1.0000 0.50679  0.56392  0.80243  Biso   1.000  O
  O173     1.0000 0.42598  0.49166  0.73468  Biso   1.000  O
  O174     1.0000 0.61225  0.55329  0.74960  Biso   1.000  O
  O175     1.0000 0.56308  0.48883  0.66087  Biso   1.000  O
  O176     1.0000 0.23650  0.62070  0.06060  Biso   1.000  O
  O177     1.0000 0.23851  0.43608  0.94287  Biso   1.000  O
  O178     1.0000 0.24302  0.50834  0.93432  Biso   1.000  O
  O179     1.0000 0.19631  0.44671  0.05896  Biso   1.000  O
  O180     1.0000 0.17204  0.51117  0.07425  Biso   1.000  O
  O181     1.0000 0.23650  0.61580  0.17590  Biso   1.000  O
  O182     1.0000 0.23851  0.80243  0.29564  Biso   1.000  O
  O183     1.0000 0.24302  0.73468  0.30870  Biso   1.000  O
  O184     1.0000 0.19631  0.74960  0.13735  Biso   1.000  O
  O185     1.0000 0.17204  0.66087  0.09779  Biso   1.000  O
  O186     1.0000 0.43990  0.06060  0.82410  Biso   1.000  O
  O187     1.0000 0.50679  0.94287  0.70436  Biso   1.000  O
  O188     1.0000 0.42598  0.93432  0.69130  Biso   1.000  O
  O189     1.0000 0.61225  0.05896  0.86265  Biso   1.000  O
  O190     1.0000 0.56308  0.07425  0.90221  Biso   1.000  O
  O191     1.0000 0.76350  0.93940  0.37930  Biso   1.000  O
  O192     1.0000 0.76149  0.05713  0.56392  Biso   1.000  O
  O193     1.0000 0.75698  0.06568  0.49166  Biso   1.000  O
  O194     1.0000 0.80369  0.94104  0.55329  Biso   1.000  O
  O195     1.0000 0.82796  0.92575  0.48883  Biso   1.000  O
  O196     1.0000 0.56010  0.38420  0.62070  Biso   1.000  O
  O197     1.0000 0.49321  0.19757  0.43608  Biso   1.000  O
  O198     1.0000 0.57402  0.26532  0.50834  Biso   1.000  O
  O199     1.0000 0.38775  0.25040  0.44671  Biso   1.000  O
  O200     1.0000 0.43692  0.33913  0.51117  Biso   1.000  O
  O201     1.0000 0.93940  0.37930  0.76350  Biso   1.000  O
  O202     1.0000 0.05713  0.56392  0.76149  Biso   1.000  O
  O203     1.0000 0.06568  0.49166  0.75698  Biso   1.000  O
  O204     1.0000 0.94104  0.55329  0.80369  Biso   1.000  O
  O205     1.0000 0.92575  0.48883  0.82796  Biso   1.000  O
  O206     1.0000 0.38420  0.62070  0.56010  Biso   1.000  O
  O207     1.0000 0.19757  0.43608  0.49321  Biso   1.000  O
  O208     1.0000 0.26532  0.50834  0.57402  Biso   1.000  O
  O209     1.0000 0.25040  0.44671  0.38775  Biso   1.000  O
  O210     1.0000 0.33913  0.51117  0.43692  Biso   1.000  O
  O211     1.0000 0.61580  0.17590  0.23650  Biso   1.000  O
  O212     1.0000 0.80243  0.29564  0.23851  Biso   1.000  O
  O213     1.0000 0.73468  0.30870  0.24302  Biso   1.000  O
  O214     1.0000 0.74960  0.13735  0.19631  Biso   1.000  O
  O215     1.0000 0.66087  0.09779  0.17204  Biso   1.000  O
  O216     1.0000 0.06060  0.82410  0.43990  Biso   1.000  O
  O217     1.0000 0.94287  0.70436  0.50679  Biso   1.000  O
  O218     1.0000 0.93432  0.69130  0.42598  Biso   1.000  O
  O219     1.0000 0.05896  0.86265  0.61225  Biso   1.000  O
  O220     1.0000 0.07425  0.90221  0.56308  Biso   1.000  O
  O221     1.0000 0.82410  0.43990  0.06060  Biso   1.000  O
  O222     1.0000 0.70436  0.50679  0.94287  Biso   1.000  O
  O223     1.0000 0.69130  0.42598  0.93432  Biso   1.000  O
  O224     1.0000 0.86265  0.61225  0.05896  Biso   1.000  O
  O225     1.0000 0.90221  0.56308  0.07425  Biso   1.000  O
  O226     1.0000 0.17590  0.23650  0.61580  Biso   1.000  O
  O227     1.0000 0.29564  0.23851  0.80243  Biso   1.000  O
  O228     1.0000 0.30870  0.24302  0.73468  Biso   1.000  O
  O229     1.0000 0.13735  0.19631  0.74960  Biso   1.000  O
  O230     1.0000 0.09779  0.17204  0.66087  Biso   1.000  O
  O231     1.0000 0.62070  0.56010  0.38420  Biso   1.000  O
  O232     1.0000 0.43608  0.49321  0.19757  Biso   1.000  O
  O233     1.0000 0.50834  0.57402  0.26532  Biso   1.000  O
  O234     1.0000 0.44671  0.38775  0.25040  Biso   1.000  O
  O235     1.0000 0.51117  0.43692  0.33913  Biso   1.000  O
  O236     1.0000 0.37930  0.76350  0.93940  Biso   1.000  O
  O237     1.0000 0.56392  0.76149  0.05713  Biso   1.000  O
  O238     1.0000 0.49166  0.75698  0.06568  Biso   1.000  O
  O239     1.0000 0.55329  0.80369  0.94104  Biso   1.000  O
  O240     1.0000 0.48883  0.82796  0.92575  Biso   1.000  O
  O241     1.0000 0.84170  0.22485  0.22485  Biso   1.000  O
  O242     1.0000 0.68900  0.19280  0.19280  Biso   1.000  O
  O243     1.0000 0.65702  0.28931  0.28931  Biso   1.000  O
  O244     1.0000 0.00000  0.61685  0.77515  Biso   1.000  O
  O245     1.0000 0.00000  0.49620  0.80720  Biso   1.000  O
  O246     1.0000 0.00000  0.36771  0.71069  Biso   1.000  O
  O247     1.0000 1.00000  0.77515  0.61685  Biso   1.000  O
  O248     1.0000 0.00000  0.80720  0.49620  Biso   1.000  O
  O249     1.0000 0.00000  0.71069  0.36771  Biso   1.000  O
  O250     1.0000 0.15830  0.38315  0.38315  Biso   1.000  O
  O251     1.0000 0.31100  0.50380  0.50380  Biso   1.000  O
  O252     1.0000 0.34298  0.63229  0.63229  Biso   1.000  O
  O253     1.0000 0.61685  0.00000  0.77515  Biso   1.000  O
  O254     1.0000 0.49620  0.00000  0.80720  Biso   1.000  O
  O255     1.0000 0.36771  0.00000  0.71069  Biso   1.000  O
  O256     1.0000 0.38315  0.15830  0.38315  Biso   1.000  O
  O257     1.0000 0.50380  0.31100  0.50380  Biso   1.000  O
  O258     1.0000 0.63229  0.34298  0.63229  Biso   1.000  O
  O259     1.0000 0.22485  0.84170  0.22485  Biso   1.000  O
  O260     1.0000 0.19280  0.68900  0.19280  Biso   1.000  O
  O261     1.0000 0.28931  0.65702  0.28931  Biso   1.000  O
  O262     1.0000 0.77515  1.00000  0.61685  Biso   1.000  O
  O263     1.0000 0.80720  0.00000  0.49620  Biso   1.000  O
  O264     1.0000 0.71069  0.00000  0.36771  Biso   1.000  O
  O265     1.0000 0.61685  0.77515  1.00000  Biso   1.000  O
  O266     1.0000 0.49620  0.80720  0.00000  Biso   1.000  O
  O267     1.0000 0.36771  0.71069  0.00000  Biso   1.000  O
  O268     1.0000 0.22485  0.22485  0.84170  Biso   1.000  O
  O269     1.0000 0.19280  0.19280  0.68900  Biso   1.000  O
  O270     1.0000 0.28931  0.28931  0.65702  Biso   1.000  O
  O271     1.0000 0.38315  0.38315  0.15830  Biso   1.000  O
  O272     1.0000 0.50380  0.50380  0.31100  Biso   1.000  O
  O273     1.0000 0.63229  0.63229  0.34298  Biso   1.000  O
  O274     1.0000 0.77515  0.61685  0.00000  Biso   1.000  O
  O275     1.0000 0.80720  0.49620  0.00000  Biso   1.000  O
  O276     1.0000 0.71069  0.36771  0.00000  Biso   1.000  O
  O277     1.0000 0.77515  0.15830  0.77515  Biso   1.000  O
  O278     1.0000 0.80720  0.31100  0.80720  Biso   1.000  O
  O279     1.0000 0.71069  0.34298  0.71069  Biso   1.000  O
  O280     1.0000 0.38315  1.00000  0.22485  Biso   1.000  O
  O281     1.0000 0.50380  0.00000  0.19280  Biso   1.000  O
  O282     1.0000 0.63229  0.00000  0.28931  Biso   1.000  O
  O283     1.0000 0.22485  0.00000  0.38315  Biso   1.000  O
  O284     1.0000 0.19280  0.00000  0.50380  Biso   1.000  O
  O285     1.0000 0.28931  0.00000  0.63229  Biso   1.000  O
  O286     1.0000 0.61685  0.84170  0.61685  Biso   1.000  O
  O287     1.0000 0.49620  0.68900  0.49620  Biso   1.000  O
  O288     1.0000 0.36771  0.65702  0.36771  Biso   1.000  O
  O289     1.0000 0.00000  0.38315  0.22485  Biso   1.000  O
  O290     1.0000 0.00000  0.50380  0.19280  Biso   1.000  O
  O291     1.0000 0.00000  0.63229  0.28931  Biso   1.000  O
  O292     1.0000 0.84170  0.61685  0.61685  Biso   1.000  O
  O293     1.0000 0.68900  0.49620  0.49620  Biso   1.000  O
  O294     1.0000 0.65702  0.36771  0.36771  Biso   1.000  O
  O295     1.0000 0.15830  0.77515  0.77515  Biso   1.000  O
  O296     1.0000 0.31100  0.80720  0.80720  Biso   1.000  O
  O297     1.0000 0.34298  0.71069  0.71069  Biso   1.000  O
  O298     1.0000 0.00000  0.22485  0.38315  Biso   1.000  O
  O299     1.0000 0.00000  0.19280  0.50380  Biso   1.000  O
  O300     1.0000 1.00000  0.28931  0.63229  Biso   1.000  O
  O301     1.0000 0.22485  0.38315  0.00000  Biso   1.000  O
  O302     1.0000 0.19280  0.50380  1.00000  Biso   1.000  O
  O303     1.0000 0.28931  0.63229  0.00000  Biso   1.000  O
  O304     1.0000 0.77515  0.77515  0.15830  Biso   1.000  O
  O305     1.0000 0.80720  0.80720  0.31100  Biso   1.000  O
  O306     1.0000 0.71069  0.71069  0.34298  Biso   1.000  O
  O307     1.0000 0.61685  0.61685  0.84170  Biso   1.000  O
  O308     1.0000 0.49620  0.49620  0.68900  Biso   1.000  O
  O309     1.0000 0.36771  0.36771  0.65702  Biso   1.000  O
  O310     1.0000 0.38315  0.22485  1.00000  Biso   1.000  O
  O311     1.0000 0.50380  0.19280  0.00000  Biso   1.000  O
  O312     1.0000 0.63229  0.28931  0.00000  Biso   1.000  O
