data_image0
_cell_length_a       24.777
_cell_length_b       24.777
_cell_length_c       26.489
_cell_angle_alpha    90
_cell_angle_beta     90
_cell_angle_gamma    120

_symmetry_space_group_name_H-M    "P 1"
_symmetry_int_tables_number       1

loop_
  _symmetry_equiv_pos_as_xyz
  'x, y, z'

loop_
  _atom_site_label
  _atom_site_occupancy
  _atom_site_fract_x
  _atom_site_fract_y
  _atom_site_fract_z
  _atom_site_thermal_displace_type
  _atom_site_B_iso_or_equiv
  _atom_site_type_symbol
  Cu1      1.0000 0.13271  0.64661  0.02762  Biso   1.000  Cu
  N1       1.0000 0.03280  0.52660  0.07058  Biso   1.000  N
  N2       1.0000 0.08450  0.58280  0.08360  Biso   1.000  N
  N3       1.0000 0.04960  0.52280  0.15060  Biso   1.000  N
  N4       1.0000 0.08350  0.47000  0.26860  Biso   1.000  N
  N5       1.0000 0.13850  0.57730  0.99269  Biso   1.000  N
  N6       1.0000 0.08680  0.52170  0.97802  Biso   1.000  N
  N7       1.0000 0.16880  0.51650  0.95920  Biso   1.000  N
  N8       1.0000 0.29360  0.47970  0.97140  Biso   1.000  N
  C1       1.0000 0.01260  0.49200  0.11060  Biso   1.000  C
  H1       1.0000 0.97810  0.45220  0.11180  Biso   1.000  H
  C2       1.0000 0.09460  0.57900  0.13200  Biso   1.000  C
  H2       1.0000 0.12740  0.60980  0.15060  Biso   1.000  H
  C3       1.0000 0.04250  0.49780  0.20030  Biso   1.000  C
  C4       1.0000 0.98660  0.47730  0.22400  Biso   1.000  C
  H3       1.0000 0.95530  0.48240  0.20950  Biso   1.000  H
  C5       1.0000 0.97830  0.44830  0.27140  Biso   1.000  C
  H4       1.0000 0.94040  0.43120  0.28810  Biso   1.000  H
  C6       1.0000 0.09000  0.49580  0.22320  Biso   1.000  C
  H5       1.0000 0.12830  0.51290  0.20690  Biso   1.000  H
  C7       1.0000 0.02810  0.44610  0.29220  Biso   1.000  C
  H6       1.0000 0.02320  0.42750  0.32360  Biso   1.000  H
  C8       1.0000 0.18680  0.57290  0.98090  Biso   1.000  C
  H7       1.0000 0.22790  0.60370  0.98640  Biso   1.000  H
  C9       1.0000 0.10620  0.48650  0.95860  Biso   1.000  C
  H8       1.0000 0.08060  0.44640  0.94610  Biso   1.000  H
  C10      1.0000 0.20930  0.49390  0.94550  Biso   1.000  C
  C11      1.0000 0.25230  0.49850  0.98050  Biso   1.000  C
  H9       1.0000 0.25280  0.51540  0.01200  Biso   1.000  H
  C12      1.0000 0.29030  0.45430  0.92620  Biso   1.000  C
  H10      1.0000 0.31890  0.44160  0.91850  Biso   1.000  H
  C13      1.0000 0.24640  0.44610  0.89070  Biso   1.000  C
  H11      1.0000 0.24520  0.42710  0.86020  Biso   1.000  H
  C14      1.0000 0.20460  0.46550  0.89960  Biso   1.000  C
  H12      1.0000 0.17450  0.45990  0.87590  Biso   1.000  H
  Cl1      1.0000 0.02836  0.61478  0.98257  Biso   1.000  Cl
  Cu2      1.0000 0.79938  0.97994  0.36095  Biso   1.000  Cu
  N9       1.0000 0.69947  0.85993  0.40391  Biso   1.000  N
  N10      1.0000 0.75117  0.91613  0.41693  Biso   1.000  N
  N11      1.0000 0.71627  0.85613  0.48393  Biso   1.000  N
  N12      1.0000 0.75017  0.80333  0.60193  Biso   1.000  N
  N13      1.0000 0.80517  0.91063  0.32602  Biso   1.000  N
  N14      1.0000 0.75347  0.85503  0.31135  Biso   1.000  N
  N15      1.0000 0.83547  0.84983  0.29253  Biso   1.000  N
  N16      1.0000 0.96027  0.81303  0.30473  Biso   1.000  N
  C15      1.0000 0.67927  0.82533  0.44393  Biso   1.000  C
  H13      1.0000 0.64477  0.78553  0.44513  Biso   1.000  H
  C16      1.0000 0.76127  0.91233  0.46533  Biso   1.000  C
  H14      1.0000 0.79407  0.94313  0.48393  Biso   1.000  H
  C17      1.0000 0.70917  0.83113  0.53363  Biso   1.000  C
  C18      1.0000 0.65327  0.81063  0.55733  Biso   1.000  C
  H15      1.0000 0.62197  0.81573  0.54283  Biso   1.000  H
  C19      1.0000 0.64497  0.78163  0.60473  Biso   1.000  C
  H16      1.0000 0.60707  0.76453  0.62143  Biso   1.000  H
  C20      1.0000 0.75667  0.82913  0.55653  Biso   1.000  C
  H17      1.0000 0.79497  0.84623  0.54023  Biso   1.000  H
  C21      1.0000 0.69477  0.77943  0.62553  Biso   1.000  C
  H18      1.0000 0.68987  0.76083  0.65693  Biso   1.000  H
  C22      1.0000 0.85347  0.90623  0.31423  Biso   1.000  C
  H19      1.0000 0.89457  0.93703  0.31973  Biso   1.000  H
  C23      1.0000 0.77287  0.81983  0.29193  Biso   1.000  C
  H20      1.0000 0.74727  0.77973  0.27943  Biso   1.000  H
  C24      1.0000 0.87597  0.82723  0.27883  Biso   1.000  C
  C25      1.0000 0.91897  0.83183  0.31383  Biso   1.000  C
  H21      1.0000 0.91947  0.84873  0.34533  Biso   1.000  H
  C26      1.0000 0.95697  0.78763  0.25953  Biso   1.000  C
  H22      1.0000 0.98557  0.77493  0.25183  Biso   1.000  H
  C27      1.0000 0.91307  0.77943  0.22403  Biso   1.000  C
  H23      1.0000 0.91187  0.76043  0.19353  Biso   1.000  H
  C28      1.0000 0.87127  0.79883  0.23293  Biso   1.000  C
  H24      1.0000 0.84117  0.79323  0.20923  Biso   1.000  H
  Cl2      1.0000 0.69503  0.94811  0.31590  Biso   1.000  Cl
  Cu3      1.0000 0.46604  0.31328  0.69429  Biso   1.000  Cu
  N17      1.0000 0.36613  0.19327  0.73725  Biso   1.000  N
  N18      1.0000 0.41783  0.24947  0.75027  Biso   1.000  N
  N19      1.0000 0.38293  0.18947  0.81727  Biso   1.000  N
  N20      1.0000 0.41683  0.13667  0.93527  Biso   1.000  N
  N21      1.0000 0.47183  0.24397  0.65936  Biso   1.000  N
  N22      1.0000 0.42013  0.18837  0.64469  Biso   1.000  N
  N23      1.0000 0.50213  0.18317  0.62587  Biso   1.000  N
  N24      1.0000 0.62693  0.14637  0.63807  Biso   1.000  N
  C29      1.0000 0.34593  0.15867  0.77727  Biso   1.000  C
  H25      1.0000 0.31143  0.11887  0.77847  Biso   1.000  H
  C30      1.0000 0.42793  0.24567  0.79867  Biso   1.000  C
  H26      1.0000 0.46073  0.27647  0.81727  Biso   1.000  H
  C31      1.0000 0.37583  0.16447  0.86697  Biso   1.000  C
  C32      1.0000 0.31993  0.14397  0.89067  Biso   1.000  C
  H27      1.0000 0.28863  0.14907  0.87617  Biso   1.000  H
  C33      1.0000 0.31163  0.11497  0.93807  Biso   1.000  C
  H28      1.0000 0.27373  0.09787  0.95477  Biso   1.000  H
  C34      1.0000 0.42333  0.16247  0.88987  Biso   1.000  C
  H29      1.0000 0.46163  0.17957  0.87357  Biso   1.000  H
  C35      1.0000 0.36143  0.11277  0.95887  Biso   1.000  C
  H30      1.0000 0.35653  0.09417  0.99027  Biso   1.000  H
  C36      1.0000 0.52013  0.23957  0.64757  Biso   1.000  C
  H31      1.0000 0.56123  0.27037  0.65307  Biso   1.000  H
  C37      1.0000 0.43953  0.15317  0.62527  Biso   1.000  C
  H32      1.0000 0.41393  0.11307  0.61277  Biso   1.000  H
  C38      1.0000 0.54263  0.16057  0.61217  Biso   1.000  C
  C39      1.0000 0.58563  0.16517  0.64717  Biso   1.000  C
  H33      1.0000 0.58613  0.18207  0.67867  Biso   1.000  H
  C40      1.0000 0.62363  0.12097  0.59287  Biso   1.000  C
  H34      1.0000 0.65223  0.10827  0.58517  Biso   1.000  H
  C41      1.0000 0.57973  0.11277  0.55737  Biso   1.000  C
  H35      1.0000 0.57853  0.09377  0.52687  Biso   1.000  H
  C42      1.0000 0.53793  0.13217  0.56627  Biso   1.000  C
  H36      1.0000 0.50783  0.12657  0.54257  Biso   1.000  H
  Cl3      1.0000 0.36169  0.28145  0.64924  Biso   1.000  Cl
  Cu4      1.0000 0.35339  0.48610  0.02762  Biso   1.000  Cu
  N25      1.0000 0.47340  0.50620  0.07058  Biso   1.000  N
  N26      1.0000 0.41720  0.50170  0.08360  Biso   1.000  N
  N27      1.0000 0.47720  0.52680  0.15060  Biso   1.000  N
  N28      1.0000 0.53000  0.61350  0.26860  Biso   1.000  N
  N29      1.0000 0.42270  0.56120  0.99269  Biso   1.000  N
  N30      1.0000 0.47830  0.56510  0.97802  Biso   1.000  N
  N31      1.0000 0.48350  0.65230  0.95920  Biso   1.000  N
  N32      1.0000 0.52030  0.81390  0.97140  Biso   1.000  N
  C43      1.0000 0.50800  0.52060  0.11060  Biso   1.000  C
  H37      1.0000 0.54780  0.52590  0.11180  Biso   1.000  H
  C44      1.0000 0.42100  0.51560  0.13200  Biso   1.000  C
  H38      1.0000 0.39020  0.51760  0.15060  Biso   1.000  H
  C45      1.0000 0.50220  0.54470  0.20030  Biso   1.000  C
  C46      1.0000 0.52270  0.50930  0.22400  Biso   1.000  C
  H39      1.0000 0.51760  0.47290  0.20950  Biso   1.000  H
  C47      1.0000 0.55170  0.53000  0.27140  Biso   1.000  C
  H40      1.0000 0.56880  0.50920  0.28810  Biso   1.000  H
  C48      1.0000 0.50420  0.59420  0.22320  Biso   1.000  C
  H41      1.0000 0.48710  0.61540  0.20690  Biso   1.000  H
  C49      1.0000 0.55390  0.58200  0.29220  Biso   1.000  C
  H42      1.0000 0.57250  0.59570  0.32360  Biso   1.000  H
  C50      1.0000 0.42710  0.61390  0.98090  Biso   1.000  C
  H43      1.0000 0.39630  0.62420  0.98640  Biso   1.000  H
  C51      1.0000 0.51350  0.61970  0.95860  Biso   1.000  C
  H44      1.0000 0.55360  0.63420  0.94610  Biso   1.000  H
  C52      1.0000 0.50610  0.71540  0.94550  Biso   1.000  C
  C53      1.0000 0.50150  0.75380  0.98050  Biso   1.000  C
  H45      1.0000 0.48460  0.73740  0.01200  Biso   1.000  H
  C54      1.0000 0.54570  0.83600  0.92620  Biso   1.000  C
  H46      1.0000 0.55840  0.87730  0.91850  Biso   1.000  H
  C55      1.0000 0.55390  0.80030  0.89070  Biso   1.000  C
  H47      1.0000 0.57290  0.81810  0.86020  Biso   1.000  H
  C56      1.0000 0.53450  0.73910  0.89960  Biso   1.000  C
  H48      1.0000 0.54010  0.71460  0.87590  Biso   1.000  H
  Cl4      1.0000 0.38522  0.41358  0.98257  Biso   1.000  Cl
  Cu5      1.0000 0.02006  0.81943  0.36095  Biso   1.000  Cu
  N33      1.0000 0.14007  0.83953  0.40391  Biso   1.000  N
  N34      1.0000 0.08387  0.83503  0.41693  Biso   1.000  N
  N35      1.0000 0.14387  0.86013  0.48393  Biso   1.000  N
  N36      1.0000 0.19667  0.94683  0.60193  Biso   1.000  N
  N37      1.0000 0.08937  0.89453  0.32602  Biso   1.000  N
  N38      1.0000 0.14497  0.89843  0.31135  Biso   1.000  N
  N39      1.0000 0.15017  0.98563  0.29253  Biso   1.000  N
  N40      1.0000 0.18697  0.14723  0.30473  Biso   1.000  N
  C57      1.0000 0.17467  0.85393  0.44393  Biso   1.000  C
  H49      1.0000 0.21447  0.85923  0.44513  Biso   1.000  H
  C58      1.0000 0.08767  0.84893  0.46533  Biso   1.000  C
  H50      1.0000 0.05687  0.85093  0.48393  Biso   1.000  H
  C59      1.0000 0.16887  0.87803  0.53363  Biso   1.000  C
  C60      1.0000 0.18937  0.84263  0.55733  Biso   1.000  C
  H51      1.0000 0.18427  0.80623  0.54283  Biso   1.000  H
  C61      1.0000 0.21837  0.86333  0.60473  Biso   1.000  C
  H52      1.0000 0.23547  0.84253  0.62143  Biso   1.000  H
  C62      1.0000 0.17087  0.92753  0.55653  Biso   1.000  C
  H53      1.0000 0.15377  0.94873  0.54023  Biso   1.000  H
  C63      1.0000 0.22057  0.91533  0.62553  Biso   1.000  C
  H54      1.0000 0.23917  0.92903  0.65693  Biso   1.000  H
  C64      1.0000 0.09377  0.94723  0.31423  Biso   1.000  C
  H55      1.0000 0.06297  0.95753  0.31973  Biso   1.000  H
  C65      1.0000 0.18017  0.95303  0.29193  Biso   1.000  C
  H56      1.0000 0.22027  0.96753  0.27943  Biso   1.000  H
  C66      1.0000 0.17277  0.04873  0.27883  Biso   1.000  C
  C67      1.0000 0.16817  0.08713  0.31383  Biso   1.000  C
  H57      1.0000 0.15127  0.07073  0.34533  Biso   1.000  H
  C68      1.0000 0.21237  0.16933  0.25953  Biso   1.000  C
  H58      1.0000 0.22507  0.21063  0.25183  Biso   1.000  H
  C69      1.0000 0.22057  0.13363  0.22403  Biso   1.000  C
  H59      1.0000 0.23957  0.15143  0.19353  Biso   1.000  H
  C70      1.0000 0.20117  0.07243  0.23293  Biso   1.000  C
  H60      1.0000 0.20677  0.04793  0.20923  Biso   1.000  H
  Cl5      1.0000 0.05189  0.74691  0.31590  Biso   1.000  Cl
  Cu6      1.0000 0.68672  0.15277  0.69429  Biso   1.000  Cu
  N41      1.0000 0.80673  0.17287  0.73725  Biso   1.000  N
  N42      1.0000 0.75053  0.16837  0.75027  Biso   1.000  N
  N43      1.0000 0.81053  0.19347  0.81727  Biso   1.000  N
  N44      1.0000 0.86333  0.28017  0.93527  Biso   1.000  N
  N45      1.0000 0.75603  0.22787  0.65936  Biso   1.000  N
  N46      1.0000 0.81163  0.23177  0.64469  Biso   1.000  N
  N47      1.0000 0.81683  0.31897  0.62587  Biso   1.000  N
  N48      1.0000 0.85363  0.48057  0.63807  Biso   1.000  N
  C71      1.0000 0.84133  0.18727  0.77727  Biso   1.000  C
  H61      1.0000 0.88113  0.19257  0.77847  Biso   1.000  H
  C72      1.0000 0.75433  0.18227  0.79867  Biso   1.000  C
  H62      1.0000 0.72353  0.18427  0.81727  Biso   1.000  H
  C73      1.0000 0.83553  0.21137  0.86697  Biso   1.000  C
  C74      1.0000 0.85603  0.17597  0.89067  Biso   1.000  C
  H63      1.0000 0.85093  0.13957  0.87617  Biso   1.000  H
  C75      1.0000 0.88503  0.19667  0.93807  Biso   1.000  C
  H64      1.0000 0.90213  0.17587  0.95477  Biso   1.000  H
  C76      1.0000 0.83753  0.26087  0.88987  Biso   1.000  C
  H65      1.0000 0.82043  0.28207  0.87357  Biso   1.000  H
  C77      1.0000 0.88723  0.24867  0.95887  Biso   1.000  C
  H66      1.0000 0.90583  0.26237  0.99027  Biso   1.000  H
  C78      1.0000 0.76043  0.28057  0.64757  Biso   1.000  C
  H67      1.0000 0.72963  0.29087  0.65307  Biso   1.000  H
  C79      1.0000 0.84683  0.28637  0.62527  Biso   1.000  C
  H68      1.0000 0.88693  0.30087  0.61277  Biso   1.000  H
  C80      1.0000 0.83943  0.38207  0.61217  Biso   1.000  C
  C81      1.0000 0.83483  0.42047  0.64717  Biso   1.000  C
  H69      1.0000 0.81793  0.40407  0.67867  Biso   1.000  H
  C82      1.0000 0.87903  0.50267  0.59287  Biso   1.000  C
  H70      1.0000 0.89173  0.54397  0.58517  Biso   1.000  H
  C83      1.0000 0.88723  0.46697  0.55737  Biso   1.000  C
  H71      1.0000 0.90623  0.48477  0.52687  Biso   1.000  H
  C84      1.0000 0.86783  0.40577  0.56627  Biso   1.000  C
  H72      1.0000 0.87343  0.38127  0.54257  Biso   1.000  H
  Cl6      1.0000 0.71855  0.08025  0.64924  Biso   1.000  Cl
  Cu7      1.0000 0.51390  0.86729  0.02762  Biso   1.000  Cu
  N49      1.0000 0.49380  0.96720  0.07058  Biso   1.000  N
  N50      1.0000 0.49830  0.91550  0.08360  Biso   1.000  N
  N51      1.0000 0.47320  0.95040  0.15060  Biso   1.000  N
  N52      1.0000 0.38650  0.91650  0.26860  Biso   1.000  N
  N53      1.0000 0.43880  0.86150  0.99269  Biso   1.000  N
  N54      1.0000 0.43490  0.91320  0.97802  Biso   1.000  N
  N55      1.0000 0.34770  0.83120  0.95920  Biso   1.000  N
  N56      1.0000 0.18610  0.70640  0.97140  Biso   1.000  N
  C85      1.0000 0.47940  0.98740  0.11060  Biso   1.000  C
  H73      1.0000 0.47410  0.02190  0.11180  Biso   1.000  H
  C86      1.0000 0.48440  0.90540  0.13200  Biso   1.000  C
  H74      1.0000 0.48240  0.87260  0.15060  Biso   1.000  H
  C87      1.0000 0.45530  0.95750  0.20030  Biso   1.000  C
  C88      1.0000 0.49070  0.01340  0.22400  Biso   1.000  C
  H75      1.0000 0.52710  0.04470  0.20950  Biso   1.000  H
  C89      1.0000 0.47000  0.02170  0.27140  Biso   1.000  C
  H76      1.0000 0.49080  0.05960  0.28810  Biso   1.000  H
  C90      1.0000 0.40580  0.91000  0.22320  Biso   1.000  C
  H77      1.0000 0.38460  0.87170  0.20690  Biso   1.000  H
  C91      1.0000 0.41800  0.97190  0.29220  Biso   1.000  C
  H78      1.0000 0.40430  0.97680  0.32360  Biso   1.000  H
  C92      1.0000 0.38610  0.81320  0.98090  Biso   1.000  C
  H79      1.0000 0.37580  0.77210  0.98640  Biso   1.000  H
  C93      1.0000 0.38030  0.89380  0.95860  Biso   1.000  C
  H80      1.0000 0.36580  0.91940  0.94610  Biso   1.000  H
  C94      1.0000 0.28460  0.79070  0.94550  Biso   1.000  C
  C95      1.0000 0.24620  0.74770  0.98050  Biso   1.000  C
  H81      1.0000 0.26260  0.74720  0.01200  Biso   1.000  H
  C96      1.0000 0.16400  0.70970  0.92620  Biso   1.000  C
  H82      1.0000 0.12270  0.68110  0.91850  Biso   1.000  H
  C97      1.0000 0.19970  0.75360  0.89070  Biso   1.000  C
  H83      1.0000 0.18190  0.75480  0.86020  Biso   1.000  H
  C98      1.0000 0.26090  0.79540  0.89960  Biso   1.000  C
  H84      1.0000 0.28540  0.82550  0.87590  Biso   1.000  H
  Cl7      1.0000 0.58642  0.97164  0.98257  Biso   1.000  Cl
  Cu8      1.0000 0.18057  0.20062  0.36095  Biso   1.000  Cu
  N57      1.0000 0.16047  0.30053  0.40391  Biso   1.000  N
  N58      1.0000 0.16497  0.24883  0.41693  Biso   1.000  N
  N59      1.0000 0.13987  0.28373  0.48393  Biso   1.000  N
  N60      1.0000 0.05317  0.24983  0.60193  Biso   1.000  N
  N61      1.0000 0.10547  0.19483  0.32602  Biso   1.000  N
  N62      1.0000 0.10157  0.24653  0.31135  Biso   1.000  N
  N63      1.0000 0.01437  0.16453  0.29253  Biso   1.000  N
  N64      1.0000 0.85277  0.03973  0.30473  Biso   1.000  N
  C99      1.0000 0.14607  0.32073  0.44393  Biso   1.000  C
  H85      1.0000 0.14077  0.35523  0.44513  Biso   1.000  H
  C100     1.0000 0.15107  0.23873  0.46533  Biso   1.000  C
  H86      1.0000 0.14907  0.20593  0.48393  Biso   1.000  H
  C101     1.0000 0.12197  0.29083  0.53363  Biso   1.000  C
  C102     1.0000 0.15737  0.34673  0.55733  Biso   1.000  C
  H87      1.0000 0.19377  0.37803  0.54283  Biso   1.000  H
  C103     1.0000 0.13667  0.35503  0.60473  Biso   1.000  C
  H88      1.0000 0.15747  0.39293  0.62143  Biso   1.000  H
  C104     1.0000 0.07247  0.24333  0.55653  Biso   1.000  C
  H89      1.0000 0.05127  0.20503  0.54023  Biso   1.000  H
  C105     1.0000 0.08467  0.30523  0.62553  Biso   1.000  C
  H90      1.0000 0.07097  0.31013  0.65693  Biso   1.000  H
  C106     1.0000 0.05277  0.14653  0.31423  Biso   1.000  C
  H91      1.0000 0.04247  0.10543  0.31973  Biso   1.000  H
  C107     1.0000 0.04697  0.22713  0.29193  Biso   1.000  C
  H92      1.0000 0.03247  0.25273  0.27943  Biso   1.000  H
  C108     1.0000 0.95127  0.12403  0.27883  Biso   1.000  C
  C109     1.0000 0.91287  0.08103  0.31383  Biso   1.000  C
  H93      1.0000 0.92927  0.08053  0.34533  Biso   1.000  H
  C110     1.0000 0.83067  0.04303  0.25953  Biso   1.000  C
  H94      1.0000 0.78937  0.01443  0.25183  Biso   1.000  H
  C111     1.0000 0.86637  0.08693  0.22403  Biso   1.000  C
  H95      1.0000 0.84857  0.08813  0.19353  Biso   1.000  H
  C112     1.0000 0.92757  0.12873  0.23293  Biso   1.000  C
  H96      1.0000 0.95207  0.15883  0.20923  Biso   1.000  H
  Cl8      1.0000 0.25309  0.30497  0.31590  Biso   1.000  Cl
  Cu9      1.0000 0.84723  0.53396  0.69429  Biso   1.000  Cu
  N65      1.0000 0.82713  0.63387  0.73725  Biso   1.000  N
  N66      1.0000 0.83163  0.58217  0.75027  Biso   1.000  N
  N67      1.0000 0.80653  0.61707  0.81727  Biso   1.000  N
  N68      1.0000 0.71983  0.58317  0.93527  Biso   1.000  N
  N69      1.0000 0.77213  0.52817  0.65936  Biso   1.000  N
  N70      1.0000 0.76823  0.57987  0.64469  Biso   1.000  N
  N71      1.0000 0.68103  0.49787  0.62587  Biso   1.000  N
  N72      1.0000 0.51943  0.37307  0.63807  Biso   1.000  N
  C113     1.0000 0.81273  0.65407  0.77727  Biso   1.000  C
  H97      1.0000 0.80743  0.68857  0.77847  Biso   1.000  H
  C114     1.0000 0.81773  0.57207  0.79867  Biso   1.000  C
  H98      1.0000 0.81573  0.53927  0.81727  Biso   1.000  H
  C115     1.0000 0.78863  0.62417  0.86697  Biso   1.000  C
  C116     1.0000 0.82403  0.68007  0.89067  Biso   1.000  C
  H99      1.0000 0.86043  0.71137  0.87617  Biso   1.000  H
  C117     1.0000 0.80333  0.68837  0.93807  Biso   1.000  C
  H100     1.0000 0.82413  0.72627  0.95477  Biso   1.000  H
  C118     1.0000 0.73913  0.57667  0.88987  Biso   1.000  C
  H101     1.0000 0.71793  0.53837  0.87357  Biso   1.000  H
  C119     1.0000 0.75133  0.63857  0.95887  Biso   1.000  C
  H102     1.0000 0.73763  0.64347  0.99027  Biso   1.000  H
  C120     1.0000 0.71943  0.47987  0.64757  Biso   1.000  C
  H103     1.0000 0.70913  0.43877  0.65307  Biso   1.000  H
  C121     1.0000 0.71363  0.56047  0.62527  Biso   1.000  C
  H104     1.0000 0.69913  0.58607  0.61277  Biso   1.000  H
  C122     1.0000 0.61793  0.45737  0.61217  Biso   1.000  C
  C123     1.0000 0.57953  0.41437  0.64717  Biso   1.000  C
  H105     1.0000 0.59593  0.41387  0.67867  Biso   1.000  H
  C124     1.0000 0.49733  0.37637  0.59287  Biso   1.000  C
  H106     1.0000 0.45603  0.34777  0.58517  Biso   1.000  H
  C125     1.0000 0.53303  0.42027  0.55737  Biso   1.000  C
  H107     1.0000 0.51523  0.42147  0.52687  Biso   1.000  H
  C126     1.0000 0.59423  0.46207  0.56627  Biso   1.000  C
  H108     1.0000 0.61873  0.49217  0.54257  Biso   1.000  H
  Cl9      1.0000 0.91975  0.63831  0.64924  Biso   1.000  Cl
  Cu10     1.0000 0.86729  0.35339  0.97238  Biso   1.000  Cu
  N73      1.0000 0.96720  0.47340  0.92942  Biso   1.000  N
  N74      1.0000 0.91550  0.41720  0.91640  Biso   1.000  N
  N75      1.0000 0.95040  0.47720  0.84940  Biso   1.000  N
  N76      1.0000 0.91650  0.53000  0.73140  Biso   1.000  N
  N77      1.0000 0.86150  0.42270  0.00731  Biso   1.000  N
  N78      1.0000 0.91320  0.47830  0.02198  Biso   1.000  N
  N79      1.0000 0.83120  0.48350  0.04080  Biso   1.000  N
  N80      1.0000 0.70640  0.52030  0.02860  Biso   1.000  N
  C127     1.0000 0.98740  0.50800  0.88940  Biso   1.000  C
  H109     1.0000 0.02190  0.54780  0.88820  Biso   1.000  H
  C128     1.0000 0.90540  0.42100  0.86800  Biso   1.000  C
  H110     1.0000 0.87260  0.39020  0.84940  Biso   1.000  H
  C129     1.0000 0.95750  0.50220  0.79970  Biso   1.000  C
  C130     1.0000 0.01340  0.52270  0.77600  Biso   1.000  C
  H111     1.0000 0.04470  0.51760  0.79050  Biso   1.000  H
  C131     1.0000 0.02170  0.55170  0.72860  Biso   1.000  C
  H112     1.0000 0.05960  0.56880  0.71190  Biso   1.000  H
  C132     1.0000 0.91000  0.50420  0.77680  Biso   1.000  C
  H113     1.0000 0.87170  0.48710  0.79310  Biso   1.000  H
  C133     1.0000 0.97190  0.55390  0.70780  Biso   1.000  C
  H114     1.0000 0.97680  0.57250  0.67640  Biso   1.000  H
  C134     1.0000 0.81320  0.42710  0.01910  Biso   1.000  C
  H115     1.0000 0.77210  0.39630  0.01360  Biso   1.000  H
  C135     1.0000 0.89380  0.51350  0.04140  Biso   1.000  C
  H116     1.0000 0.91940  0.55360  0.05390  Biso   1.000  H
  C136     1.0000 0.79070  0.50610  0.05450  Biso   1.000  C
  C137     1.0000 0.74770  0.50150  0.01950  Biso   1.000  C
  H117     1.0000 0.74720  0.48460  0.98800  Biso   1.000  H
  C138     1.0000 0.70970  0.54570  0.07380  Biso   1.000  C
  H118     1.0000 0.68110  0.55840  0.08150  Biso   1.000  H
  C139     1.0000 0.75360  0.55390  0.10930  Biso   1.000  C
  H119     1.0000 0.75480  0.57290  0.13980  Biso   1.000  H
  C140     1.0000 0.79540  0.53450  0.10040  Biso   1.000  C
  H120     1.0000 0.82550  0.54010  0.12410  Biso   1.000  H
  Cl10     1.0000 0.97164  0.38522  0.01743  Biso   1.000  Cl
  Cu11     1.0000 0.53396  0.68672  0.30571  Biso   1.000  Cu
  N81      1.0000 0.63387  0.80673  0.26275  Biso   1.000  N
  N82      1.0000 0.58217  0.75053  0.24973  Biso   1.000  N
  N83      1.0000 0.61707  0.81053  0.18273  Biso   1.000  N
  N84      1.0000 0.58317  0.86333  0.06473  Biso   1.000  N
  N85      1.0000 0.52817  0.75603  0.34064  Biso   1.000  N
  N86      1.0000 0.57987  0.81163  0.35531  Biso   1.000  N
  N87      1.0000 0.49787  0.81683  0.37413  Biso   1.000  N
  N88      1.0000 0.37307  0.85363  0.36193  Biso   1.000  N
  C141     1.0000 0.65407  0.84133  0.22273  Biso   1.000  C
  H121     1.0000 0.68857  0.88113  0.22153  Biso   1.000  H
  C142     1.0000 0.57207  0.75433  0.20133  Biso   1.000  C
  H122     1.0000 0.53927  0.72353  0.18273  Biso   1.000  H
  C143     1.0000 0.62417  0.83553  0.13303  Biso   1.000  C
  C144     1.0000 0.68007  0.85603  0.10933  Biso   1.000  C
  H123     1.0000 0.71137  0.85093  0.12383  Biso   1.000  H
  C145     1.0000 0.68837  0.88503  0.06193  Biso   1.000  C
  H124     1.0000 0.72627  0.90213  0.04523  Biso   1.000  H
  C146     1.0000 0.57667  0.83753  0.11013  Biso   1.000  C
  H125     1.0000 0.53837  0.82043  0.12643  Biso   1.000  H
  C147     1.0000 0.63857  0.88723  0.04113  Biso   1.000  C
  H126     1.0000 0.64347  0.90583  0.00973  Biso   1.000  H
  C148     1.0000 0.47987  0.76043  0.35243  Biso   1.000  C
  H127     1.0000 0.43877  0.72963  0.34693  Biso   1.000  H
  C149     1.0000 0.56047  0.84683  0.37473  Biso   1.000  C
  H128     1.0000 0.58607  0.88693  0.38723  Biso   1.000  H
  C150     1.0000 0.45737  0.83943  0.38783  Biso   1.000  C
  C151     1.0000 0.41437  0.83483  0.35283  Biso   1.000  C
  H129     1.0000 0.41387  0.81793  0.32133  Biso   1.000  H
  C152     1.0000 0.37637  0.87903  0.40713  Biso   1.000  C
  H130     1.0000 0.34777  0.89173  0.41483  Biso   1.000  H
  C153     1.0000 0.42027  0.88723  0.44263  Biso   1.000  C
  H131     1.0000 0.42147  0.90623  0.47313  Biso   1.000  H
  C154     1.0000 0.46207  0.86783  0.43373  Biso   1.000  C
  H132     1.0000 0.49217  0.87343  0.45743  Biso   1.000  H
  Cl11     1.0000 0.63831  0.71855  0.35076  Biso   1.000  Cl
  Cu12     1.0000 0.20062  0.02006  0.63905  Biso   1.000  Cu
  N89      1.0000 0.30053  0.14007  0.59609  Biso   1.000  N
  N90      1.0000 0.24883  0.08387  0.58307  Biso   1.000  N
  N91      1.0000 0.28373  0.14387  0.51607  Biso   1.000  N
  N92      1.0000 0.24983  0.19667  0.39807  Biso   1.000  N
  N93      1.0000 0.19483  0.08937  0.67398  Biso   1.000  N
  N94      1.0000 0.24653  0.14497  0.68865  Biso   1.000  N
  N95      1.0000 0.16453  0.15017  0.70747  Biso   1.000  N
  N96      1.0000 0.03973  0.18697  0.69527  Biso   1.000  N
  C155     1.0000 0.32073  0.17467  0.55607  Biso   1.000  C
  H133     1.0000 0.35523  0.21447  0.55487  Biso   1.000  H
  C156     1.0000 0.23873  0.08767  0.53467  Biso   1.000  C
  H134     1.0000 0.20593  0.05687  0.51607  Biso   1.000  H
  C157     1.0000 0.29083  0.16887  0.46637  Biso   1.000  C
  C158     1.0000 0.34673  0.18937  0.44267  Biso   1.000  C
  H135     1.0000 0.37803  0.18427  0.45717  Biso   1.000  H
  C159     1.0000 0.35503  0.21837  0.39527  Biso   1.000  C
  H136     1.0000 0.39293  0.23547  0.37857  Biso   1.000  H
  C160     1.0000 0.24333  0.17087  0.44347  Biso   1.000  C
  H137     1.0000 0.20503  0.15377  0.45977  Biso   1.000  H
  C161     1.0000 0.30523  0.22057  0.37447  Biso   1.000  C
  H138     1.0000 0.31013  0.23917  0.34307  Biso   1.000  H
  C162     1.0000 0.14653  0.09377  0.68577  Biso   1.000  C
  H139     1.0000 0.10543  0.06297  0.68027  Biso   1.000  H
  C163     1.0000 0.22713  0.18017  0.70807  Biso   1.000  C
  H140     1.0000 0.25273  0.22027  0.72057  Biso   1.000  H
  C164     1.0000 0.12403  0.17277  0.72117  Biso   1.000  C
  C165     1.0000 0.08103  0.16817  0.68617  Biso   1.000  C
  H141     1.0000 0.08053  0.15127  0.65467  Biso   1.000  H
  C166     1.0000 0.04303  0.21237  0.74047  Biso   1.000  C
  H142     1.0000 0.01443  0.22507  0.74817  Biso   1.000  H
  C167     1.0000 0.08693  0.22057  0.77597  Biso   1.000  C
  H143     1.0000 0.08813  0.23957  0.80647  Biso   1.000  H
  C168     1.0000 0.12873  0.20117  0.76707  Biso   1.000  C
  H144     1.0000 0.15883  0.20677  0.79077  Biso   1.000  H
  Cl12     1.0000 0.30497  0.05189  0.68410  Biso   1.000  Cl
  Cu13     1.0000 0.64661  0.51390  0.97238  Biso   1.000  Cu
  N97      1.0000 0.52660  0.49380  0.92942  Biso   1.000  N
  N98      1.0000 0.58280  0.49830  0.91640  Biso   1.000  N
  N99      1.0000 0.52280  0.47320  0.84940  Biso   1.000  N
  N100     1.0000 0.47000  0.38650  0.73140  Biso   1.000  N
  N101     1.0000 0.57730  0.43880  0.00731  Biso   1.000  N
  N102     1.0000 0.52170  0.43490  0.02198  Biso   1.000  N
  N103     1.0000 0.51650  0.34770  0.04080  Biso   1.000  N
  N104     1.0000 0.47970  0.18610  0.02860  Biso   1.000  N
  C169     1.0000 0.49200  0.47940  0.88940  Biso   1.000  C
  H145     1.0000 0.45220  0.47410  0.88820  Biso   1.000  H
  C170     1.0000 0.57900  0.48440  0.86800  Biso   1.000  C
  H146     1.0000 0.60980  0.48240  0.84940  Biso   1.000  H
  C171     1.0000 0.49780  0.45530  0.79970  Biso   1.000  C
  C172     1.0000 0.47730  0.49070  0.77600  Biso   1.000  C
  H147     1.0000 0.48240  0.52710  0.79050  Biso   1.000  H
  C173     1.0000 0.44830  0.47000  0.72860  Biso   1.000  C
  H148     1.0000 0.43120  0.49080  0.71190  Biso   1.000  H
  C174     1.0000 0.49580  0.40580  0.77680  Biso   1.000  C
  H149     1.0000 0.51290  0.38460  0.79310  Biso   1.000  H
  C175     1.0000 0.44610  0.41800  0.70780  Biso   1.000  C
  H150     1.0000 0.42750  0.40430  0.67640  Biso   1.000  H
  C176     1.0000 0.57290  0.38610  0.01910  Biso   1.000  C
  H151     1.0000 0.60370  0.37580  0.01360  Biso   1.000  H
  C177     1.0000 0.48650  0.38030  0.04140  Biso   1.000  C
  H152     1.0000 0.44640  0.36580  0.05390  Biso   1.000  H
  C178     1.0000 0.49390  0.28460  0.05450  Biso   1.000  C
  C179     1.0000 0.49850  0.24620  0.01950  Biso   1.000  C
  H153     1.0000 0.51540  0.26260  0.98800  Biso   1.000  H
  C180     1.0000 0.45430  0.16400  0.07380  Biso   1.000  C
  H154     1.0000 0.44160  0.12270  0.08150  Biso   1.000  H
  C181     1.0000 0.44610  0.19970  0.10930  Biso   1.000  C
  H155     1.0000 0.42710  0.18190  0.13980  Biso   1.000  H
  C182     1.0000 0.46550  0.26090  0.10040  Biso   1.000  C
  H156     1.0000 0.45990  0.28540  0.12410  Biso   1.000  H
  Cl13     1.0000 0.61478  0.58642  0.01743  Biso   1.000  Cl
  Cu14     1.0000 0.31328  0.84723  0.30571  Biso   1.000  Cu
  N105     1.0000 0.19327  0.82713  0.26275  Biso   1.000  N
  N106     1.0000 0.24947  0.83163  0.24973  Biso   1.000  N
  N107     1.0000 0.18947  0.80653  0.18273  Biso   1.000  N
  N108     1.0000 0.13667  0.71983  0.06473  Biso   1.000  N
  N109     1.0000 0.24397  0.77213  0.34064  Biso   1.000  N
  N110     1.0000 0.18837  0.76823  0.35531  Biso   1.000  N
  N111     1.0000 0.18317  0.68103  0.37413  Biso   1.000  N
  N112     1.0000 0.14637  0.51943  0.36193  Biso   1.000  N
  C183     1.0000 0.15867  0.81273  0.22273  Biso   1.000  C
  H157     1.0000 0.11887  0.80743  0.22153  Biso   1.000  H
  C184     1.0000 0.24567  0.81773  0.20133  Biso   1.000  C
  H158     1.0000 0.27647  0.81573  0.18273  Biso   1.000  H
  C185     1.0000 0.16447  0.78863  0.13303  Biso   1.000  C
  C186     1.0000 0.14397  0.82403  0.10933  Biso   1.000  C
  H159     1.0000 0.14907  0.86043  0.12383  Biso   1.000  H
  C187     1.0000 0.11497  0.80333  0.06193  Biso   1.000  C
  H160     1.0000 0.09787  0.82413  0.04523  Biso   1.000  H
  C188     1.0000 0.16247  0.73913  0.11013  Biso   1.000  C
  H161     1.0000 0.17957  0.71793  0.12643  Biso   1.000  H
  C189     1.0000 0.11277  0.75133  0.04113  Biso   1.000  C
  H162     1.0000 0.09417  0.73763  0.00973  Biso   1.000  H
  C190     1.0000 0.23957  0.71943  0.35243  Biso   1.000  C
  H163     1.0000 0.27037  0.70913  0.34693  Biso   1.000  H
  C191     1.0000 0.15317  0.71363  0.37473  Biso   1.000  C
  H164     1.0000 0.11307  0.69913  0.38723  Biso   1.000  H
  C192     1.0000 0.16057  0.61793  0.38783  Biso   1.000  C
  C193     1.0000 0.16517  0.57953  0.35283  Biso   1.000  C
  H165     1.0000 0.18207  0.59593  0.32133  Biso   1.000  H
  C194     1.0000 0.12097  0.49733  0.40713  Biso   1.000  C
  H166     1.0000 0.10827  0.45603  0.41483  Biso   1.000  H
  C195     1.0000 0.11277  0.53303  0.44263  Biso   1.000  C
  H167     1.0000 0.09377  0.51523  0.47313  Biso   1.000  H
  C196     1.0000 0.13217  0.59423  0.43373  Biso   1.000  C
  H168     1.0000 0.12657  0.61873  0.45743  Biso   1.000  H
  Cl14     1.0000 0.28145  0.91975  0.35076  Biso   1.000  Cl
  Cu15     1.0000 0.97994  0.18057  0.63905  Biso   1.000  Cu
  N113     1.0000 0.85993  0.16047  0.59609  Biso   1.000  N
  N114     1.0000 0.91613  0.16497  0.58307  Biso   1.000  N
  N115     1.0000 0.85613  0.13987  0.51607  Biso   1.000  N
  N116     1.0000 0.80333  0.05317  0.39807  Biso   1.000  N
  N117     1.0000 0.91063  0.10547  0.67398  Biso   1.000  N
  N118     1.0000 0.85503  0.10157  0.68865  Biso   1.000  N
  N119     1.0000 0.84983  0.01437  0.70747  Biso   1.000  N
  N120     1.0000 0.81303  0.85277  0.69527  Biso   1.000  N
  C197     1.0000 0.82533  0.14607  0.55607  Biso   1.000  C
  H169     1.0000 0.78553  0.14077  0.55487  Biso   1.000  H
  C198     1.0000 0.91233  0.15107  0.53467  Biso   1.000  C
  H170     1.0000 0.94313  0.14907  0.51607  Biso   1.000  H
  C199     1.0000 0.83113  0.12197  0.46637  Biso   1.000  C
  C200     1.0000 0.81063  0.15737  0.44267  Biso   1.000  C
  H171     1.0000 0.81573  0.19377  0.45717  Biso   1.000  H
  C201     1.0000 0.78163  0.13667  0.39527  Biso   1.000  C
  H172     1.0000 0.76453  0.15747  0.37857  Biso   1.000  H
  C202     1.0000 0.82913  0.07247  0.44347  Biso   1.000  C
  H173     1.0000 0.84623  0.05127  0.45977  Biso   1.000  H
  C203     1.0000 0.77943  0.08467  0.37447  Biso   1.000  C
  H174     1.0000 0.76083  0.07097  0.34307  Biso   1.000  H
  C204     1.0000 0.90623  0.05277  0.68577  Biso   1.000  C
  H175     1.0000 0.93703  0.04247  0.68027  Biso   1.000  H
  C205     1.0000 0.81983  0.04697  0.70807  Biso   1.000  C
  H176     1.0000 0.77973  0.03247  0.72057  Biso   1.000  H
  C206     1.0000 0.82723  0.95127  0.72117  Biso   1.000  C
  C207     1.0000 0.83183  0.91287  0.68617  Biso   1.000  C
  H177     1.0000 0.84873  0.92927  0.65467  Biso   1.000  H
  C208     1.0000 0.78763  0.83067  0.74047  Biso   1.000  C
  H178     1.0000 0.77493  0.78937  0.74817  Biso   1.000  H
  C209     1.0000 0.77943  0.86637  0.77597  Biso   1.000  C
  H179     1.0000 0.76043  0.84857  0.80647  Biso   1.000  H
  C210     1.0000 0.79883  0.92757  0.76707  Biso   1.000  C
  H180     1.0000 0.79323  0.95207  0.79077  Biso   1.000  H
  Cl15     1.0000 0.94811  0.25309  0.68410  Biso   1.000  Cl
  Cu16     1.0000 0.48610  0.13271  0.97238  Biso   1.000  Cu
  N121     1.0000 0.50620  0.03280  0.92942  Biso   1.000  N
  N122     1.0000 0.50170  0.08450  0.91640  Biso   1.000  N
  N123     1.0000 0.52680  0.04960  0.84940  Biso   1.000  N
  N124     1.0000 0.61350  0.08350  0.73140  Biso   1.000  N
  N125     1.0000 0.56120  0.13850  0.00731  Biso   1.000  N
  N126     1.0000 0.56510  0.08680  0.02198  Biso   1.000  N
  N127     1.0000 0.65230  0.16880  0.04080  Biso   1.000  N
  N128     1.0000 0.81390  0.29360  0.02860  Biso   1.000  N
  C211     1.0000 0.52060  0.01260  0.88940  Biso   1.000  C
  H181     1.0000 0.52590  0.97810  0.88820  Biso   1.000  H
  C212     1.0000 0.51560  0.09460  0.86800  Biso   1.000  C
  H182     1.0000 0.51760  0.12740  0.84940  Biso   1.000  H
  C213     1.0000 0.54470  0.04250  0.79970  Biso   1.000  C
  C214     1.0000 0.50930  0.98660  0.77600  Biso   1.000  C
  H183     1.0000 0.47290  0.95530  0.79050  Biso   1.000  H
  C215     1.0000 0.53000  0.97830  0.72860  Biso   1.000  C
  H184     1.0000 0.50920  0.94040  0.71190  Biso   1.000  H
  C216     1.0000 0.59420  0.09000  0.77680  Biso   1.000  C
  H185     1.0000 0.61540  0.12830  0.79310  Biso   1.000  H
  C217     1.0000 0.58200  0.02810  0.70780  Biso   1.000  C
  H186     1.0000 0.59570  0.02320  0.67640  Biso   1.000  H
  C218     1.0000 0.61390  0.18680  0.01910  Biso   1.000  C
  H187     1.0000 0.62420  0.22790  0.01360  Biso   1.000  H
  C219     1.0000 0.61970  0.10620  0.04140  Biso   1.000  C
  H188     1.0000 0.63420  0.08060  0.05390  Biso   1.000  H
  C220     1.0000 0.71540  0.20930  0.05450  Biso   1.000  C
  C221     1.0000 0.75380  0.25230  0.01950  Biso   1.000  C
  H189     1.0000 0.73740  0.25280  0.98800  Biso   1.000  H
  C222     1.0000 0.83600  0.29030  0.07380  Biso   1.000  C
  H190     1.0000 0.87730  0.31890  0.08150  Biso   1.000  H
  C223     1.0000 0.80030  0.24640  0.10930  Biso   1.000  C
  H191     1.0000 0.81810  0.24520  0.13980  Biso   1.000  H
  C224     1.0000 0.73910  0.20460  0.10040  Biso   1.000  C
  H192     1.0000 0.71460  0.17450  0.12410  Biso   1.000  H
  Cl16     1.0000 0.41358  0.02836  0.01743  Biso   1.000  Cl
  Cu17     1.0000 0.15277  0.46604  0.30571  Biso   1.000  Cu
  N129     1.0000 0.17287  0.36613  0.26275  Biso   1.000  N
  N130     1.0000 0.16837  0.41783  0.24973  Biso   1.000  N
  N131     1.0000 0.19347  0.38293  0.18273  Biso   1.000  N
  N132     1.0000 0.28017  0.41683  0.06473  Biso   1.000  N
  N133     1.0000 0.22787  0.47183  0.34064  Biso   1.000  N
  N134     1.0000 0.23177  0.42013  0.35531  Biso   1.000  N
  N135     1.0000 0.31897  0.50213  0.37413  Biso   1.000  N
  N136     1.0000 0.48057  0.62693  0.36193  Biso   1.000  N
  C225     1.0000 0.18727  0.34593  0.22273  Biso   1.000  C
  H193     1.0000 0.19257  0.31143  0.22153  Biso   1.000  H
  C226     1.0000 0.18227  0.42793  0.20133  Biso   1.000  C
  H194     1.0000 0.18427  0.46073  0.18273  Biso   1.000  H
  C227     1.0000 0.21137  0.37583  0.13303  Biso   1.000  C
  C228     1.0000 0.17597  0.31993  0.10933  Biso   1.000  C
  H195     1.0000 0.13957  0.28863  0.12383  Biso   1.000  H
  C229     1.0000 0.19667  0.31163  0.06193  Biso   1.000  C
  H196     1.0000 0.17587  0.27373  0.04523  Biso   1.000  H
  C230     1.0000 0.26087  0.42333  0.11013  Biso   1.000  C
  H197     1.0000 0.28207  0.46163  0.12643  Biso   1.000  H
  C231     1.0000 0.24867  0.36143  0.04113  Biso   1.000  C
  H198     1.0000 0.26237  0.35653  0.00973  Biso   1.000  H
  C232     1.0000 0.28057  0.52013  0.35243  Biso   1.000  C
  H199     1.0000 0.29087  0.56123  0.34693  Biso   1.000  H
  C233     1.0000 0.28637  0.43953  0.37473  Biso   1.000  C
  H200     1.0000 0.30087  0.41393  0.38723  Biso   1.000  H
  C234     1.0000 0.38207  0.54263  0.38783  Biso   1.000  C
  C235     1.0000 0.42047  0.58563  0.35283  Biso   1.000  C
  H201     1.0000 0.40407  0.58613  0.32133  Biso   1.000  H
  C236     1.0000 0.50267  0.62363  0.40713  Biso   1.000  C
  H202     1.0000 0.54397  0.65223  0.41483  Biso   1.000  H
  C237     1.0000 0.46697  0.57973  0.44263  Biso   1.000  C
  H203     1.0000 0.48477  0.57853  0.47313  Biso   1.000  H
  C238     1.0000 0.40577  0.53793  0.43373  Biso   1.000  C
  H204     1.0000 0.38127  0.50783  0.45743  Biso   1.000  H
  Cl17     1.0000 0.08025  0.36169  0.35076  Biso   1.000  Cl
  Cu18     1.0000 0.81943  0.79938  0.63905  Biso   1.000  Cu
  N137     1.0000 0.83953  0.69947  0.59609  Biso   1.000  N
  N138     1.0000 0.83503  0.75117  0.58307  Biso   1.000  N
  N139     1.0000 0.86013  0.71627  0.51607  Biso   1.000  N
  N140     1.0000 0.94683  0.75017  0.39807  Biso   1.000  N
  N141     1.0000 0.89453  0.80517  0.67398  Biso   1.000  N
  N142     1.0000 0.89843  0.75347  0.68865  Biso   1.000  N
  N143     1.0000 0.98563  0.83547  0.70747  Biso   1.000  N
  N144     1.0000 0.14723  0.96027  0.69527  Biso   1.000  N
  C239     1.0000 0.85393  0.67927  0.55607  Biso   1.000  C
  H205     1.0000 0.85923  0.64477  0.55487  Biso   1.000  H
  C240     1.0000 0.84893  0.76127  0.53467  Biso   1.000  C
  H206     1.0000 0.85093  0.79407  0.51607  Biso   1.000  H
  C241     1.0000 0.87803  0.70917  0.46637  Biso   1.000  C
  C242     1.0000 0.84263  0.65327  0.44267  Biso   1.000  C
  H207     1.0000 0.80623  0.62197  0.45717  Biso   1.000  H
  C243     1.0000 0.86333  0.64497  0.39527  Biso   1.000  C
  H208     1.0000 0.84253  0.60707  0.37857  Biso   1.000  H
  C244     1.0000 0.92753  0.75667  0.44347  Biso   1.000  C
  H209     1.0000 0.94873  0.79497  0.45977  Biso   1.000  H
  C245     1.0000 0.91533  0.69477  0.37447  Biso   1.000  C
  H210     1.0000 0.92903  0.68987  0.34307  Biso   1.000  H
  C246     1.0000 0.94723  0.85347  0.68577  Biso   1.000  C
  H211     1.0000 0.95753  0.89457  0.68027  Biso   1.000  H
  C247     1.0000 0.95303  0.77287  0.70807  Biso   1.000  C
  H212     1.0000 0.96753  0.74727  0.72057  Biso   1.000  H
  C248     1.0000 0.04873  0.87597  0.72117  Biso   1.000  C
  C249     1.0000 0.08713  0.91897  0.68617  Biso   1.000  C
  H213     1.0000 0.07073  0.91947  0.65467  Biso   1.000  H
  C250     1.0000 0.16933  0.95697  0.74047  Biso   1.000  C
  H214     1.0000 0.21063  0.98557  0.74817  Biso   1.000  H
  C251     1.0000 0.13363  0.91307  0.77597  Biso   1.000  C
  H215     1.0000 0.15143  0.91187  0.80647  Biso   1.000  H
  C252     1.0000 0.07243  0.87127  0.76707  Biso   1.000  C
  H216     1.0000 0.04793  0.84117  0.79077  Biso   1.000  H
  Cl18     1.0000 0.74691  0.69503  0.68410  Biso   1.000  Cl
  Cu19     1.0000 0.00000  0.50000  0.00000  Biso   1.000  Cu
  Cu20     1.0000 0.66667  0.83333  0.33333  Biso   1.000  Cu
  Cu21     1.0000 0.33333  0.16667  0.66667  Biso   1.000  Cu
  Cu22     1.0000 0.50000  0.50000  0.00000  Biso   1.000  Cu
  Cu23     1.0000 0.16667  0.83333  0.33333  Biso   1.000  Cu
  Cu24     1.0000 0.83333  0.16667  0.66667  Biso   1.000  Cu
  Cu25     1.0000 0.50000  0.00000  0.00000  Biso   1.000  Cu
  Cu26     1.0000 0.16667  0.33333  0.33333  Biso   1.000  Cu
  Cu27     1.0000 0.83333  0.66667  0.66667  Biso   1.000  Cu
