data_image0
_cell_length_a       24.0595
_cell_length_b       24.0595
_cell_length_c       30.986
_cell_angle_alpha    90
_cell_angle_beta     90
_cell_angle_gamma    90

_symmetry_space_group_name_H-M    "P 1"
_symmetry_int_tables_number       1

loop_
  _symmetry_equiv_pos_as_xyz
  'x, y, z'

loop_
  _atom_site_label
  _atom_site_occupancy
  _atom_site_fract_x
  _atom_site_fract_y
  _atom_site_fract_z
  _atom_site_thermal_displace_type
  _atom_site_B_iso_or_equiv
  _atom_site_type_symbol
  Zn1      1.0000 0.57245  0.12589  0.12217  Biso   1.000  Zn
  C1       1.0000 0.29816  0.23813  0.07780  Biso   1.000  C
  C2       1.0000 0.34830  0.23610  0.04859  Biso   1.000  C
  H1       1.0000 0.33620  0.23440  0.01880  Biso   1.000  H
  H2       1.0000 0.37000  0.26970  0.05230  Biso   1.000  H
  C3       1.0000 0.47837  0.16468  0.08112  Biso   1.000  C
  C4       1.0000 0.44225  0.19450  0.04897  Biso   1.000  C
  H3       1.0000 0.45110  0.23390  0.04940  Biso   1.000  H
  H4       1.0000 0.45010  0.18060  0.02020  Biso   1.000  H
  C5       1.0000 0.36078  0.13556  0.03870  Biso   1.000  C
  H5       1.0000 0.32210  0.13210  0.04710  Biso   1.000  H
  H6       1.0000 0.38050  0.10410  0.05090  Biso   1.000  H
  C6       1.0000 0.36394  0.13126  0.98975  Biso   1.000  C
  C7       1.0000 0.40790  0.10400  0.96975  Biso   1.000  C
  H7       1.0000 0.43530  0.08750  0.98660  Biso   1.000  H
  C8       1.0000 0.41140  0.10090  0.92529  Biso   1.000  C
  H8       1.0000 0.44160  0.08300  0.91270  Biso   1.000  H
  C9       1.0000 0.37077  0.12390  0.89920  Biso   1.000  C
  C10      1.0000 0.32650  0.15146  0.91908  Biso   1.000  C
  H9       1.0000 0.29890  0.16770  0.90230  Biso   1.000  H
  C11      1.0000 0.32349  0.15480  0.96350  Biso   1.000  C
  H10      1.0000 0.29370  0.17330  0.97610  Biso   1.000  H
  C12      1.0000 0.69740  0.11870  0.10820  Biso   1.000  C
  H11      1.0000 0.70370  0.15400  0.11940  Biso   1.000  H
  C13      1.0000 0.73740  0.08430  0.09427  Biso   1.000  C
  H12      1.0000 0.77550  0.09050  0.09440  Biso   1.000  H
  C14      1.0000 0.65560  0.04650  0.08698  Biso   1.000  C
  H13      1.0000 0.62820  0.02060  0.08070  Biso   1.000  H
  C15      1.0000 0.73580  0.98860  0.06050  Biso   1.000  C
  C16      1.0000 0.73010  0.97300  0.01630  Biso   1.000  C
  N1       1.0000 0.38335  0.18705  0.05841  Biso   1.000  N
  N2       1.0000 0.64627  0.09506  0.10368  Biso   1.000  N
  N3       1.0000 0.71031  0.03870  0.07995  Biso   1.000  N
  O1       1.0000 0.25668  0.26456  0.06574  Biso   1.000  O
  O2       1.0000 0.30090  0.21343  0.11411  Biso   1.000  O
  O3       1.0000 0.45882  0.15317  0.11733  Biso   1.000  O
  O4       1.0000 0.52810  0.15387  0.07105  Biso   1.000  O
  Zn2      1.0000 0.07245  0.62589  0.62216  Biso   1.000  Zn
  C17      1.0000 0.79816  0.73813  0.57780  Biso   1.000  C
  C18      1.0000 0.84830  0.73610  0.54859  Biso   1.000  C
  H14      1.0000 0.83620  0.73440  0.51880  Biso   1.000  H
  H15      1.0000 0.87000  0.76970  0.55230  Biso   1.000  H
  C19      1.0000 0.97837  0.66468  0.58112  Biso   1.000  C
  C20      1.0000 0.94225  0.69450  0.54897  Biso   1.000  C
  H16      1.0000 0.95110  0.73390  0.54940  Biso   1.000  H
  H17      1.0000 0.95010  0.68060  0.52020  Biso   1.000  H
  C21      1.0000 0.86078  0.63556  0.53870  Biso   1.000  C
  H18      1.0000 0.82210  0.63210  0.54710  Biso   1.000  H
  H19      1.0000 0.88050  0.60410  0.55090  Biso   1.000  H
  C22      1.0000 0.86394  0.63126  0.48975  Biso   1.000  C
  C23      1.0000 0.90790  0.60400  0.46975  Biso   1.000  C
  H20      1.0000 0.93530  0.58750  0.48660  Biso   1.000  H
  C24      1.0000 0.91140  0.60090  0.42529  Biso   1.000  C
  H21      1.0000 0.94160  0.58300  0.41270  Biso   1.000  H
  C25      1.0000 0.87077  0.62390  0.39920  Biso   1.000  C
  C26      1.0000 0.82650  0.65146  0.41908  Biso   1.000  C
  H22      1.0000 0.79890  0.66770  0.40230  Biso   1.000  H
  C27      1.0000 0.82349  0.65480  0.46350  Biso   1.000  C
  H23      1.0000 0.79370  0.67330  0.47610  Biso   1.000  H
  C28      1.0000 0.19740  0.61870  0.60820  Biso   1.000  C
  H24      1.0000 0.20370  0.65400  0.61940  Biso   1.000  H
  C29      1.0000 0.23740  0.58430  0.59427  Biso   1.000  C
  H25      1.0000 0.27550  0.59050  0.59440  Biso   1.000  H
  C30      1.0000 0.15560  0.54650  0.58698  Biso   1.000  C
  H26      1.0000 0.12820  0.52060  0.58070  Biso   1.000  H
  C31      1.0000 0.23580  0.48860  0.56050  Biso   1.000  C
  C32      1.0000 0.23010  0.47300  0.51630  Biso   1.000  C
  N4       1.0000 0.88335  0.68705  0.55841  Biso   1.000  N
  N5       1.0000 0.14627  0.59506  0.60368  Biso   1.000  N
  N6       1.0000 0.21031  0.53870  0.57995  Biso   1.000  N
  O5       1.0000 0.75668  0.76456  0.56574  Biso   1.000  O
  O6       1.0000 0.80090  0.71343  0.61411  Biso   1.000  O
  O7       1.0000 0.95882  0.65317  0.61733  Biso   1.000  O
  O8       1.0000 0.02810  0.65387  0.57105  Biso   1.000  O
  Zn3      1.0000 0.92755  0.87411  0.62216  Biso   1.000  Zn
  C33      1.0000 0.20184  0.76187  0.57780  Biso   1.000  C
  C34      1.0000 0.15170  0.76390  0.54859  Biso   1.000  C
  H27      1.0000 0.16380  0.76560  0.51880  Biso   1.000  H
  H28      1.0000 0.13000  0.73030  0.55230  Biso   1.000  H
  C35      1.0000 0.02163  0.83532  0.58112  Biso   1.000  C
  C36      1.0000 0.05775  0.80550  0.54897  Biso   1.000  C
  H29      1.0000 0.04890  0.76610  0.54940  Biso   1.000  H
  H30      1.0000 0.04990  0.81940  0.52020  Biso   1.000  H
  C37      1.0000 0.13922  0.86444  0.53870  Biso   1.000  C
  H31      1.0000 0.17790  0.86790  0.54710  Biso   1.000  H
  H32      1.0000 0.11950  0.89590  0.55090  Biso   1.000  H
  C38      1.0000 0.13606  0.86874  0.48975  Biso   1.000  C
  C39      1.0000 0.09210  0.89600  0.46975  Biso   1.000  C
  H33      1.0000 0.06470  0.91250  0.48660  Biso   1.000  H
  C40      1.0000 0.08860  0.89910  0.42529  Biso   1.000  C
  H34      1.0000 0.05840  0.91700  0.41270  Biso   1.000  H
  C41      1.0000 0.12923  0.87610  0.39920  Biso   1.000  C
  C42      1.0000 0.17350  0.84854  0.41908  Biso   1.000  C
  H35      1.0000 0.20110  0.83230  0.40230  Biso   1.000  H
  C43      1.0000 0.17651  0.84520  0.46350  Biso   1.000  C
  H36      1.0000 0.20630  0.82670  0.47610  Biso   1.000  H
  C44      1.0000 0.80260  0.88130  0.60820  Biso   1.000  C
  H37      1.0000 0.79630  0.84600  0.61940  Biso   1.000  H
  C45      1.0000 0.76260  0.91570  0.59427  Biso   1.000  C
  H38      1.0000 0.72450  0.90950  0.59440  Biso   1.000  H
  C46      1.0000 0.84440  0.95350  0.58698  Biso   1.000  C
  H39      1.0000 0.87180  0.97940  0.58070  Biso   1.000  H
  C47      1.0000 0.76420  0.01140  0.56050  Biso   1.000  C
  C48      1.0000 0.76990  0.02700  0.51630  Biso   1.000  C
  N7       1.0000 0.11665  0.81295  0.55841  Biso   1.000  N
  N8       1.0000 0.85373  0.90494  0.60368  Biso   1.000  N
  N9       1.0000 0.78969  0.96130  0.57995  Biso   1.000  N
  O9       1.0000 0.24332  0.73544  0.56574  Biso   1.000  O
  O10      1.0000 0.19910  0.78657  0.61411  Biso   1.000  O
  O11      1.0000 0.04118  0.84683  0.61733  Biso   1.000  O
  O12      1.0000 0.97190  0.84613  0.57105  Biso   1.000  O
  Zn4      1.0000 0.42755  0.37411  0.12217  Biso   1.000  Zn
  C49      1.0000 0.70184  0.26187  0.07780  Biso   1.000  C
  C50      1.0000 0.65170  0.26390  0.04859  Biso   1.000  C
  H40      1.0000 0.66380  0.26560  0.01880  Biso   1.000  H
  H41      1.0000 0.63000  0.23030  0.05230  Biso   1.000  H
  C51      1.0000 0.52163  0.33532  0.08112  Biso   1.000  C
  C52      1.0000 0.55775  0.30550  0.04897  Biso   1.000  C
  H42      1.0000 0.54890  0.26610  0.04940  Biso   1.000  H
  H43      1.0000 0.54990  0.31940  0.02020  Biso   1.000  H
  C53      1.0000 0.63922  0.36444  0.03870  Biso   1.000  C
  H44      1.0000 0.67790  0.36790  0.04710  Biso   1.000  H
  H45      1.0000 0.61950  0.39590  0.05090  Biso   1.000  H
  C54      1.0000 0.63606  0.36874  0.98975  Biso   1.000  C
  C55      1.0000 0.59210  0.39600  0.96975  Biso   1.000  C
  H46      1.0000 0.56470  0.41250  0.98660  Biso   1.000  H
  C56      1.0000 0.58860  0.39910  0.92529  Biso   1.000  C
  H47      1.0000 0.55840  0.41700  0.91270  Biso   1.000  H
  C57      1.0000 0.62923  0.37610  0.89920  Biso   1.000  C
  C58      1.0000 0.67350  0.34854  0.91908  Biso   1.000  C
  H48      1.0000 0.70110  0.33230  0.90230  Biso   1.000  H
  C59      1.0000 0.67651  0.34520  0.96350  Biso   1.000  C
  H49      1.0000 0.70630  0.32670  0.97610  Biso   1.000  H
  C60      1.0000 0.30260  0.38130  0.10820  Biso   1.000  C
  H50      1.0000 0.29630  0.34600  0.11940  Biso   1.000  H
  C61      1.0000 0.26260  0.41570  0.09427  Biso   1.000  C
  H51      1.0000 0.22450  0.40950  0.09440  Biso   1.000  H
  C62      1.0000 0.34440  0.45350  0.08698  Biso   1.000  C
  H52      1.0000 0.37180  0.47940  0.08070  Biso   1.000  H
  C63      1.0000 0.26420  0.51140  0.06050  Biso   1.000  C
  C64      1.0000 0.26990  0.52700  0.01630  Biso   1.000  C
  N10      1.0000 0.61665  0.31295  0.05841  Biso   1.000  N
  N11      1.0000 0.35373  0.40494  0.10368  Biso   1.000  N
  N12      1.0000 0.28969  0.46130  0.07995  Biso   1.000  N
  O13      1.0000 0.74332  0.23544  0.06574  Biso   1.000  O
  O14      1.0000 0.69910  0.28657  0.11411  Biso   1.000  O
  O15      1.0000 0.54118  0.34683  0.11733  Biso   1.000  O
  O16      1.0000 0.47190  0.34613  0.07105  Biso   1.000  O
  Zn5      1.0000 0.12411  0.32245  0.37216  Biso   1.000  Zn
  C65      1.0000 0.01187  0.04816  0.32780  Biso   1.000  C
  C66      1.0000 0.01390  0.09830  0.29859  Biso   1.000  C
  H53      1.0000 0.01560  0.08620  0.26880  Biso   1.000  H
  H54      1.0000 0.98030  0.12000  0.30230  Biso   1.000  H
  C67      1.0000 0.08532  0.22837  0.33112  Biso   1.000  C
  C68      1.0000 0.05550  0.19225  0.29897  Biso   1.000  C
  H55      1.0000 0.01610  0.20110  0.29940  Biso   1.000  H
  H56      1.0000 0.06940  0.20010  0.27020  Biso   1.000  H
  C69      1.0000 0.11444  0.11078  0.28870  Biso   1.000  C
  H57      1.0000 0.11790  0.07210  0.29710  Biso   1.000  H
  H58      1.0000 0.14590  0.13050  0.30090  Biso   1.000  H
  C70      1.0000 0.11874  0.11394  0.23975  Biso   1.000  C
  C71      1.0000 0.14600  0.15790  0.21975  Biso   1.000  C
  H59      1.0000 0.16250  0.18530  0.23660  Biso   1.000  H
  C72      1.0000 0.14910  0.16140  0.17529  Biso   1.000  C
  H60      1.0000 0.16700  0.19160  0.16270  Biso   1.000  H
  C73      1.0000 0.12610  0.12077  0.14920  Biso   1.000  C
  C74      1.0000 0.09854  0.07650  0.16908  Biso   1.000  C
  H61      1.0000 0.08230  0.04890  0.15230  Biso   1.000  H
  C75      1.0000 0.09520  0.07349  0.21350  Biso   1.000  C
  H62      1.0000 0.07670  0.04370  0.22610  Biso   1.000  H
  C76      1.0000 0.13130  0.44740  0.35820  Biso   1.000  C
  H63      1.0000 0.09600  0.45370  0.36940  Biso   1.000  H
  C77      1.0000 0.16570  0.48740  0.34427  Biso   1.000  C
  H64      1.0000 0.15950  0.52550  0.34440  Biso   1.000  H
  C78      1.0000 0.20350  0.40560  0.33698  Biso   1.000  C
  H65      1.0000 0.22940  0.37820  0.33070  Biso   1.000  H
  C79      1.0000 0.26140  0.48580  0.31050  Biso   1.000  C
  C80      1.0000 0.27700  0.48010  0.26630  Biso   1.000  C
  N13      1.0000 0.06295  0.13335  0.30841  Biso   1.000  N
  N14      1.0000 0.15494  0.39627  0.35368  Biso   1.000  N
  N15      1.0000 0.21130  0.46031  0.32995  Biso   1.000  N
  O17      1.0000 0.98544  0.00668  0.31574  Biso   1.000  O
  O18      1.0000 0.03657  0.05090  0.36411  Biso   1.000  O
  O19      1.0000 0.09683  0.20882  0.36733  Biso   1.000  O
  O20      1.0000 0.09613  0.27810  0.32105  Biso   1.000  O
  Zn6      1.0000 0.62411  0.82245  0.87216  Biso   1.000  Zn
  C81      1.0000 0.51187  0.54816  0.82780  Biso   1.000  C
  C82      1.0000 0.51390  0.59830  0.79859  Biso   1.000  C
  H66      1.0000 0.51560  0.58620  0.76880  Biso   1.000  H
  H67      1.0000 0.48030  0.62000  0.80230  Biso   1.000  H
  C83      1.0000 0.58532  0.72837  0.83112  Biso   1.000  C
  C84      1.0000 0.55550  0.69225  0.79897  Biso   1.000  C
  H68      1.0000 0.51610  0.70110  0.79940  Biso   1.000  H
  H69      1.0000 0.56940  0.70010  0.77020  Biso   1.000  H
  C85      1.0000 0.61444  0.61078  0.78870  Biso   1.000  C
  H70      1.0000 0.61790  0.57210  0.79710  Biso   1.000  H
  H71      1.0000 0.64590  0.63050  0.80090  Biso   1.000  H
  C86      1.0000 0.61874  0.61394  0.73975  Biso   1.000  C
  C87      1.0000 0.64600  0.65790  0.71975  Biso   1.000  C
  H72      1.0000 0.66250  0.68530  0.73660  Biso   1.000  H
  C88      1.0000 0.64910  0.66140  0.67529  Biso   1.000  C
  H73      1.0000 0.66700  0.69160  0.66270  Biso   1.000  H
  C89      1.0000 0.62610  0.62077  0.64920  Biso   1.000  C
  C90      1.0000 0.59854  0.57650  0.66908  Biso   1.000  C
  H74      1.0000 0.58230  0.54890  0.65230  Biso   1.000  H
  C91      1.0000 0.59520  0.57349  0.71350  Biso   1.000  C
  H75      1.0000 0.57670  0.54370  0.72610  Biso   1.000  H
  C92      1.0000 0.63130  0.94740  0.85820  Biso   1.000  C
  H76      1.0000 0.59600  0.95370  0.86940  Biso   1.000  H
  C93      1.0000 0.66570  0.98740  0.84427  Biso   1.000  C
  H77      1.0000 0.65950  0.02550  0.84440  Biso   1.000  H
  C94      1.0000 0.70350  0.90560  0.83698  Biso   1.000  C
  H78      1.0000 0.72940  0.87820  0.83070  Biso   1.000  H
  C95      1.0000 0.76140  0.98580  0.81050  Biso   1.000  C
  C96      1.0000 0.77700  0.98010  0.76630  Biso   1.000  C
  N16      1.0000 0.56295  0.63335  0.80841  Biso   1.000  N
  N17      1.0000 0.65494  0.89627  0.85368  Biso   1.000  N
  N18      1.0000 0.71130  0.96031  0.82995  Biso   1.000  N
  O21      1.0000 0.48544  0.50668  0.81574  Biso   1.000  O
  O22      1.0000 0.53657  0.55090  0.86411  Biso   1.000  O
  O23      1.0000 0.59683  0.70882  0.86733  Biso   1.000  O
  O24      1.0000 0.59613  0.77810  0.82105  Biso   1.000  O
  Zn7      1.0000 0.37589  0.67755  0.87216  Biso   1.000  Zn
  C97      1.0000 0.48813  0.95184  0.82780  Biso   1.000  C
  C98      1.0000 0.48610  0.90170  0.79859  Biso   1.000  C
  H79      1.0000 0.48440  0.91380  0.76880  Biso   1.000  H
  H80      1.0000 0.51970  0.88000  0.80230  Biso   1.000  H
  C99      1.0000 0.41468  0.77163  0.83112  Biso   1.000  C
  C100     1.0000 0.44450  0.80775  0.79897  Biso   1.000  C
  H81      1.0000 0.48390  0.79890  0.79940  Biso   1.000  H
  H82      1.0000 0.43060  0.79990  0.77020  Biso   1.000  H
  C101     1.0000 0.38556  0.88922  0.78870  Biso   1.000  C
  H83      1.0000 0.38210  0.92790  0.79710  Biso   1.000  H
  H84      1.0000 0.35410  0.86950  0.80090  Biso   1.000  H
  C102     1.0000 0.38126  0.88606  0.73975  Biso   1.000  C
  C103     1.0000 0.35400  0.84210  0.71975  Biso   1.000  C
  H85      1.0000 0.33750  0.81470  0.73660  Biso   1.000  H
  C104     1.0000 0.35090  0.83860  0.67529  Biso   1.000  C
  H86      1.0000 0.33300  0.80840  0.66270  Biso   1.000  H
  C105     1.0000 0.37390  0.87923  0.64920  Biso   1.000  C
  C106     1.0000 0.40146  0.92350  0.66908  Biso   1.000  C
  H87      1.0000 0.41770  0.95110  0.65230  Biso   1.000  H
  C107     1.0000 0.40480  0.92651  0.71350  Biso   1.000  C
  H88      1.0000 0.42330  0.95630  0.72610  Biso   1.000  H
  C108     1.0000 0.36870  0.55260  0.85820  Biso   1.000  C
  H89      1.0000 0.40400  0.54630  0.86940  Biso   1.000  H
  C109     1.0000 0.33430  0.51260  0.84427  Biso   1.000  C
  H90      1.0000 0.34050  0.47450  0.84440  Biso   1.000  H
  C110     1.0000 0.29650  0.59440  0.83698  Biso   1.000  C
  H91      1.0000 0.27060  0.62180  0.83070  Biso   1.000  H
  C111     1.0000 0.23860  0.51420  0.81050  Biso   1.000  C
  C112     1.0000 0.22300  0.51990  0.76630  Biso   1.000  C
  N19      1.0000 0.43705  0.86665  0.80841  Biso   1.000  N
  N20      1.0000 0.34506  0.60373  0.85368  Biso   1.000  N
  N21      1.0000 0.28870  0.53969  0.82995  Biso   1.000  N
  O25      1.0000 0.51456  0.99332  0.81574  Biso   1.000  O
  O26      1.0000 0.46343  0.94910  0.86411  Biso   1.000  O
  O27      1.0000 0.40317  0.79118  0.86733  Biso   1.000  O
  O28      1.0000 0.40387  0.72190  0.82105  Biso   1.000  O
  Zn8      1.0000 0.87589  0.17755  0.37216  Biso   1.000  Zn
  C113     1.0000 0.98813  0.45184  0.32780  Biso   1.000  C
  C114     1.0000 0.98610  0.40170  0.29859  Biso   1.000  C
  H92      1.0000 0.98440  0.41380  0.26880  Biso   1.000  H
  H93      1.0000 0.01970  0.38000  0.30230  Biso   1.000  H
  C115     1.0000 0.91468  0.27163  0.33112  Biso   1.000  C
  C116     1.0000 0.94450  0.30775  0.29897  Biso   1.000  C
  H94      1.0000 0.98390  0.29890  0.29940  Biso   1.000  H
  H95      1.0000 0.93060  0.29990  0.27020  Biso   1.000  H
  C117     1.0000 0.88556  0.38922  0.28870  Biso   1.000  C
  H96      1.0000 0.88210  0.42790  0.29710  Biso   1.000  H
  H97      1.0000 0.85410  0.36950  0.30090  Biso   1.000  H
  C118     1.0000 0.88126  0.38606  0.23975  Biso   1.000  C
  C119     1.0000 0.85400  0.34210  0.21975  Biso   1.000  C
  H98      1.0000 0.83750  0.31470  0.23660  Biso   1.000  H
  C120     1.0000 0.85090  0.33860  0.17529  Biso   1.000  C
  H99      1.0000 0.83300  0.30840  0.16270  Biso   1.000  H
  C121     1.0000 0.87390  0.37923  0.14920  Biso   1.000  C
  C122     1.0000 0.90146  0.42350  0.16908  Biso   1.000  C
  H100     1.0000 0.91770  0.45110  0.15230  Biso   1.000  H
  C123     1.0000 0.90480  0.42651  0.21350  Biso   1.000  C
  H101     1.0000 0.92330  0.45630  0.22610  Biso   1.000  H
  C124     1.0000 0.86870  0.05260  0.35820  Biso   1.000  C
  H102     1.0000 0.90400  0.04630  0.36940  Biso   1.000  H
  C125     1.0000 0.83430  0.01260  0.34427  Biso   1.000  C
  H103     1.0000 0.84050  0.97450  0.34440  Biso   1.000  H
  C126     1.0000 0.79650  0.09440  0.33698  Biso   1.000  C
  H104     1.0000 0.77060  0.12180  0.33070  Biso   1.000  H
  C127     1.0000 0.73860  0.01420  0.31050  Biso   1.000  C
  C128     1.0000 0.72300  0.01990  0.26630  Biso   1.000  C
  N22      1.0000 0.93705  0.36665  0.30841  Biso   1.000  N
  N23      1.0000 0.84506  0.10373  0.35368  Biso   1.000  N
  N24      1.0000 0.78870  0.03969  0.32995  Biso   1.000  N
  O29      1.0000 0.01456  0.49332  0.31574  Biso   1.000  O
  O30      1.0000 0.96343  0.44910  0.36411  Biso   1.000  O
  O31      1.0000 0.90317  0.29118  0.36733  Biso   1.000  O
  O32      1.0000 0.90387  0.22190  0.32105  Biso   1.000  O
  Zn9      1.0000 0.92755  0.12589  0.87783  Biso   1.000  Zn
  C129     1.0000 0.20184  0.23813  0.92220  Biso   1.000  C
  C130     1.0000 0.15170  0.23610  0.95141  Biso   1.000  C
  H105     1.0000 0.16380  0.23440  0.98120  Biso   1.000  H
  H106     1.0000 0.13000  0.26970  0.94770  Biso   1.000  H
  C131     1.0000 0.02163  0.16468  0.91888  Biso   1.000  C
  C132     1.0000 0.05775  0.19450  0.95103  Biso   1.000  C
  H107     1.0000 0.04890  0.23390  0.95060  Biso   1.000  H
  H108     1.0000 0.04990  0.18060  0.97980  Biso   1.000  H
  C133     1.0000 0.13922  0.13556  0.96130  Biso   1.000  C
  H109     1.0000 0.17790  0.13210  0.95290  Biso   1.000  H
  H110     1.0000 0.11950  0.10410  0.94910  Biso   1.000  H
  C134     1.0000 0.13606  0.13126  0.01025  Biso   1.000  C
  C135     1.0000 0.09210  0.10400  0.03025  Biso   1.000  C
  H111     1.0000 0.06470  0.08750  0.01340  Biso   1.000  H
  C136     1.0000 0.08860  0.10090  0.07471  Biso   1.000  C
  H112     1.0000 0.05840  0.08300  0.08730  Biso   1.000  H
  C137     1.0000 0.12923  0.12390  0.10080  Biso   1.000  C
  C138     1.0000 0.17350  0.15146  0.08092  Biso   1.000  C
  H113     1.0000 0.20110  0.16770  0.09770  Biso   1.000  H
  C139     1.0000 0.17651  0.15480  0.03650  Biso   1.000  C
  H114     1.0000 0.20630  0.17330  0.02390  Biso   1.000  H
  C140     1.0000 0.80260  0.11870  0.89180  Biso   1.000  C
  H115     1.0000 0.79630  0.15400  0.88060  Biso   1.000  H
  C141     1.0000 0.76260  0.08430  0.90573  Biso   1.000  C
  H116     1.0000 0.72450  0.09050  0.90560  Biso   1.000  H
  C142     1.0000 0.84440  0.04650  0.91302  Biso   1.000  C
  H117     1.0000 0.87180  0.02060  0.91930  Biso   1.000  H
  C143     1.0000 0.76420  0.98860  0.93950  Biso   1.000  C
  C144     1.0000 0.76990  0.97300  0.98370  Biso   1.000  C
  N25      1.0000 0.11665  0.18705  0.94159  Biso   1.000  N
  N26      1.0000 0.85373  0.09506  0.89632  Biso   1.000  N
  N27      1.0000 0.78969  0.03870  0.92005  Biso   1.000  N
  O33      1.0000 0.24332  0.26456  0.93426  Biso   1.000  O
  O34      1.0000 0.19910  0.21343  0.88589  Biso   1.000  O
  O35      1.0000 0.04118  0.15317  0.88267  Biso   1.000  O
  O36      1.0000 0.97190  0.15387  0.92895  Biso   1.000  O
  Zn10     1.0000 0.42755  0.62589  0.37783  Biso   1.000  Zn
  C145     1.0000 0.70184  0.73813  0.42220  Biso   1.000  C
  C146     1.0000 0.65170  0.73610  0.45141  Biso   1.000  C
  H118     1.0000 0.66380  0.73440  0.48120  Biso   1.000  H
  H119     1.0000 0.63000  0.76970  0.44770  Biso   1.000  H
  C147     1.0000 0.52163  0.66468  0.41888  Biso   1.000  C
  C148     1.0000 0.55775  0.69450  0.45103  Biso   1.000  C
  H120     1.0000 0.54890  0.73390  0.45060  Biso   1.000  H
  H121     1.0000 0.54990  0.68060  0.47980  Biso   1.000  H
  C149     1.0000 0.63922  0.63556  0.46130  Biso   1.000  C
  H122     1.0000 0.67790  0.63210  0.45290  Biso   1.000  H
  H123     1.0000 0.61950  0.60410  0.44910  Biso   1.000  H
  C150     1.0000 0.63606  0.63126  0.51025  Biso   1.000  C
  C151     1.0000 0.59210  0.60400  0.53025  Biso   1.000  C
  H124     1.0000 0.56470  0.58750  0.51340  Biso   1.000  H
  C152     1.0000 0.58860  0.60090  0.57471  Biso   1.000  C
  H125     1.0000 0.55840  0.58300  0.58730  Biso   1.000  H
  C153     1.0000 0.62923  0.62390  0.60080  Biso   1.000  C
  C154     1.0000 0.67350  0.65146  0.58092  Biso   1.000  C
  H126     1.0000 0.70110  0.66770  0.59770  Biso   1.000  H
  C155     1.0000 0.67651  0.65480  0.53650  Biso   1.000  C
  H127     1.0000 0.70630  0.67330  0.52390  Biso   1.000  H
  C156     1.0000 0.30260  0.61870  0.39180  Biso   1.000  C
  H128     1.0000 0.29630  0.65400  0.38060  Biso   1.000  H
  C157     1.0000 0.26260  0.58430  0.40573  Biso   1.000  C
  H129     1.0000 0.22450  0.59050  0.40560  Biso   1.000  H
  C158     1.0000 0.34440  0.54650  0.41302  Biso   1.000  C
  H130     1.0000 0.37180  0.52060  0.41930  Biso   1.000  H
  C159     1.0000 0.26420  0.48860  0.43950  Biso   1.000  C
  C160     1.0000 0.26990  0.47300  0.48370  Biso   1.000  C
  N28      1.0000 0.61665  0.68705  0.44159  Biso   1.000  N
  N29      1.0000 0.35373  0.59506  0.39632  Biso   1.000  N
  N30      1.0000 0.28969  0.53870  0.42005  Biso   1.000  N
  O37      1.0000 0.74332  0.76456  0.43426  Biso   1.000  O
  O38      1.0000 0.69910  0.71343  0.38589  Biso   1.000  O
  O39      1.0000 0.54118  0.65317  0.38267  Biso   1.000  O
  O40      1.0000 0.47190  0.65387  0.42895  Biso   1.000  O
  Zn11     1.0000 0.57245  0.87411  0.37783  Biso   1.000  Zn
  C161     1.0000 0.29816  0.76187  0.42220  Biso   1.000  C
  C162     1.0000 0.34830  0.76390  0.45141  Biso   1.000  C
  H131     1.0000 0.33620  0.76560  0.48120  Biso   1.000  H
  H132     1.0000 0.37000  0.73030  0.44770  Biso   1.000  H
  C163     1.0000 0.47837  0.83532  0.41888  Biso   1.000  C
  C164     1.0000 0.44225  0.80550  0.45103  Biso   1.000  C
  H133     1.0000 0.45110  0.76610  0.45060  Biso   1.000  H
  H134     1.0000 0.45010  0.81940  0.47980  Biso   1.000  H
  C165     1.0000 0.36078  0.86444  0.46130  Biso   1.000  C
  H135     1.0000 0.32210  0.86790  0.45290  Biso   1.000  H
  H136     1.0000 0.38050  0.89590  0.44910  Biso   1.000  H
  C166     1.0000 0.36394  0.86874  0.51025  Biso   1.000  C
  C167     1.0000 0.40790  0.89600  0.53025  Biso   1.000  C
  H137     1.0000 0.43530  0.91250  0.51340  Biso   1.000  H
  C168     1.0000 0.41140  0.89910  0.57471  Biso   1.000  C
  H138     1.0000 0.44160  0.91700  0.58730  Biso   1.000  H
  C169     1.0000 0.37077  0.87610  0.60080  Biso   1.000  C
  C170     1.0000 0.32650  0.84854  0.58092  Biso   1.000  C
  H139     1.0000 0.29890  0.83230  0.59770  Biso   1.000  H
  C171     1.0000 0.32349  0.84520  0.53650  Biso   1.000  C
  H140     1.0000 0.29370  0.82670  0.52390  Biso   1.000  H
  C172     1.0000 0.69740  0.88130  0.39180  Biso   1.000  C
  H141     1.0000 0.70370  0.84600  0.38060  Biso   1.000  H
  C173     1.0000 0.73740  0.91570  0.40573  Biso   1.000  C
  H142     1.0000 0.77550  0.90950  0.40560  Biso   1.000  H
  C174     1.0000 0.65560  0.95350  0.41302  Biso   1.000  C
  H143     1.0000 0.62820  0.97940  0.41930  Biso   1.000  H
  C175     1.0000 0.73580  0.01140  0.43950  Biso   1.000  C
  C176     1.0000 0.73010  0.02700  0.48370  Biso   1.000  C
  N31      1.0000 0.38335  0.81295  0.44159  Biso   1.000  N
  N32      1.0000 0.64627  0.90494  0.39632  Biso   1.000  N
  N33      1.0000 0.71031  0.96130  0.42005  Biso   1.000  N
  O41      1.0000 0.25668  0.73544  0.43426  Biso   1.000  O
  O42      1.0000 0.30090  0.78657  0.38589  Biso   1.000  O
  O43      1.0000 0.45882  0.84683  0.38267  Biso   1.000  O
  O44      1.0000 0.52810  0.84613  0.42895  Biso   1.000  O
  Zn12     1.0000 0.07245  0.37411  0.87783  Biso   1.000  Zn
  C177     1.0000 0.79816  0.26187  0.92220  Biso   1.000  C
  C178     1.0000 0.84830  0.26390  0.95141  Biso   1.000  C
  H144     1.0000 0.83620  0.26560  0.98120  Biso   1.000  H
  H145     1.0000 0.87000  0.23030  0.94770  Biso   1.000  H
  C179     1.0000 0.97837  0.33532  0.91888  Biso   1.000  C
  C180     1.0000 0.94225  0.30550  0.95103  Biso   1.000  C
  H146     1.0000 0.95110  0.26610  0.95060  Biso   1.000  H
  H147     1.0000 0.95010  0.31940  0.97980  Biso   1.000  H
  C181     1.0000 0.86078  0.36444  0.96130  Biso   1.000  C
  H148     1.0000 0.82210  0.36790  0.95290  Biso   1.000  H
  H149     1.0000 0.88050  0.39590  0.94910  Biso   1.000  H
  C182     1.0000 0.86394  0.36874  0.01025  Biso   1.000  C
  C183     1.0000 0.90790  0.39600  0.03025  Biso   1.000  C
  H150     1.0000 0.93530  0.41250  0.01340  Biso   1.000  H
  C184     1.0000 0.91140  0.39910  0.07471  Biso   1.000  C
  H151     1.0000 0.94160  0.41700  0.08730  Biso   1.000  H
  C185     1.0000 0.87077  0.37610  0.10080  Biso   1.000  C
  C186     1.0000 0.82650  0.34854  0.08092  Biso   1.000  C
  H152     1.0000 0.79890  0.33230  0.09770  Biso   1.000  H
  C187     1.0000 0.82349  0.34520  0.03650  Biso   1.000  C
  H153     1.0000 0.79370  0.32670  0.02390  Biso   1.000  H
  C188     1.0000 0.19740  0.38130  0.89180  Biso   1.000  C
  H154     1.0000 0.20370  0.34600  0.88060  Biso   1.000  H
  C189     1.0000 0.23740  0.41570  0.90573  Biso   1.000  C
  H155     1.0000 0.27550  0.40950  0.90560  Biso   1.000  H
  C190     1.0000 0.15560  0.45350  0.91302  Biso   1.000  C
  H156     1.0000 0.12820  0.47940  0.91930  Biso   1.000  H
  C191     1.0000 0.23580  0.51140  0.93950  Biso   1.000  C
  C192     1.0000 0.23010  0.52700  0.98370  Biso   1.000  C
  N34      1.0000 0.88335  0.31295  0.94159  Biso   1.000  N
  N35      1.0000 0.14627  0.40494  0.89632  Biso   1.000  N
  N36      1.0000 0.21031  0.46130  0.92005  Biso   1.000  N
  O45      1.0000 0.75668  0.23544  0.93426  Biso   1.000  O
  O46      1.0000 0.80090  0.28657  0.88589  Biso   1.000  O
  O47      1.0000 0.95882  0.34683  0.88267  Biso   1.000  O
  O48      1.0000 0.02810  0.34613  0.92895  Biso   1.000  O
  Zn13     1.0000 0.37589  0.32245  0.62783  Biso   1.000  Zn
  C193     1.0000 0.48813  0.04816  0.67220  Biso   1.000  C
  C194     1.0000 0.48610  0.09830  0.70141  Biso   1.000  C
  H157     1.0000 0.48440  0.08620  0.73120  Biso   1.000  H
  H158     1.0000 0.51970  0.12000  0.69770  Biso   1.000  H
  C195     1.0000 0.41468  0.22837  0.66888  Biso   1.000  C
  C196     1.0000 0.44450  0.19225  0.70103  Biso   1.000  C
  H159     1.0000 0.48390  0.20110  0.70060  Biso   1.000  H
  H160     1.0000 0.43060  0.20010  0.72980  Biso   1.000  H
  C197     1.0000 0.38556  0.11078  0.71130  Biso   1.000  C
  H161     1.0000 0.38210  0.07210  0.70290  Biso   1.000  H
  H162     1.0000 0.35410  0.13050  0.69910  Biso   1.000  H
  C198     1.0000 0.38126  0.11394  0.76025  Biso   1.000  C
  C199     1.0000 0.35400  0.15790  0.78025  Biso   1.000  C
  H163     1.0000 0.33750  0.18530  0.76340  Biso   1.000  H
  C200     1.0000 0.35090  0.16140  0.82471  Biso   1.000  C
  H164     1.0000 0.33300  0.19160  0.83730  Biso   1.000  H
  C201     1.0000 0.37390  0.12077  0.85080  Biso   1.000  C
  C202     1.0000 0.40146  0.07650  0.83092  Biso   1.000  C
  H165     1.0000 0.41770  0.04890  0.84770  Biso   1.000  H
  C203     1.0000 0.40480  0.07349  0.78650  Biso   1.000  C
  H166     1.0000 0.42330  0.04370  0.77390  Biso   1.000  H
  C204     1.0000 0.36870  0.44740  0.64180  Biso   1.000  C
  H167     1.0000 0.40400  0.45370  0.63060  Biso   1.000  H
  C205     1.0000 0.33430  0.48740  0.65573  Biso   1.000  C
  H168     1.0000 0.34050  0.52550  0.65560  Biso   1.000  H
  C206     1.0000 0.29650  0.40560  0.66302  Biso   1.000  C
  H169     1.0000 0.27060  0.37820  0.66930  Biso   1.000  H
  C207     1.0000 0.23860  0.48580  0.68950  Biso   1.000  C
  C208     1.0000 0.22300  0.48010  0.73370  Biso   1.000  C
  N37      1.0000 0.43705  0.13335  0.69159  Biso   1.000  N
  N38      1.0000 0.34506  0.39627  0.64632  Biso   1.000  N
  N39      1.0000 0.28870  0.46031  0.67005  Biso   1.000  N
  O49      1.0000 0.51456  0.00668  0.68426  Biso   1.000  O
  O50      1.0000 0.46343  0.05090  0.63589  Biso   1.000  O
  O51      1.0000 0.40317  0.20882  0.63267  Biso   1.000  O
  O52      1.0000 0.40387  0.27810  0.67895  Biso   1.000  O
  Zn14     1.0000 0.87589  0.82245  0.12783  Biso   1.000  Zn
  C209     1.0000 0.98813  0.54816  0.17220  Biso   1.000  C
  C210     1.0000 0.98610  0.59830  0.20141  Biso   1.000  C
  H170     1.0000 0.98440  0.58620  0.23120  Biso   1.000  H
  H171     1.0000 0.01970  0.62000  0.19770  Biso   1.000  H
  C211     1.0000 0.91468  0.72837  0.16888  Biso   1.000  C
  C212     1.0000 0.94450  0.69225  0.20103  Biso   1.000  C
  H172     1.0000 0.98390  0.70110  0.20060  Biso   1.000  H
  H173     1.0000 0.93060  0.70010  0.22980  Biso   1.000  H
  C213     1.0000 0.88556  0.61078  0.21130  Biso   1.000  C
  H174     1.0000 0.88210  0.57210  0.20290  Biso   1.000  H
  H175     1.0000 0.85410  0.63050  0.19910  Biso   1.000  H
  C214     1.0000 0.88126  0.61394  0.26025  Biso   1.000  C
  C215     1.0000 0.85400  0.65790  0.28025  Biso   1.000  C
  H176     1.0000 0.83750  0.68530  0.26340  Biso   1.000  H
  C216     1.0000 0.85090  0.66140  0.32471  Biso   1.000  C
  H177     1.0000 0.83300  0.69160  0.33730  Biso   1.000  H
  C217     1.0000 0.87390  0.62077  0.35080  Biso   1.000  C
  C218     1.0000 0.90146  0.57650  0.33092  Biso   1.000  C
  H178     1.0000 0.91770  0.54890  0.34770  Biso   1.000  H
  C219     1.0000 0.90480  0.57349  0.28650  Biso   1.000  C
  H179     1.0000 0.92330  0.54370  0.27390  Biso   1.000  H
  C220     1.0000 0.86870  0.94740  0.14180  Biso   1.000  C
  H180     1.0000 0.90400  0.95370  0.13060  Biso   1.000  H
  C221     1.0000 0.83430  0.98740  0.15573  Biso   1.000  C
  H181     1.0000 0.84050  0.02550  0.15560  Biso   1.000  H
  C222     1.0000 0.79650  0.90560  0.16302  Biso   1.000  C
  H182     1.0000 0.77060  0.87820  0.16930  Biso   1.000  H
  C223     1.0000 0.73860  0.98580  0.18950  Biso   1.000  C
  C224     1.0000 0.72300  0.98010  0.23370  Biso   1.000  C
  N40      1.0000 0.93705  0.63335  0.19159  Biso   1.000  N
  N41      1.0000 0.84506  0.89627  0.14632  Biso   1.000  N
  N42      1.0000 0.78870  0.96031  0.17005  Biso   1.000  N
  O53      1.0000 0.01456  0.50668  0.18426  Biso   1.000  O
  O54      1.0000 0.96343  0.55090  0.13589  Biso   1.000  O
  O55      1.0000 0.90317  0.70882  0.13267  Biso   1.000  O
  O56      1.0000 0.90387  0.77810  0.17895  Biso   1.000  O
  Zn15     1.0000 0.12411  0.67755  0.12783  Biso   1.000  Zn
  C225     1.0000 0.01187  0.95184  0.17220  Biso   1.000  C
  C226     1.0000 0.01390  0.90170  0.20141  Biso   1.000  C
  H183     1.0000 0.01560  0.91380  0.23120  Biso   1.000  H
  H184     1.0000 0.98030  0.88000  0.19770  Biso   1.000  H
  C227     1.0000 0.08532  0.77163  0.16888  Biso   1.000  C
  C228     1.0000 0.05550  0.80775  0.20103  Biso   1.000  C
  H185     1.0000 0.01610  0.79890  0.20060  Biso   1.000  H
  H186     1.0000 0.06940  0.79990  0.22980  Biso   1.000  H
  C229     1.0000 0.11444  0.88922  0.21130  Biso   1.000  C
  H187     1.0000 0.11790  0.92790  0.20290  Biso   1.000  H
  H188     1.0000 0.14590  0.86950  0.19910  Biso   1.000  H
  C230     1.0000 0.11874  0.88606  0.26025  Biso   1.000  C
  C231     1.0000 0.14600  0.84210  0.28025  Biso   1.000  C
  H189     1.0000 0.16250  0.81470  0.26340  Biso   1.000  H
  C232     1.0000 0.14910  0.83860  0.32471  Biso   1.000  C
  H190     1.0000 0.16700  0.80840  0.33730  Biso   1.000  H
  C233     1.0000 0.12610  0.87923  0.35080  Biso   1.000  C
  C234     1.0000 0.09854  0.92350  0.33092  Biso   1.000  C
  H191     1.0000 0.08230  0.95110  0.34770  Biso   1.000  H
  C235     1.0000 0.09520  0.92651  0.28650  Biso   1.000  C
  H192     1.0000 0.07670  0.95630  0.27390  Biso   1.000  H
  C236     1.0000 0.13130  0.55260  0.14180  Biso   1.000  C
  H193     1.0000 0.09600  0.54630  0.13060  Biso   1.000  H
  C237     1.0000 0.16570  0.51260  0.15573  Biso   1.000  C
  H194     1.0000 0.15950  0.47450  0.15560  Biso   1.000  H
  C238     1.0000 0.20350  0.59440  0.16302  Biso   1.000  C
  H195     1.0000 0.22940  0.62180  0.16930  Biso   1.000  H
  C239     1.0000 0.26140  0.51420  0.18950  Biso   1.000  C
  C240     1.0000 0.27700  0.51990  0.23370  Biso   1.000  C
  N43      1.0000 0.06295  0.86665  0.19159  Biso   1.000  N
  N44      1.0000 0.15494  0.60373  0.14632  Biso   1.000  N
  N45      1.0000 0.21130  0.53969  0.17005  Biso   1.000  N
  O57      1.0000 0.98544  0.99332  0.18426  Biso   1.000  O
  O58      1.0000 0.03657  0.94910  0.13589  Biso   1.000  O
  O59      1.0000 0.09683  0.79118  0.13267  Biso   1.000  O
  O60      1.0000 0.09613  0.72190  0.17895  Biso   1.000  O
  Zn16     1.0000 0.62411  0.17755  0.62783  Biso   1.000  Zn
  C241     1.0000 0.51187  0.45184  0.67220  Biso   1.000  C
  C242     1.0000 0.51390  0.40170  0.70141  Biso   1.000  C
  H196     1.0000 0.51560  0.41380  0.73120  Biso   1.000  H
  H197     1.0000 0.48030  0.38000  0.69770  Biso   1.000  H
  C243     1.0000 0.58532  0.27163  0.66888  Biso   1.000  C
  C244     1.0000 0.55550  0.30775  0.70103  Biso   1.000  C
  H198     1.0000 0.51610  0.29890  0.70060  Biso   1.000  H
  H199     1.0000 0.56940  0.29990  0.72980  Biso   1.000  H
  C245     1.0000 0.61444  0.38922  0.71130  Biso   1.000  C
  H200     1.0000 0.61790  0.42790  0.70290  Biso   1.000  H
  H201     1.0000 0.64590  0.36950  0.69910  Biso   1.000  H
  C246     1.0000 0.61874  0.38606  0.76025  Biso   1.000  C
  C247     1.0000 0.64600  0.34210  0.78025  Biso   1.000  C
  H202     1.0000 0.66250  0.31470  0.76340  Biso   1.000  H
  C248     1.0000 0.64910  0.33860  0.82471  Biso   1.000  C
  H203     1.0000 0.66700  0.30840  0.83730  Biso   1.000  H
  C249     1.0000 0.62610  0.37923  0.85080  Biso   1.000  C
  C250     1.0000 0.59854  0.42350  0.83092  Biso   1.000  C
  H204     1.0000 0.58230  0.45110  0.84770  Biso   1.000  H
  C251     1.0000 0.59520  0.42651  0.78650  Biso   1.000  C
  H205     1.0000 0.57670  0.45630  0.77390  Biso   1.000  H
  C252     1.0000 0.63130  0.05260  0.64180  Biso   1.000  C
  H206     1.0000 0.59600  0.04630  0.63060  Biso   1.000  H
  C253     1.0000 0.66570  0.01260  0.65573  Biso   1.000  C
  H207     1.0000 0.65950  0.97450  0.65560  Biso   1.000  H
  C254     1.0000 0.70350  0.09440  0.66302  Biso   1.000  C
  H208     1.0000 0.72940  0.12180  0.66930  Biso   1.000  H
  C255     1.0000 0.76140  0.01420  0.68950  Biso   1.000  C
  C256     1.0000 0.77700  0.01990  0.73370  Biso   1.000  C
  N46      1.0000 0.56295  0.36665  0.69159  Biso   1.000  N
  N47      1.0000 0.65494  0.10373  0.64632  Biso   1.000  N
  N48      1.0000 0.71130  0.03969  0.67005  Biso   1.000  N
  O61      1.0000 0.48544  0.49332  0.68426  Biso   1.000  O
  O62      1.0000 0.53657  0.44910  0.63589  Biso   1.000  O
  O63      1.0000 0.59683  0.29118  0.63267  Biso   1.000  O
  O64      1.0000 0.59613  0.22190  0.67895  Biso   1.000  O
  Zn17     1.0000 0.42755  0.87411  0.87783  Biso   1.000  Zn
  C257     1.0000 0.70184  0.76187  0.92220  Biso   1.000  C
  C258     1.0000 0.65170  0.76390  0.95141  Biso   1.000  C
  H209     1.0000 0.66380  0.76560  0.98120  Biso   1.000  H
  H210     1.0000 0.63000  0.73030  0.94770  Biso   1.000  H
  C259     1.0000 0.52163  0.83532  0.91888  Biso   1.000  C
  C260     1.0000 0.55775  0.80550  0.95103  Biso   1.000  C
  H211     1.0000 0.54890  0.76610  0.95060  Biso   1.000  H
  H212     1.0000 0.54990  0.81940  0.97980  Biso   1.000  H
  C261     1.0000 0.63922  0.86444  0.96130  Biso   1.000  C
  H213     1.0000 0.67790  0.86790  0.95290  Biso   1.000  H
  H214     1.0000 0.61950  0.89590  0.94910  Biso   1.000  H
  C262     1.0000 0.63606  0.86874  0.01025  Biso   1.000  C
  C263     1.0000 0.59210  0.89600  0.03025  Biso   1.000  C
  H215     1.0000 0.56470  0.91250  0.01340  Biso   1.000  H
  C264     1.0000 0.58860  0.89910  0.07471  Biso   1.000  C
  H216     1.0000 0.55840  0.91700  0.08730  Biso   1.000  H
  C265     1.0000 0.62923  0.87610  0.10080  Biso   1.000  C
  C266     1.0000 0.67350  0.84854  0.08092  Biso   1.000  C
  H217     1.0000 0.70110  0.83230  0.09770  Biso   1.000  H
  C267     1.0000 0.67651  0.84520  0.03650  Biso   1.000  C
  H218     1.0000 0.70630  0.82670  0.02390  Biso   1.000  H
  C268     1.0000 0.30260  0.88130  0.89180  Biso   1.000  C
  H219     1.0000 0.29630  0.84600  0.88060  Biso   1.000  H
  C269     1.0000 0.26260  0.91570  0.90573  Biso   1.000  C
  H220     1.0000 0.22450  0.90950  0.90560  Biso   1.000  H
  C270     1.0000 0.34440  0.95350  0.91302  Biso   1.000  C
  H221     1.0000 0.37180  0.97940  0.91930  Biso   1.000  H
  C271     1.0000 0.26420  0.01140  0.93950  Biso   1.000  C
  C272     1.0000 0.26990  0.02700  0.98370  Biso   1.000  C
  N49      1.0000 0.61665  0.81295  0.94159  Biso   1.000  N
  N50      1.0000 0.35373  0.90494  0.89632  Biso   1.000  N
  N51      1.0000 0.28969  0.96130  0.92005  Biso   1.000  N
  O65      1.0000 0.74332  0.73544  0.93426  Biso   1.000  O
  O66      1.0000 0.69910  0.78657  0.88589  Biso   1.000  O
  O67      1.0000 0.54118  0.84683  0.88267  Biso   1.000  O
  O68      1.0000 0.47190  0.84613  0.92895  Biso   1.000  O
  Zn18     1.0000 0.92755  0.37411  0.37783  Biso   1.000  Zn
  C273     1.0000 0.20184  0.26187  0.42220  Biso   1.000  C
  C274     1.0000 0.15170  0.26390  0.45141  Biso   1.000  C
  H222     1.0000 0.16380  0.26560  0.48120  Biso   1.000  H
  H223     1.0000 0.13000  0.23030  0.44770  Biso   1.000  H
  C275     1.0000 0.02163  0.33532  0.41888  Biso   1.000  C
  C276     1.0000 0.05775  0.30550  0.45103  Biso   1.000  C
  H224     1.0000 0.04890  0.26610  0.45060  Biso   1.000  H
  H225     1.0000 0.04990  0.31940  0.47980  Biso   1.000  H
  C277     1.0000 0.13922  0.36444  0.46130  Biso   1.000  C
  H226     1.0000 0.17790  0.36790  0.45290  Biso   1.000  H
  H227     1.0000 0.11950  0.39590  0.44910  Biso   1.000  H
  C278     1.0000 0.13606  0.36874  0.51025  Biso   1.000  C
  C279     1.0000 0.09210  0.39600  0.53025  Biso   1.000  C
  H228     1.0000 0.06470  0.41250  0.51340  Biso   1.000  H
  C280     1.0000 0.08860  0.39910  0.57471  Biso   1.000  C
  H229     1.0000 0.05840  0.41700  0.58730  Biso   1.000  H
  C281     1.0000 0.12923  0.37610  0.60080  Biso   1.000  C
  C282     1.0000 0.17350  0.34854  0.58092  Biso   1.000  C
  H230     1.0000 0.20110  0.33230  0.59770  Biso   1.000  H
  C283     1.0000 0.17651  0.34520  0.53650  Biso   1.000  C
  H231     1.0000 0.20630  0.32670  0.52390  Biso   1.000  H
  C284     1.0000 0.80260  0.38130  0.39180  Biso   1.000  C
  H232     1.0000 0.79630  0.34600  0.38060  Biso   1.000  H
  C285     1.0000 0.76260  0.41570  0.40573  Biso   1.000  C
  H233     1.0000 0.72450  0.40950  0.40560  Biso   1.000  H
  C286     1.0000 0.84440  0.45350  0.41302  Biso   1.000  C
  H234     1.0000 0.87180  0.47940  0.41930  Biso   1.000  H
  C287     1.0000 0.76420  0.51140  0.43950  Biso   1.000  C
  C288     1.0000 0.76990  0.52700  0.48370  Biso   1.000  C
  N52      1.0000 0.11665  0.31295  0.44159  Biso   1.000  N
  N53      1.0000 0.85373  0.40494  0.39632  Biso   1.000  N
  N54      1.0000 0.78969  0.46130  0.42005  Biso   1.000  N
  O69      1.0000 0.24332  0.23544  0.43426  Biso   1.000  O
  O70      1.0000 0.19910  0.28657  0.38589  Biso   1.000  O
  O71      1.0000 0.04118  0.34683  0.38267  Biso   1.000  O
  O72      1.0000 0.97190  0.34613  0.42895  Biso   1.000  O
  Zn19     1.0000 0.07245  0.12589  0.37783  Biso   1.000  Zn
  C289     1.0000 0.79816  0.23813  0.42220  Biso   1.000  C
  C290     1.0000 0.84830  0.23610  0.45141  Biso   1.000  C
  H235     1.0000 0.83620  0.23440  0.48120  Biso   1.000  H
  H236     1.0000 0.87000  0.26970  0.44770  Biso   1.000  H
  C291     1.0000 0.97837  0.16468  0.41888  Biso   1.000  C
  C292     1.0000 0.94225  0.19450  0.45103  Biso   1.000  C
  H237     1.0000 0.95110  0.23390  0.45060  Biso   1.000  H
  H238     1.0000 0.95010  0.18060  0.47980  Biso   1.000  H
  C293     1.0000 0.86078  0.13556  0.46130  Biso   1.000  C
  H239     1.0000 0.82210  0.13210  0.45290  Biso   1.000  H
  H240     1.0000 0.88050  0.10410  0.44910  Biso   1.000  H
  C294     1.0000 0.86394  0.13126  0.51025  Biso   1.000  C
  C295     1.0000 0.90790  0.10400  0.53025  Biso   1.000  C
  H241     1.0000 0.93530  0.08750  0.51340  Biso   1.000  H
  C296     1.0000 0.91140  0.10090  0.57471  Biso   1.000  C
  H242     1.0000 0.94160  0.08300  0.58730  Biso   1.000  H
  C297     1.0000 0.87077  0.12390  0.60080  Biso   1.000  C
  C298     1.0000 0.82650  0.15146  0.58092  Biso   1.000  C
  H243     1.0000 0.79890  0.16770  0.59770  Biso   1.000  H
  C299     1.0000 0.82349  0.15480  0.53650  Biso   1.000  C
  H244     1.0000 0.79370  0.17330  0.52390  Biso   1.000  H
  C300     1.0000 0.19740  0.11870  0.39180  Biso   1.000  C
  H245     1.0000 0.20370  0.15400  0.38060  Biso   1.000  H
  C301     1.0000 0.23740  0.08430  0.40573  Biso   1.000  C
  H246     1.0000 0.27550  0.09050  0.40560  Biso   1.000  H
  C302     1.0000 0.15560  0.04650  0.41302  Biso   1.000  C
  H247     1.0000 0.12820  0.02060  0.41930  Biso   1.000  H
  C303     1.0000 0.23580  0.98860  0.43950  Biso   1.000  C
  C304     1.0000 0.23010  0.97300  0.48370  Biso   1.000  C
  N55      1.0000 0.88335  0.18705  0.44159  Biso   1.000  N
  N56      1.0000 0.14627  0.09506  0.39632  Biso   1.000  N
  N57      1.0000 0.21031  0.03870  0.42005  Biso   1.000  N
  O73      1.0000 0.75668  0.26456  0.43426  Biso   1.000  O
  O74      1.0000 0.80090  0.21343  0.38589  Biso   1.000  O
  O75      1.0000 0.95882  0.15317  0.38267  Biso   1.000  O
  O76      1.0000 0.02810  0.15387  0.42895  Biso   1.000  O
  Zn20     1.0000 0.57245  0.62589  0.87783  Biso   1.000  Zn
  C305     1.0000 0.29816  0.73813  0.92220  Biso   1.000  C
  C306     1.0000 0.34830  0.73610  0.95141  Biso   1.000  C
  H248     1.0000 0.33620  0.73440  0.98120  Biso   1.000  H
  H249     1.0000 0.37000  0.76970  0.94770  Biso   1.000  H
  C307     1.0000 0.47837  0.66468  0.91888  Biso   1.000  C
  C308     1.0000 0.44225  0.69450  0.95103  Biso   1.000  C
  H250     1.0000 0.45110  0.73390  0.95060  Biso   1.000  H
  H251     1.0000 0.45010  0.68060  0.97980  Biso   1.000  H
  C309     1.0000 0.36078  0.63556  0.96130  Biso   1.000  C
  H252     1.0000 0.32210  0.63210  0.95290  Biso   1.000  H
  H253     1.0000 0.38050  0.60410  0.94910  Biso   1.000  H
  C310     1.0000 0.36394  0.63126  0.01025  Biso   1.000  C
  C311     1.0000 0.40790  0.60400  0.03025  Biso   1.000  C
  H254     1.0000 0.43530  0.58750  0.01340  Biso   1.000  H
  C312     1.0000 0.41140  0.60090  0.07471  Biso   1.000  C
  H255     1.0000 0.44160  0.58300  0.08730  Biso   1.000  H
  C313     1.0000 0.37077  0.62390  0.10080  Biso   1.000  C
  C314     1.0000 0.32650  0.65146  0.08092  Biso   1.000  C
  H256     1.0000 0.29890  0.66770  0.09770  Biso   1.000  H
  C315     1.0000 0.32349  0.65480  0.03650  Biso   1.000  C
  H257     1.0000 0.29370  0.67330  0.02390  Biso   1.000  H
  C316     1.0000 0.69740  0.61870  0.89180  Biso   1.000  C
  H258     1.0000 0.70370  0.65400  0.88060  Biso   1.000  H
  C317     1.0000 0.73740  0.58430  0.90573  Biso   1.000  C
  H259     1.0000 0.77550  0.59050  0.90560  Biso   1.000  H
  C318     1.0000 0.65560  0.54650  0.91302  Biso   1.000  C
  H260     1.0000 0.62820  0.52060  0.91930  Biso   1.000  H
  C319     1.0000 0.73580  0.48860  0.93950  Biso   1.000  C
  C320     1.0000 0.73010  0.47300  0.98370  Biso   1.000  C
  N58      1.0000 0.38335  0.68705  0.94159  Biso   1.000  N
  N59      1.0000 0.64627  0.59506  0.89632  Biso   1.000  N
  N60      1.0000 0.71031  0.53870  0.92005  Biso   1.000  N
  O77      1.0000 0.25668  0.76456  0.93426  Biso   1.000  O
  O78      1.0000 0.30090  0.71343  0.88589  Biso   1.000  O
  O79      1.0000 0.45882  0.65317  0.88267  Biso   1.000  O
  O80      1.0000 0.52810  0.65387  0.92895  Biso   1.000  O
  Zn21     1.0000 0.87589  0.67755  0.62783  Biso   1.000  Zn
  C321     1.0000 0.98813  0.95184  0.67220  Biso   1.000  C
  C322     1.0000 0.98610  0.90170  0.70141  Biso   1.000  C
  H261     1.0000 0.98440  0.91380  0.73120  Biso   1.000  H
  H262     1.0000 0.01970  0.88000  0.69770  Biso   1.000  H
  C323     1.0000 0.91468  0.77163  0.66888  Biso   1.000  C
  C324     1.0000 0.94450  0.80775  0.70103  Biso   1.000  C
  H263     1.0000 0.98390  0.79890  0.70060  Biso   1.000  H
  H264     1.0000 0.93060  0.79990  0.72980  Biso   1.000  H
  C325     1.0000 0.88556  0.88922  0.71130  Biso   1.000  C
  H265     1.0000 0.88210  0.92790  0.70290  Biso   1.000  H
  H266     1.0000 0.85410  0.86950  0.69910  Biso   1.000  H
  C326     1.0000 0.88126  0.88606  0.76025  Biso   1.000  C
  C327     1.0000 0.85400  0.84210  0.78025  Biso   1.000  C
  H267     1.0000 0.83750  0.81470  0.76340  Biso   1.000  H
  C328     1.0000 0.85090  0.83860  0.82471  Biso   1.000  C
  H268     1.0000 0.83300  0.80840  0.83730  Biso   1.000  H
  C329     1.0000 0.87390  0.87923  0.85080  Biso   1.000  C
  C330     1.0000 0.90146  0.92350  0.83092  Biso   1.000  C
  H269     1.0000 0.91770  0.95110  0.84770  Biso   1.000  H
  C331     1.0000 0.90480  0.92651  0.78650  Biso   1.000  C
  H270     1.0000 0.92330  0.95630  0.77390  Biso   1.000  H
  C332     1.0000 0.86870  0.55260  0.64180  Biso   1.000  C
  H271     1.0000 0.90400  0.54630  0.63060  Biso   1.000  H
  C333     1.0000 0.83430  0.51260  0.65573  Biso   1.000  C
  H272     1.0000 0.84050  0.47450  0.65560  Biso   1.000  H
  C334     1.0000 0.79650  0.59440  0.66302  Biso   1.000  C
  H273     1.0000 0.77060  0.62180  0.66930  Biso   1.000  H
  C335     1.0000 0.73860  0.51420  0.68950  Biso   1.000  C
  C336     1.0000 0.72300  0.51990  0.73370  Biso   1.000  C
  N61      1.0000 0.93705  0.86665  0.69159  Biso   1.000  N
  N62      1.0000 0.84506  0.60373  0.64632  Biso   1.000  N
  N63      1.0000 0.78870  0.53969  0.67005  Biso   1.000  N
  O81      1.0000 0.01456  0.99332  0.68426  Biso   1.000  O
  O82      1.0000 0.96343  0.94910  0.63589  Biso   1.000  O
  O83      1.0000 0.90317  0.79118  0.63267  Biso   1.000  O
  O84      1.0000 0.90387  0.72190  0.67895  Biso   1.000  O
  Zn22     1.0000 0.37589  0.17755  0.12783  Biso   1.000  Zn
  C337     1.0000 0.48813  0.45184  0.17220  Biso   1.000  C
  C338     1.0000 0.48610  0.40170  0.20141  Biso   1.000  C
  H274     1.0000 0.48440  0.41380  0.23120  Biso   1.000  H
  H275     1.0000 0.51970  0.38000  0.19770  Biso   1.000  H
  C339     1.0000 0.41468  0.27163  0.16888  Biso   1.000  C
  C340     1.0000 0.44450  0.30775  0.20103  Biso   1.000  C
  H276     1.0000 0.48390  0.29890  0.20060  Biso   1.000  H
  H277     1.0000 0.43060  0.29990  0.22980  Biso   1.000  H
  C341     1.0000 0.38556  0.38922  0.21130  Biso   1.000  C
  H278     1.0000 0.38210  0.42790  0.20290  Biso   1.000  H
  H279     1.0000 0.35410  0.36950  0.19910  Biso   1.000  H
  C342     1.0000 0.38126  0.38606  0.26025  Biso   1.000  C
  C343     1.0000 0.35400  0.34210  0.28025  Biso   1.000  C
  H280     1.0000 0.33750  0.31470  0.26340  Biso   1.000  H
  C344     1.0000 0.35090  0.33860  0.32471  Biso   1.000  C
  H281     1.0000 0.33300  0.30840  0.33730  Biso   1.000  H
  C345     1.0000 0.37390  0.37923  0.35080  Biso   1.000  C
  C346     1.0000 0.40146  0.42350  0.33092  Biso   1.000  C
  H282     1.0000 0.41770  0.45110  0.34770  Biso   1.000  H
  C347     1.0000 0.40480  0.42651  0.28650  Biso   1.000  C
  H283     1.0000 0.42330  0.45630  0.27390  Biso   1.000  H
  C348     1.0000 0.36870  0.05260  0.14180  Biso   1.000  C
  H284     1.0000 0.40400  0.04630  0.13060  Biso   1.000  H
  C349     1.0000 0.33430  0.01260  0.15573  Biso   1.000  C
  H285     1.0000 0.34050  0.97450  0.15560  Biso   1.000  H
  C350     1.0000 0.29650  0.09440  0.16302  Biso   1.000  C
  H286     1.0000 0.27060  0.12180  0.16930  Biso   1.000  H
  C351     1.0000 0.23860  0.01420  0.18950  Biso   1.000  C
  C352     1.0000 0.22300  0.01990  0.23370  Biso   1.000  C
  N64      1.0000 0.43705  0.36665  0.19159  Biso   1.000  N
  N65      1.0000 0.34506  0.10373  0.14632  Biso   1.000  N
  N66      1.0000 0.28870  0.03969  0.17005  Biso   1.000  N
  O85      1.0000 0.51456  0.49332  0.18426  Biso   1.000  O
  O86      1.0000 0.46343  0.44910  0.13589  Biso   1.000  O
  O87      1.0000 0.40317  0.29118  0.13267  Biso   1.000  O
  O88      1.0000 0.40387  0.22190  0.17895  Biso   1.000  O
  Zn23     1.0000 0.62411  0.32245  0.12783  Biso   1.000  Zn
  C353     1.0000 0.51187  0.04816  0.17220  Biso   1.000  C
  C354     1.0000 0.51390  0.09830  0.20141  Biso   1.000  C
  H287     1.0000 0.51560  0.08620  0.23120  Biso   1.000  H
  H288     1.0000 0.48030  0.12000  0.19770  Biso   1.000  H
  C355     1.0000 0.58532  0.22837  0.16888  Biso   1.000  C
  C356     1.0000 0.55550  0.19225  0.20103  Biso   1.000  C
  H289     1.0000 0.51610  0.20110  0.20060  Biso   1.000  H
  H290     1.0000 0.56940  0.20010  0.22980  Biso   1.000  H
  C357     1.0000 0.61444  0.11078  0.21130  Biso   1.000  C
  H291     1.0000 0.61790  0.07210  0.20290  Biso   1.000  H
  H292     1.0000 0.64590  0.13050  0.19910  Biso   1.000  H
  C358     1.0000 0.61874  0.11394  0.26025  Biso   1.000  C
  C359     1.0000 0.64600  0.15790  0.28025  Biso   1.000  C
  H293     1.0000 0.66250  0.18530  0.26340  Biso   1.000  H
  C360     1.0000 0.64910  0.16140  0.32471  Biso   1.000  C
  H294     1.0000 0.66700  0.19160  0.33730  Biso   1.000  H
  C361     1.0000 0.62610  0.12077  0.35080  Biso   1.000  C
  C362     1.0000 0.59854  0.07650  0.33092  Biso   1.000  C
  H295     1.0000 0.58230  0.04890  0.34770  Biso   1.000  H
  C363     1.0000 0.59520  0.07349  0.28650  Biso   1.000  C
  H296     1.0000 0.57670  0.04370  0.27390  Biso   1.000  H
  C364     1.0000 0.63130  0.44740  0.14180  Biso   1.000  C
  H297     1.0000 0.59600  0.45370  0.13060  Biso   1.000  H
  C365     1.0000 0.66570  0.48740  0.15573  Biso   1.000  C
  H298     1.0000 0.65950  0.52550  0.15560  Biso   1.000  H
  C366     1.0000 0.70350  0.40560  0.16302  Biso   1.000  C
  H299     1.0000 0.72940  0.37820  0.16930  Biso   1.000  H
  C367     1.0000 0.76140  0.48580  0.18950  Biso   1.000  C
  C368     1.0000 0.77700  0.48010  0.23370  Biso   1.000  C
  N67      1.0000 0.56295  0.13335  0.19159  Biso   1.000  N
  N68      1.0000 0.65494  0.39627  0.14632  Biso   1.000  N
  N69      1.0000 0.71130  0.46031  0.17005  Biso   1.000  N
  O89      1.0000 0.48544  0.00668  0.18426  Biso   1.000  O
  O90      1.0000 0.53657  0.05090  0.13589  Biso   1.000  O
  O91      1.0000 0.59683  0.20882  0.13267  Biso   1.000  O
  O92      1.0000 0.59613  0.27810  0.17895  Biso   1.000  O
  Zn24     1.0000 0.12411  0.82245  0.62783  Biso   1.000  Zn
  C369     1.0000 0.01187  0.54816  0.67220  Biso   1.000  C
  C370     1.0000 0.01390  0.59830  0.70141  Biso   1.000  C
  H300     1.0000 0.01560  0.58620  0.73120  Biso   1.000  H
  H301     1.0000 0.98030  0.62000  0.69770  Biso   1.000  H
  C371     1.0000 0.08532  0.72837  0.66888  Biso   1.000  C
  C372     1.0000 0.05550  0.69225  0.70103  Biso   1.000  C
  H302     1.0000 0.01610  0.70110  0.70060  Biso   1.000  H
  H303     1.0000 0.06940  0.70010  0.72980  Biso   1.000  H
  C373     1.0000 0.11444  0.61078  0.71130  Biso   1.000  C
  H304     1.0000 0.11790  0.57210  0.70290  Biso   1.000  H
  H305     1.0000 0.14590  0.63050  0.69910  Biso   1.000  H
  C374     1.0000 0.11874  0.61394  0.76025  Biso   1.000  C
  C375     1.0000 0.14600  0.65790  0.78025  Biso   1.000  C
  H306     1.0000 0.16250  0.68530  0.76340  Biso   1.000  H
  C376     1.0000 0.14910  0.66140  0.82471  Biso   1.000  C
  H307     1.0000 0.16700  0.69160  0.83730  Biso   1.000  H
  C377     1.0000 0.12610  0.62077  0.85080  Biso   1.000  C
  C378     1.0000 0.09854  0.57650  0.83092  Biso   1.000  C
  H308     1.0000 0.08230  0.54890  0.84770  Biso   1.000  H
  C379     1.0000 0.09520  0.57349  0.78650  Biso   1.000  C
  H309     1.0000 0.07670  0.54370  0.77390  Biso   1.000  H
  C380     1.0000 0.13130  0.94740  0.64180  Biso   1.000  C
  H310     1.0000 0.09600  0.95370  0.63060  Biso   1.000  H
  C381     1.0000 0.16570  0.98740  0.65573  Biso   1.000  C
  H311     1.0000 0.15950  0.02550  0.65560  Biso   1.000  H
  C382     1.0000 0.20350  0.90560  0.66302  Biso   1.000  C
  H312     1.0000 0.22940  0.87820  0.66930  Biso   1.000  H
  C383     1.0000 0.26140  0.98580  0.68950  Biso   1.000  C
  C384     1.0000 0.27700  0.98010  0.73370  Biso   1.000  C
  N70      1.0000 0.06295  0.63335  0.69159  Biso   1.000  N
  N71      1.0000 0.15494  0.89627  0.64632  Biso   1.000  N
  N72      1.0000 0.21130  0.96031  0.67005  Biso   1.000  N
  O93      1.0000 0.98544  0.50668  0.68426  Biso   1.000  O
  O94      1.0000 0.03657  0.55090  0.63589  Biso   1.000  O
  O95      1.0000 0.09683  0.70882  0.63267  Biso   1.000  O
  O96      1.0000 0.09613  0.77810  0.67895  Biso   1.000  O
  Zn25     1.0000 0.07245  0.87411  0.12217  Biso   1.000  Zn
  C385     1.0000 0.79816  0.76187  0.07780  Biso   1.000  C
  C386     1.0000 0.84830  0.76390  0.04859  Biso   1.000  C
  H313     1.0000 0.83620  0.76560  0.01880  Biso   1.000  H
  H314     1.0000 0.87000  0.73030  0.05230  Biso   1.000  H
  C387     1.0000 0.97837  0.83532  0.08112  Biso   1.000  C
  C388     1.0000 0.94225  0.80550  0.04897  Biso   1.000  C
  H315     1.0000 0.95110  0.76610  0.04940  Biso   1.000  H
  H316     1.0000 0.95010  0.81940  0.02020  Biso   1.000  H
  C389     1.0000 0.86078  0.86444  0.03870  Biso   1.000  C
  H317     1.0000 0.82210  0.86790  0.04710  Biso   1.000  H
  H318     1.0000 0.88050  0.89590  0.05090  Biso   1.000  H
  C390     1.0000 0.86394  0.86874  0.98975  Biso   1.000  C
  C391     1.0000 0.90790  0.89600  0.96975  Biso   1.000  C
  H319     1.0000 0.93530  0.91250  0.98660  Biso   1.000  H
  C392     1.0000 0.91140  0.89910  0.92529  Biso   1.000  C
  H320     1.0000 0.94160  0.91700  0.91270  Biso   1.000  H
  C393     1.0000 0.87077  0.87610  0.89920  Biso   1.000  C
  C394     1.0000 0.82650  0.84854  0.91908  Biso   1.000  C
  H321     1.0000 0.79890  0.83230  0.90230  Biso   1.000  H
  C395     1.0000 0.82349  0.84520  0.96350  Biso   1.000  C
  H322     1.0000 0.79370  0.82670  0.97610  Biso   1.000  H
  C396     1.0000 0.19740  0.88130  0.10820  Biso   1.000  C
  H323     1.0000 0.20370  0.84600  0.11940  Biso   1.000  H
  C397     1.0000 0.23740  0.91570  0.09427  Biso   1.000  C
  H324     1.0000 0.27550  0.90950  0.09440  Biso   1.000  H
  C398     1.0000 0.15560  0.95350  0.08698  Biso   1.000  C
  H325     1.0000 0.12820  0.97940  0.08070  Biso   1.000  H
  C399     1.0000 0.23580  0.01140  0.06050  Biso   1.000  C
  C400     1.0000 0.23010  0.02700  0.01630  Biso   1.000  C
  N73      1.0000 0.88335  0.81295  0.05841  Biso   1.000  N
  N74      1.0000 0.14627  0.90494  0.10368  Biso   1.000  N
  N75      1.0000 0.21031  0.96130  0.07995  Biso   1.000  N
  O97      1.0000 0.75668  0.73544  0.06574  Biso   1.000  O
  O98      1.0000 0.80090  0.78657  0.11411  Biso   1.000  O
  O99      1.0000 0.95882  0.84683  0.11733  Biso   1.000  O
  O100     1.0000 0.02810  0.84613  0.07105  Biso   1.000  O
  Zn26     1.0000 0.57245  0.37411  0.62216  Biso   1.000  Zn
  C401     1.0000 0.29816  0.26187  0.57780  Biso   1.000  C
  C402     1.0000 0.34830  0.26390  0.54859  Biso   1.000  C
  H326     1.0000 0.33620  0.26560  0.51880  Biso   1.000  H
  H327     1.0000 0.37000  0.23030  0.55230  Biso   1.000  H
  C403     1.0000 0.47837  0.33532  0.58112  Biso   1.000  C
  C404     1.0000 0.44225  0.30550  0.54897  Biso   1.000  C
  H328     1.0000 0.45110  0.26610  0.54940  Biso   1.000  H
  H329     1.0000 0.45010  0.31940  0.52020  Biso   1.000  H
  C405     1.0000 0.36078  0.36444  0.53870  Biso   1.000  C
  H330     1.0000 0.32210  0.36790  0.54710  Biso   1.000  H
  H331     1.0000 0.38050  0.39590  0.55090  Biso   1.000  H
  C406     1.0000 0.36394  0.36874  0.48975  Biso   1.000  C
  C407     1.0000 0.40790  0.39600  0.46975  Biso   1.000  C
  H332     1.0000 0.43530  0.41250  0.48660  Biso   1.000  H
  C408     1.0000 0.41140  0.39910  0.42529  Biso   1.000  C
  H333     1.0000 0.44160  0.41700  0.41270  Biso   1.000  H
  C409     1.0000 0.37077  0.37610  0.39920  Biso   1.000  C
  C410     1.0000 0.32650  0.34854  0.41908  Biso   1.000  C
  H334     1.0000 0.29890  0.33230  0.40230  Biso   1.000  H
  C411     1.0000 0.32349  0.34520  0.46350  Biso   1.000  C
  H335     1.0000 0.29370  0.32670  0.47610  Biso   1.000  H
  C412     1.0000 0.69740  0.38130  0.60820  Biso   1.000  C
  H336     1.0000 0.70370  0.34600  0.61940  Biso   1.000  H
  C413     1.0000 0.73740  0.41570  0.59427  Biso   1.000  C
  H337     1.0000 0.77550  0.40950  0.59440  Biso   1.000  H
  C414     1.0000 0.65560  0.45350  0.58698  Biso   1.000  C
  H338     1.0000 0.62820  0.47940  0.58070  Biso   1.000  H
  C415     1.0000 0.73580  0.51140  0.56050  Biso   1.000  C
  C416     1.0000 0.73010  0.52700  0.51630  Biso   1.000  C
  N76      1.0000 0.38335  0.31295  0.55841  Biso   1.000  N
  N77      1.0000 0.64627  0.40494  0.60368  Biso   1.000  N
  N78      1.0000 0.71031  0.46130  0.57995  Biso   1.000  N
  O101     1.0000 0.25668  0.23544  0.56574  Biso   1.000  O
  O102     1.0000 0.30090  0.28657  0.61411  Biso   1.000  O
  O103     1.0000 0.45882  0.34683  0.61733  Biso   1.000  O
  O104     1.0000 0.52810  0.34613  0.57105  Biso   1.000  O
  Zn27     1.0000 0.42755  0.12589  0.62216  Biso   1.000  Zn
  C417     1.0000 0.70184  0.23813  0.57780  Biso   1.000  C
  C418     1.0000 0.65170  0.23610  0.54859  Biso   1.000  C
  H339     1.0000 0.66380  0.23440  0.51880  Biso   1.000  H
  H340     1.0000 0.63000  0.26970  0.55230  Biso   1.000  H
  C419     1.0000 0.52163  0.16468  0.58112  Biso   1.000  C
  C420     1.0000 0.55775  0.19450  0.54897  Biso   1.000  C
  H341     1.0000 0.54890  0.23390  0.54940  Biso   1.000  H
  H342     1.0000 0.54990  0.18060  0.52020  Biso   1.000  H
  C421     1.0000 0.63922  0.13556  0.53870  Biso   1.000  C
  H343     1.0000 0.67790  0.13210  0.54710  Biso   1.000  H
  H344     1.0000 0.61950  0.10410  0.55090  Biso   1.000  H
  C422     1.0000 0.63606  0.13126  0.48975  Biso   1.000  C
  C423     1.0000 0.59210  0.10400  0.46975  Biso   1.000  C
  H345     1.0000 0.56470  0.08750  0.48660  Biso   1.000  H
  C424     1.0000 0.58860  0.10090  0.42529  Biso   1.000  C
  H346     1.0000 0.55840  0.08300  0.41270  Biso   1.000  H
  C425     1.0000 0.62923  0.12390  0.39920  Biso   1.000  C
  C426     1.0000 0.67350  0.15146  0.41908  Biso   1.000  C
  H347     1.0000 0.70110  0.16770  0.40230  Biso   1.000  H
  C427     1.0000 0.67651  0.15480  0.46350  Biso   1.000  C
  H348     1.0000 0.70630  0.17330  0.47610  Biso   1.000  H
  C428     1.0000 0.30260  0.11870  0.60820  Biso   1.000  C
  H349     1.0000 0.29630  0.15400  0.61940  Biso   1.000  H
  C429     1.0000 0.26260  0.08430  0.59427  Biso   1.000  C
  H350     1.0000 0.22450  0.09050  0.59440  Biso   1.000  H
  C430     1.0000 0.34440  0.04650  0.58698  Biso   1.000  C
  H351     1.0000 0.37180  0.02060  0.58070  Biso   1.000  H
  C431     1.0000 0.26420  0.98860  0.56050  Biso   1.000  C
  C432     1.0000 0.26990  0.97300  0.51630  Biso   1.000  C
  N79      1.0000 0.61665  0.18705  0.55841  Biso   1.000  N
  N80      1.0000 0.35373  0.09506  0.60368  Biso   1.000  N
  N81      1.0000 0.28969  0.03870  0.57995  Biso   1.000  N
  O105     1.0000 0.74332  0.26456  0.56574  Biso   1.000  O
  O106     1.0000 0.69910  0.21343  0.61411  Biso   1.000  O
  O107     1.0000 0.54118  0.15317  0.61733  Biso   1.000  O
  O108     1.0000 0.47190  0.15387  0.57105  Biso   1.000  O
  Zn28     1.0000 0.92755  0.62589  0.12217  Biso   1.000  Zn
  C433     1.0000 0.20184  0.73813  0.07780  Biso   1.000  C
  C434     1.0000 0.15170  0.73610  0.04859  Biso   1.000  C
  H352     1.0000 0.16380  0.73440  0.01880  Biso   1.000  H
  H353     1.0000 0.13000  0.76970  0.05230  Biso   1.000  H
  C435     1.0000 0.02163  0.66468  0.08112  Biso   1.000  C
  C436     1.0000 0.05775  0.69450  0.04897  Biso   1.000  C
  H354     1.0000 0.04890  0.73390  0.04940  Biso   1.000  H
  H355     1.0000 0.04990  0.68060  0.02020  Biso   1.000  H
  C437     1.0000 0.13922  0.63556  0.03870  Biso   1.000  C
  H356     1.0000 0.17790  0.63210  0.04710  Biso   1.000  H
  H357     1.0000 0.11950  0.60410  0.05090  Biso   1.000  H
  C438     1.0000 0.13606  0.63126  0.98975  Biso   1.000  C
  C439     1.0000 0.09210  0.60400  0.96975  Biso   1.000  C
  H358     1.0000 0.06470  0.58750  0.98660  Biso   1.000  H
  C440     1.0000 0.08860  0.60090  0.92529  Biso   1.000  C
  H359     1.0000 0.05840  0.58300  0.91270  Biso   1.000  H
  C441     1.0000 0.12923  0.62390  0.89920  Biso   1.000  C
  C442     1.0000 0.17350  0.65146  0.91908  Biso   1.000  C
  H360     1.0000 0.20110  0.66770  0.90230  Biso   1.000  H
  C443     1.0000 0.17651  0.65480  0.96350  Biso   1.000  C
  H361     1.0000 0.20630  0.67330  0.97610  Biso   1.000  H
  C444     1.0000 0.80260  0.61870  0.10820  Biso   1.000  C
  H362     1.0000 0.79630  0.65400  0.11940  Biso   1.000  H
  C445     1.0000 0.76260  0.58430  0.09427  Biso   1.000  C
  H363     1.0000 0.72450  0.59050  0.09440  Biso   1.000  H
  C446     1.0000 0.84440  0.54650  0.08698  Biso   1.000  C
  H364     1.0000 0.87180  0.52060  0.08070  Biso   1.000  H
  C447     1.0000 0.76420  0.48860  0.06050  Biso   1.000  C
  C448     1.0000 0.76990  0.47300  0.01630  Biso   1.000  C
  N82      1.0000 0.11665  0.68705  0.05841  Biso   1.000  N
  N83      1.0000 0.85373  0.59506  0.10368  Biso   1.000  N
  N84      1.0000 0.78969  0.53870  0.07995  Biso   1.000  N
  O109     1.0000 0.24332  0.76456  0.06574  Biso   1.000  O
  O110     1.0000 0.19910  0.71343  0.11411  Biso   1.000  O
  O111     1.0000 0.04118  0.65317  0.11733  Biso   1.000  O
  O112     1.0000 0.97190  0.65387  0.07105  Biso   1.000  O
  Zn29     1.0000 0.62411  0.67755  0.37216  Biso   1.000  Zn
  C449     1.0000 0.51187  0.95184  0.32780  Biso   1.000  C
  C450     1.0000 0.51390  0.90170  0.29859  Biso   1.000  C
  H365     1.0000 0.51560  0.91380  0.26880  Biso   1.000  H
  H366     1.0000 0.48030  0.88000  0.30230  Biso   1.000  H
  C451     1.0000 0.58532  0.77163  0.33112  Biso   1.000  C
  C452     1.0000 0.55550  0.80775  0.29897  Biso   1.000  C
  H367     1.0000 0.51610  0.79890  0.29940  Biso   1.000  H
  H368     1.0000 0.56940  0.79990  0.27020  Biso   1.000  H
  C453     1.0000 0.61444  0.88922  0.28870  Biso   1.000  C
  H369     1.0000 0.61790  0.92790  0.29710  Biso   1.000  H
  H370     1.0000 0.64590  0.86950  0.30090  Biso   1.000  H
  C454     1.0000 0.61874  0.88606  0.23975  Biso   1.000  C
  C455     1.0000 0.64600  0.84210  0.21975  Biso   1.000  C
  H371     1.0000 0.66250  0.81470  0.23660  Biso   1.000  H
  C456     1.0000 0.64910  0.83860  0.17529  Biso   1.000  C
  H372     1.0000 0.66700  0.80840  0.16270  Biso   1.000  H
  C457     1.0000 0.62610  0.87923  0.14920  Biso   1.000  C
  C458     1.0000 0.59854  0.92350  0.16908  Biso   1.000  C
  H373     1.0000 0.58230  0.95110  0.15230  Biso   1.000  H
  C459     1.0000 0.59520  0.92651  0.21350  Biso   1.000  C
  H374     1.0000 0.57670  0.95630  0.22610  Biso   1.000  H
  C460     1.0000 0.63130  0.55260  0.35820  Biso   1.000  C
  H375     1.0000 0.59600  0.54630  0.36940  Biso   1.000  H
  C461     1.0000 0.66570  0.51260  0.34427  Biso   1.000  C
  H376     1.0000 0.65950  0.47450  0.34440  Biso   1.000  H
  C462     1.0000 0.70350  0.59440  0.33698  Biso   1.000  C
  H377     1.0000 0.72940  0.62180  0.33070  Biso   1.000  H
  C463     1.0000 0.76140  0.51420  0.31050  Biso   1.000  C
  C464     1.0000 0.77700  0.51990  0.26630  Biso   1.000  C
  N85      1.0000 0.56295  0.86665  0.30841  Biso   1.000  N
  N86      1.0000 0.65494  0.60373  0.35368  Biso   1.000  N
  N87      1.0000 0.71130  0.53969  0.32995  Biso   1.000  N
  O113     1.0000 0.48544  0.99332  0.31574  Biso   1.000  O
  O114     1.0000 0.53657  0.94910  0.36411  Biso   1.000  O
  O115     1.0000 0.59683  0.79118  0.36733  Biso   1.000  O
  O116     1.0000 0.59613  0.72190  0.32105  Biso   1.000  O
  Zn30     1.0000 0.12411  0.17755  0.87216  Biso   1.000  Zn
  C465     1.0000 0.01187  0.45184  0.82780  Biso   1.000  C
  C466     1.0000 0.01390  0.40170  0.79859  Biso   1.000  C
  H378     1.0000 0.01560  0.41380  0.76880  Biso   1.000  H
  H379     1.0000 0.98030  0.38000  0.80230  Biso   1.000  H
  C467     1.0000 0.08532  0.27163  0.83112  Biso   1.000  C
  C468     1.0000 0.05550  0.30775  0.79897  Biso   1.000  C
  H380     1.0000 0.01610  0.29890  0.79940  Biso   1.000  H
  H381     1.0000 0.06940  0.29990  0.77020  Biso   1.000  H
  C469     1.0000 0.11444  0.38922  0.78870  Biso   1.000  C
  H382     1.0000 0.11790  0.42790  0.79710  Biso   1.000  H
  H383     1.0000 0.14590  0.36950  0.80090  Biso   1.000  H
  C470     1.0000 0.11874  0.38606  0.73975  Biso   1.000  C
  C471     1.0000 0.14600  0.34210  0.71975  Biso   1.000  C
  H384     1.0000 0.16250  0.31470  0.73660  Biso   1.000  H
  C472     1.0000 0.14910  0.33860  0.67529  Biso   1.000  C
  H385     1.0000 0.16700  0.30840  0.66270  Biso   1.000  H
  C473     1.0000 0.12610  0.37923  0.64920  Biso   1.000  C
  C474     1.0000 0.09854  0.42350  0.66908  Biso   1.000  C
  H386     1.0000 0.08230  0.45110  0.65230  Biso   1.000  H
  C475     1.0000 0.09520  0.42651  0.71350  Biso   1.000  C
  H387     1.0000 0.07670  0.45630  0.72610  Biso   1.000  H
  C476     1.0000 0.13130  0.05260  0.85820  Biso   1.000  C
  H388     1.0000 0.09600  0.04630  0.86940  Biso   1.000  H
  C477     1.0000 0.16570  0.01260  0.84427  Biso   1.000  C
  H389     1.0000 0.15950  0.97450  0.84440  Biso   1.000  H
  C478     1.0000 0.20350  0.09440  0.83698  Biso   1.000  C
  H390     1.0000 0.22940  0.12180  0.83070  Biso   1.000  H
  C479     1.0000 0.26140  0.01420  0.81050  Biso   1.000  C
  C480     1.0000 0.27700  0.01990  0.76630  Biso   1.000  C
  N88      1.0000 0.06295  0.36665  0.80841  Biso   1.000  N
  N89      1.0000 0.15494  0.10373  0.85368  Biso   1.000  N
  N90      1.0000 0.21130  0.03969  0.82995  Biso   1.000  N
  O117     1.0000 0.98544  0.49332  0.81574  Biso   1.000  O
  O118     1.0000 0.03657  0.44910  0.86411  Biso   1.000  O
  O119     1.0000 0.09683  0.29118  0.86733  Biso   1.000  O
  O120     1.0000 0.09613  0.22190  0.82105  Biso   1.000  O
  Zn31     1.0000 0.87589  0.32245  0.87216  Biso   1.000  Zn
  C481     1.0000 0.98813  0.04816  0.82780  Biso   1.000  C
  C482     1.0000 0.98610  0.09830  0.79859  Biso   1.000  C
  H391     1.0000 0.98440  0.08620  0.76880  Biso   1.000  H
  H392     1.0000 0.01970  0.12000  0.80230  Biso   1.000  H
  C483     1.0000 0.91468  0.22837  0.83112  Biso   1.000  C
  C484     1.0000 0.94450  0.19225  0.79897  Biso   1.000  C
  H393     1.0000 0.98390  0.20110  0.79940  Biso   1.000  H
  H394     1.0000 0.93060  0.20010  0.77020  Biso   1.000  H
  C485     1.0000 0.88556  0.11078  0.78870  Biso   1.000  C
  H395     1.0000 0.88210  0.07210  0.79710  Biso   1.000  H
  H396     1.0000 0.85410  0.13050  0.80090  Biso   1.000  H
  C486     1.0000 0.88126  0.11394  0.73975  Biso   1.000  C
  C487     1.0000 0.85400  0.15790  0.71975  Biso   1.000  C
  H397     1.0000 0.83750  0.18530  0.73660  Biso   1.000  H
  C488     1.0000 0.85090  0.16140  0.67529  Biso   1.000  C
  H398     1.0000 0.83300  0.19160  0.66270  Biso   1.000  H
  C489     1.0000 0.87390  0.12077  0.64920  Biso   1.000  C
  C490     1.0000 0.90146  0.07650  0.66908  Biso   1.000  C
  H399     1.0000 0.91770  0.04890  0.65230  Biso   1.000  H
  C491     1.0000 0.90480  0.07349  0.71350  Biso   1.000  C
  H400     1.0000 0.92330  0.04370  0.72610  Biso   1.000  H
  C492     1.0000 0.86870  0.44740  0.85820  Biso   1.000  C
  H401     1.0000 0.90400  0.45370  0.86940  Biso   1.000  H
  C493     1.0000 0.83430  0.48740  0.84427  Biso   1.000  C
  H402     1.0000 0.84050  0.52550  0.84440  Biso   1.000  H
  C494     1.0000 0.79650  0.40560  0.83698  Biso   1.000  C
  H403     1.0000 0.77060  0.37820  0.83070  Biso   1.000  H
  C495     1.0000 0.73860  0.48580  0.81050  Biso   1.000  C
  C496     1.0000 0.72300  0.48010  0.76630  Biso   1.000  C
  N91      1.0000 0.93705  0.13335  0.80841  Biso   1.000  N
  N92      1.0000 0.84506  0.39627  0.85368  Biso   1.000  N
  N93      1.0000 0.78870  0.46031  0.82995  Biso   1.000  N
  O121     1.0000 0.01456  0.00668  0.81574  Biso   1.000  O
  O122     1.0000 0.96343  0.05090  0.86411  Biso   1.000  O
  O123     1.0000 0.90317  0.20882  0.86733  Biso   1.000  O
  O124     1.0000 0.90387  0.27810  0.82105  Biso   1.000  O
  Zn32     1.0000 0.37589  0.82245  0.37216  Biso   1.000  Zn
  C497     1.0000 0.48813  0.54816  0.32780  Biso   1.000  C
  C498     1.0000 0.48610  0.59830  0.29859  Biso   1.000  C
  H404     1.0000 0.48440  0.58620  0.26880  Biso   1.000  H
  H405     1.0000 0.51970  0.62000  0.30230  Biso   1.000  H
  C499     1.0000 0.41468  0.72837  0.33112  Biso   1.000  C
  C500     1.0000 0.44450  0.69225  0.29897  Biso   1.000  C
  H406     1.0000 0.48390  0.70110  0.29940  Biso   1.000  H
  H407     1.0000 0.43060  0.70010  0.27020  Biso   1.000  H
  C501     1.0000 0.38556  0.61078  0.28870  Biso   1.000  C
  H408     1.0000 0.38210  0.57210  0.29710  Biso   1.000  H
  H409     1.0000 0.35410  0.63050  0.30090  Biso   1.000  H
  C502     1.0000 0.38126  0.61394  0.23975  Biso   1.000  C
  C503     1.0000 0.35400  0.65790  0.21975  Biso   1.000  C
  H410     1.0000 0.33750  0.68530  0.23660  Biso   1.000  H
  C504     1.0000 0.35090  0.66140  0.17529  Biso   1.000  C
  H411     1.0000 0.33300  0.69160  0.16270  Biso   1.000  H
  C505     1.0000 0.37390  0.62077  0.14920  Biso   1.000  C
  C506     1.0000 0.40146  0.57650  0.16908  Biso   1.000  C
  H412     1.0000 0.41770  0.54890  0.15230  Biso   1.000  H
  C507     1.0000 0.40480  0.57349  0.21350  Biso   1.000  C
  H413     1.0000 0.42330  0.54370  0.22610  Biso   1.000  H
  C508     1.0000 0.36870  0.94740  0.35820  Biso   1.000  C
  H414     1.0000 0.40400  0.95370  0.36940  Biso   1.000  H
  C509     1.0000 0.33430  0.98740  0.34427  Biso   1.000  C
  H415     1.0000 0.34050  0.02550  0.34440  Biso   1.000  H
  C510     1.0000 0.29650  0.90560  0.33698  Biso   1.000  C
  H416     1.0000 0.27060  0.87820  0.33070  Biso   1.000  H
  C511     1.0000 0.23860  0.98580  0.31050  Biso   1.000  C
  C512     1.0000 0.22300  0.98010  0.26630  Biso   1.000  C
  N94      1.0000 0.43705  0.63335  0.30841  Biso   1.000  N
  N95      1.0000 0.34506  0.89627  0.35368  Biso   1.000  N
  N96      1.0000 0.28870  0.96031  0.32995  Biso   1.000  N
  O125     1.0000 0.51456  0.50668  0.31574  Biso   1.000  O
  O126     1.0000 0.46343  0.55090  0.36411  Biso   1.000  O
  O127     1.0000 0.40317  0.70882  0.36733  Biso   1.000  O
  O128     1.0000 0.40387  0.77810  0.32105  Biso   1.000  O
  C513     1.0000 0.75000  0.01550  0.00000  Biso   1.000  C
  C514     1.0000 0.25000  0.51550  0.50000  Biso   1.000  C
  C515     1.0000 0.75000  0.98450  0.50000  Biso   1.000  C
  C516     1.0000 0.25000  0.48450  0.00000  Biso   1.000  C
  C517     1.0000 0.23450  0.50000  0.25000  Biso   1.000  C
  C518     1.0000 0.73450  0.00000  0.75000  Biso   1.000  C
  C519     1.0000 0.26550  0.50000  0.75000  Biso   1.000  C
  C520     1.0000 0.76550  0.00000  0.25000  Biso   1.000  C
  C521     1.0000 0.25000  0.98450  0.00000  Biso   1.000  C
  C522     1.0000 0.75000  0.48450  0.50000  Biso   1.000  C
  C523     1.0000 0.25000  0.01550  0.50000  Biso   1.000  C
  C524     1.0000 0.75000  0.51550  0.00000  Biso   1.000  C
  C525     1.0000 0.76550  0.50000  0.75000  Biso   1.000  C
  C526     1.0000 0.26550  0.00000  0.25000  Biso   1.000  C
  C527     1.0000 0.73450  0.50000  0.25000  Biso   1.000  C
  C528     1.0000 0.23450  0.00000  0.75000  Biso   1.000  C
