data_image0
_cell_length_a       23.0807
_cell_length_b       23.0807
_cell_length_c       26.6962
_cell_angle_alpha    64.3872
_cell_angle_beta     64.3872
_cell_angle_gamma    89.9998

_symmetry_space_group_name_H-M    P 1
_symmetry_int_tables_number       1

loop_
  _symmetry_equiv_pos_as_xyz
  'x, y, z'

loop_
  _atom_site_label
  _atom_site_occupancy
  _atom_site_fract_x
  _atom_site_fract_y
  _atom_site_fract_z
  _atom_site_thermal_displace_type
  _atom_site_B_iso_or_equiv
  _atom_site_type_symbol
  Ni1      1.0000 0.31094  0.94434  0.84942  Biso   1.000  Ni
  Ni2      1.0000 0.33964  0.20624  0.84942  Biso   1.000  Ni
  Ni3      1.0000 0.44434  0.83964  0.34942  Biso   1.000  Ni
  Ni4      1.0000 0.70624  0.81094  0.34942  Biso   1.000  Ni
  Ni5      1.0000 0.68906  0.05566  0.15058  Biso   1.000  Ni
  Ni6      1.0000 0.66036  0.79376  0.15058  Biso   1.000  Ni
  Ni7      1.0000 0.55566  0.16036  0.65058  Biso   1.000  Ni
  Ni8      1.0000 0.29376  0.18906  0.65058  Biso   1.000  Ni
  Ni9      1.0000 0.37500  0.12500  0.75000  Biso   1.000  Ni
  Ni10     1.0000 0.62500  0.87500  0.25000  Biso   1.000  Ni
  H1       1.0000 0.42250  0.85790  0.82140  Biso   1.000  H
  H2       1.0000 0.52360  0.83420  0.78040  Biso   1.000  H
  H3       1.0000 0.61910  0.91690  0.70840  Biso   1.000  H
  H4       1.0000 0.61660  0.02690  0.67160  Biso   1.000  H
  H5       1.0000 0.23740  0.89550  0.00540  Biso   1.000  H
  H6       1.0000 0.19590  0.90020  0.09900  Biso   1.000  H
  H7       1.0000 0.39560  0.79340  0.09600  Biso   1.000  H
  H8       1.0000 0.49810  0.79930  0.08700  Biso   1.000  H
  H9       1.0000 0.57790  0.85290  0.90140  Biso   1.000  H
  H10      1.0000 0.47500  0.85020  0.90960  Biso   1.000  H
  H11      1.0000 0.25610  0.32070  0.82140  Biso   1.000  H
  H12      1.0000 0.19600  0.38540  0.78040  Biso   1.000  H
  H13      1.0000 0.17250  0.37470  0.70840  Biso   1.000  H
  H14      1.0000 0.21180  0.30150  0.67160  Biso   1.000  H
  H15      1.0000 0.25720  0.09910  0.00540  Biso   1.000  H
  H16      1.0000 0.20510  0.00080  0.09900  Biso   1.000  H
  H17      1.0000 0.00840  0.11060  0.09600  Biso   1.000  H
  H18      1.0000 0.91490  0.11370  0.08700  Biso   1.000  H
  H19      1.0000 0.02070  0.24570  0.90140  Biso   1.000  H
  H20      1.0000 0.11540  0.24020  0.90960  Biso   1.000  H
  H21      1.0000 0.35790  0.75610  0.32140  Biso   1.000  H
  H22      1.0000 0.33420  0.69600  0.28040  Biso   1.000  H
  H23      1.0000 0.41690  0.67250  0.20840  Biso   1.000  H
  H24      1.0000 0.52690  0.71180  0.17160  Biso   1.000  H
  H25      1.0000 0.39550  0.75720  0.50540  Biso   1.000  H
  H26      1.0000 0.40020  0.70510  0.59900  Biso   1.000  H
  H27      1.0000 0.29340  0.50840  0.59600  Biso   1.000  H
  H28      1.0000 0.29930  0.41490  0.58700  Biso   1.000  H
  H29      1.0000 0.35290  0.52070  0.40140  Biso   1.000  H
  H30      1.0000 0.35020  0.61540  0.40960  Biso   1.000  H
  H31      1.0000 0.82070  0.92250  0.32140  Biso   1.000  H
  H32      1.0000 0.88540  0.02360  0.28040  Biso   1.000  H
  H33      1.0000 0.87470  0.11910  0.20840  Biso   1.000  H
  H34      1.0000 0.80150  0.11660  0.17160  Biso   1.000  H
  H35      1.0000 0.59910  0.73740  0.50540  Biso   1.000  H
  H36      1.0000 0.50080  0.69590  0.59900  Biso   1.000  H
  H37      1.0000 0.61060  0.89560  0.59600  Biso   1.000  H
  H38      1.0000 0.61370  0.99810  0.58700  Biso   1.000  H
  H39      1.0000 0.74570  0.07790  0.40140  Biso   1.000  H
  H40      1.0000 0.74020  0.97500  0.40960  Biso   1.000  H
  H41      1.0000 0.57750  0.14210  0.17860  Biso   1.000  H
  H42      1.0000 0.47640  0.16580  0.21960  Biso   1.000  H
  H43      1.0000 0.38090  0.08310  0.29160  Biso   1.000  H
  H44      1.0000 0.38340  0.97310  0.32840  Biso   1.000  H
  H45      1.0000 0.76260  0.10450  0.99460  Biso   1.000  H
  H46      1.0000 0.80410  0.09980  0.90100  Biso   1.000  H
  H47      1.0000 0.60440  0.20660  0.90400  Biso   1.000  H
  H48      1.0000 0.50190  0.20070  0.91300  Biso   1.000  H
  H49      1.0000 0.42210  0.14710  0.09860  Biso   1.000  H
  H50      1.0000 0.52500  0.14980  0.09040  Biso   1.000  H
  H51      1.0000 0.74390  0.67930  0.17860  Biso   1.000  H
  H52      1.0000 0.80400  0.61460  0.21960  Biso   1.000  H
  H53      1.0000 0.82750  0.62530  0.29160  Biso   1.000  H
  H54      1.0000 0.78820  0.69850  0.32840  Biso   1.000  H
  H55      1.0000 0.74280  0.90090  0.99460  Biso   1.000  H
  H56      1.0000 0.79490  0.99920  0.90100  Biso   1.000  H
  H57      1.0000 0.99160  0.88940  0.90400  Biso   1.000  H
  H58      1.0000 0.08510  0.88630  0.91300  Biso   1.000  H
  H59      1.0000 0.97930  0.75430  0.09860  Biso   1.000  H
  H60      1.0000 0.88460  0.75980  0.09040  Biso   1.000  H
  H61      1.0000 0.64210  0.24390  0.67860  Biso   1.000  H
  H62      1.0000 0.66580  0.30400  0.71960  Biso   1.000  H
  H63      1.0000 0.58310  0.32750  0.79160  Biso   1.000  H
  H64      1.0000 0.47310  0.28820  0.82840  Biso   1.000  H
  H65      1.0000 0.60450  0.24280  0.49460  Biso   1.000  H
  H66      1.0000 0.59980  0.29490  0.40100  Biso   1.000  H
  H67      1.0000 0.70660  0.49160  0.40400  Biso   1.000  H
  H68      1.0000 0.70070  0.58510  0.41300  Biso   1.000  H
  H69      1.0000 0.64710  0.47930  0.59860  Biso   1.000  H
  H70      1.0000 0.64980  0.38460  0.59040  Biso   1.000  H
  H71      1.0000 0.17930  0.07750  0.67860  Biso   1.000  H
  H72      1.0000 0.11460  0.97640  0.71960  Biso   1.000  H
  H73      1.0000 0.12530  0.88090  0.79160  Biso   1.000  H
  H74      1.0000 0.19850  0.88340  0.82840  Biso   1.000  H
  H75      1.0000 0.40090  0.26260  0.49460  Biso   1.000  H
  H76      1.0000 0.49920  0.30410  0.40100  Biso   1.000  H
  H77      1.0000 0.38940  0.10440  0.40400  Biso   1.000  H
  H78      1.0000 0.38630  0.00190  0.41300  Biso   1.000  H
  H79      1.0000 0.25430  0.92210  0.59860  Biso   1.000  H
  H80      1.0000 0.25980  0.02500  0.59040  Biso   1.000  H
  C1       1.0000 0.45879  0.95898  0.77020  Biso   1.000  C
  C2       1.0000 0.46055  0.89130  0.79198  Biso   1.000  C
  C3       1.0000 0.52065  0.87805  0.76750  Biso   1.000  C
  C4       1.0000 0.57898  0.92858  0.72304  Biso   1.000  C
  C5       1.0000 0.57804  0.99382  0.70112  Biso   1.000  C
  C6       1.0000 0.51555  0.00870  0.72548  Biso   1.000  C
  C7       1.0000 0.27283  0.99602  0.94814  Biso   1.000  C
  C8       1.0000 0.24131  0.93561  0.00538  Biso   1.000  C
  C9       1.0000 0.21684  0.93904  0.06052  Biso   1.000  C
  C10      1.0000 0.34851  0.84960  0.95610  Biso   1.000  C
  C11      1.0000 0.30127  0.79247  0.06926  Biso   1.000  C
  C12      1.0000 0.35863  0.81769  0.00962  Biso   1.000  C
  C13      1.0000 0.42270  0.82044  0.00356  Biso   1.000  C
  C14      1.0000 0.43207  0.80546  0.05688  Biso   1.000  C
  C15      1.0000 0.49340  0.80841  0.05158  Biso   1.000  C
  C16      1.0000 0.55001  0.82510  0.99350  Biso   1.000  C
  C17      1.0000 0.54133  0.84097  0.94046  Biso   1.000  C
  C18      1.0000 0.47939  0.83893  0.94554  Biso   1.000  C
  C19      1.0000 0.61394  0.82656  0.98882  Biso   1.000  C
  C20      1.0000 0.67124  0.84184  0.93272  Biso   1.000  C
  C21      1.0000 0.62310  0.81521  0.04100  Biso   1.000  C
  C22      1.0000 0.27101  0.27082  0.77020  Biso   1.000  C
  C23      1.0000 0.24747  0.31672  0.79198  Biso   1.000  C
  C24      1.0000 0.21185  0.35445  0.76750  Biso   1.000  C
  C25      1.0000 0.19798  0.34838  0.72304  Biso   1.000  C
  C26      1.0000 0.22084  0.30506  0.70112  Biso   1.000  C
  C27      1.0000 0.25897  0.26582  0.72548  Biso   1.000  C
  C28      1.0000 0.27903  0.05584  0.94814  Biso   1.000  C
  C29      1.0000 0.25331  0.05901  0.00538  Biso   1.000  C
  C30      1.0000 0.22264  0.00044  0.06052  Biso   1.000  C
  C31      1.0000 0.19539  0.19430  0.95610  Biso   1.000  C
  C32      1.0000 0.12947  0.13827  0.06926  Biso   1.000  C
  C33      1.0000 0.13175  0.17269  0.00962  Biso   1.000  C
  C34      1.0000 0.07374  0.17600  0.00356  Biso   1.000  C
  C35      1.0000 0.01105  0.13766  0.05688  Biso   1.000  C
  C36      1.0000 0.95502  0.14001  0.05158  Biso   1.000  C
  C37      1.0000 0.95649  0.18140  0.99350  Biso   1.000  C
  C38      1.0000 0.01821  0.21857  0.94046  Biso   1.000  C
  C39      1.0000 0.07507  0.21553  0.94554  Biso   1.000  C
  C40      1.0000 0.89724  0.18462  0.98882  Biso   1.000  C
  C41      1.0000 0.89604  0.22544  0.93272  Biso   1.000  C
  C42      1.0000 0.83590  0.14379  0.04100  Biso   1.000  C
  C43      1.0000 0.45898  0.77101  0.27020  Biso   1.000  C
  C44      1.0000 0.39130  0.74747  0.29198  Biso   1.000  C
  C45      1.0000 0.37805  0.71185  0.26750  Biso   1.000  C
  C46      1.0000 0.42858  0.69798  0.22304  Biso   1.000  C
  C47      1.0000 0.49382  0.72084  0.20112  Biso   1.000  C
  C48      1.0000 0.50870  0.75897  0.22548  Biso   1.000  C
  C49      1.0000 0.49602  0.77903  0.44814  Biso   1.000  C
  C50      1.0000 0.43561  0.75331  0.50538  Biso   1.000  C
  C51      1.0000 0.43904  0.72264  0.56052  Biso   1.000  C
  C52      1.0000 0.34960  0.69539  0.45610  Biso   1.000  C
  C53      1.0000 0.29247  0.62947  0.56926  Biso   1.000  C
  C54      1.0000 0.31769  0.63175  0.50962  Biso   1.000  C
  C55      1.0000 0.32044  0.57374  0.50356  Biso   1.000  C
  C56      1.0000 0.30546  0.51105  0.55688  Biso   1.000  C
  C57      1.0000 0.30841  0.45502  0.55158  Biso   1.000  C
  C58      1.0000 0.32510  0.45649  0.49350  Biso   1.000  C
  C59      1.0000 0.34097  0.51821  0.44046  Biso   1.000  C
  C60      1.0000 0.33893  0.57507  0.44554  Biso   1.000  C
  C61      1.0000 0.32656  0.39724  0.48882  Biso   1.000  C
  C62      1.0000 0.34184  0.39604  0.43272  Biso   1.000  C
  C63      1.0000 0.31521  0.33590  0.54100  Biso   1.000  C
  C64      1.0000 0.77082  0.95879  0.27020  Biso   1.000  C
  C65      1.0000 0.81672  0.96055  0.29198  Biso   1.000  C
  C66      1.0000 0.85445  0.02065  0.26750  Biso   1.000  C
  C67      1.0000 0.84838  0.07898  0.22304  Biso   1.000  C
  C68      1.0000 0.80506  0.07804  0.20112  Biso   1.000  C
  C69      1.0000 0.76582  0.01555  0.22548  Biso   1.000  C
  C70      1.0000 0.55584  0.77283  0.44814  Biso   1.000  C
  C71      1.0000 0.55901  0.74131  0.50538  Biso   1.000  C
  C72      1.0000 0.50044  0.71684  0.56052  Biso   1.000  C
  C73      1.0000 0.69430  0.84851  0.45610  Biso   1.000  C
  C74      1.0000 0.63827  0.80127  0.56926  Biso   1.000  C
  C75      1.0000 0.67269  0.85863  0.50962  Biso   1.000  C
  C76      1.0000 0.67600  0.92270  0.50356  Biso   1.000  C
  C77      1.0000 0.63766  0.93207  0.55688  Biso   1.000  C
  C78      1.0000 0.64001  0.99340  0.55158  Biso   1.000  C
  C79      1.0000 0.68140  0.05001  0.49350  Biso   1.000  C
  C80      1.0000 0.71857  0.04133  0.44046  Biso   1.000  C
  C81      1.0000 0.71553  0.97939  0.44554  Biso   1.000  C
  C82      1.0000 0.68462  0.11394  0.48882  Biso   1.000  C
  C83      1.0000 0.72544  0.17124  0.43272  Biso   1.000  C
  C84      1.0000 0.64379  0.12310  0.54100  Biso   1.000  C
  C85      1.0000 0.54121  0.04102  0.22980  Biso   1.000  C
  C86      1.0000 0.53945  0.10870  0.20802  Biso   1.000  C
  C87      1.0000 0.47935  0.12195  0.23250  Biso   1.000  C
  C88      1.0000 0.42102  0.07142  0.27696  Biso   1.000  C
  C89      1.0000 0.42196  0.00618  0.29888  Biso   1.000  C
  C90      1.0000 0.48445  0.99130  0.27452  Biso   1.000  C
  C91      1.0000 0.72717  0.00398  0.05186  Biso   1.000  C
  C92      1.0000 0.75869  0.06439  0.99462  Biso   1.000  C
  C93      1.0000 0.78316  0.06096  0.93948  Biso   1.000  C
  C94      1.0000 0.65149  0.15040  0.04390  Biso   1.000  C
  C95      1.0000 0.69873  0.20753  0.93074  Biso   1.000  C
  C96      1.0000 0.64137  0.18231  0.99038  Biso   1.000  C
  C97      1.0000 0.57730  0.17956  0.99644  Biso   1.000  C
  C98      1.0000 0.56793  0.19454  0.94312  Biso   1.000  C
  C99      1.0000 0.50660  0.19159  0.94842  Biso   1.000  C
  C100     1.0000 0.44999  0.17490  0.00650  Biso   1.000  C
  C101     1.0000 0.45867  0.15903  0.05954  Biso   1.000  C
  C102     1.0000 0.52061  0.16107  0.05446  Biso   1.000  C
  C103     1.0000 0.38606  0.17344  0.01118  Biso   1.000  C
  C104     1.0000 0.32876  0.15816  0.06728  Biso   1.000  C
  C105     1.0000 0.37690  0.18479  0.95900  Biso   1.000  C
  C106     1.0000 0.72899  0.72918  0.22980  Biso   1.000  C
  C107     1.0000 0.75253  0.68328  0.20802  Biso   1.000  C
  C108     1.0000 0.78815  0.64555  0.23250  Biso   1.000  C
  C109     1.0000 0.80202  0.65162  0.27696  Biso   1.000  C
  C110     1.0000 0.77916  0.69494  0.29888  Biso   1.000  C
  C111     1.0000 0.74103  0.73418  0.27452  Biso   1.000  C
  C112     1.0000 0.72097  0.94416  0.05186  Biso   1.000  C
  C113     1.0000 0.74669  0.94099  0.99462  Biso   1.000  C
  C114     1.0000 0.77736  0.99956  0.93948  Biso   1.000  C
  C115     1.0000 0.80461  0.80570  0.04390  Biso   1.000  C
  C116     1.0000 0.87053  0.86173  0.93074  Biso   1.000  C
  C117     1.0000 0.86825  0.82731  0.99038  Biso   1.000  C
  C118     1.0000 0.92626  0.82400  0.99644  Biso   1.000  C
  C119     1.0000 0.98895  0.86234  0.94312  Biso   1.000  C
  C120     1.0000 0.04498  0.85999  0.94842  Biso   1.000  C
  C121     1.0000 0.04351  0.81860  0.00650  Biso   1.000  C
  C122     1.0000 0.98179  0.78143  0.05954  Biso   1.000  C
  C123     1.0000 0.92493  0.78447  0.05446  Biso   1.000  C
  C124     1.0000 0.10276  0.81538  0.01118  Biso   1.000  C
  C125     1.0000 0.10396  0.77456  0.06728  Biso   1.000  C
  C126     1.0000 0.16410  0.85621  0.95900  Biso   1.000  C
  C127     1.0000 0.54102  0.22899  0.72980  Biso   1.000  C
  C128     1.0000 0.60870  0.25253  0.70802  Biso   1.000  C
  C129     1.0000 0.62195  0.28815  0.73250  Biso   1.000  C
  C130     1.0000 0.57142  0.30202  0.77696  Biso   1.000  C
  C131     1.0000 0.50618  0.27916  0.79888  Biso   1.000  C
  C132     1.0000 0.49130  0.24103  0.77452  Biso   1.000  C
  C133     1.0000 0.50398  0.22097  0.55186  Biso   1.000  C
  C134     1.0000 0.56439  0.24669  0.49462  Biso   1.000  C
  C135     1.0000 0.56096  0.27736  0.43948  Biso   1.000  C
  C136     1.0000 0.65040  0.30461  0.54390  Biso   1.000  C
  C137     1.0000 0.70753  0.37053  0.43074  Biso   1.000  C
  C138     1.0000 0.68231  0.36825  0.49038  Biso   1.000  C
  C139     1.0000 0.67956  0.42626  0.49644  Biso   1.000  C
  C140     1.0000 0.69454  0.48895  0.44312  Biso   1.000  C
  C141     1.0000 0.69159  0.54498  0.44842  Biso   1.000  C
  C142     1.0000 0.67490  0.54351  0.50650  Biso   1.000  C
  C143     1.0000 0.65903  0.48179  0.55954  Biso   1.000  C
  C144     1.0000 0.66107  0.42493  0.55446  Biso   1.000  C
  C145     1.0000 0.67344  0.60276  0.51118  Biso   1.000  C
  C146     1.0000 0.65816  0.60396  0.56728  Biso   1.000  C
  C147     1.0000 0.68479  0.66410  0.45900  Biso   1.000  C
  C148     1.0000 0.22918  0.04121  0.72980  Biso   1.000  C
  C149     1.0000 0.18328  0.03945  0.70802  Biso   1.000  C
  C150     1.0000 0.14555  0.97935  0.73250  Biso   1.000  C
  C151     1.0000 0.15162  0.92102  0.77696  Biso   1.000  C
  C152     1.0000 0.19494  0.92196  0.79888  Biso   1.000  C
  C153     1.0000 0.23418  0.98445  0.77452  Biso   1.000  C
  C154     1.0000 0.44416  0.22717  0.55186  Biso   1.000  C
  C155     1.0000 0.44099  0.25869  0.49462  Biso   1.000  C
  C156     1.0000 0.49956  0.28316  0.43948  Biso   1.000  C
  C157     1.0000 0.30570  0.15149  0.54390  Biso   1.000  C
  C158     1.0000 0.36173  0.19873  0.43074  Biso   1.000  C
  C159     1.0000 0.32731  0.14137  0.49038  Biso   1.000  C
  C160     1.0000 0.32400  0.07730  0.49644  Biso   1.000  C
  C161     1.0000 0.36234  0.06793  0.44312  Biso   1.000  C
  C162     1.0000 0.35999  0.00660  0.44842  Biso   1.000  C
  C163     1.0000 0.31860  0.94999  0.50650  Biso   1.000  C
  C164     1.0000 0.28143  0.95867  0.55954  Biso   1.000  C
  C165     1.0000 0.28447  0.02061  0.55446  Biso   1.000  C
  C166     1.0000 0.31538  0.88606  0.51118  Biso   1.000  C
  C167     1.0000 0.27456  0.82876  0.56728  Biso   1.000  C
  C168     1.0000 0.35621  0.87690  0.45900  Biso   1.000  C
  N1       1.0000 0.43217  0.05329  0.74970  Biso   1.000  N
  N2       1.0000 0.40737  0.98884  0.78476  Biso   1.000  N
  N3       1.0000 0.49695  0.06706  0.71348  Biso   1.000  N
  N4       1.0000 0.30211  0.00921  0.88648  Biso   1.000  N
  N5       1.0000 0.33819  0.87790  0.91474  Biso   1.000  N
  N6       1.0000 0.25521  0.77091  0.11758  Biso   1.000  N
  N7       1.0000 0.71869  0.85439  0.88622  Biso   1.000  N
  N8       1.0000 0.63178  0.80714  0.08276  Biso   1.000  N
  N9       1.0000 0.31813  0.19701  0.74970  Biso   1.000  N
  N10      1.0000 0.30787  0.22640  0.78476  Biso   1.000  N
  N11      1.0000 0.28957  0.21946  0.71348  Biso   1.000  N
  N12      1.0000 0.31141  0.10431  0.88648  Biso   1.000  N
  N13      1.0000 0.24707  0.20736  0.91474  Biso   1.000  N
  N14      1.0000 0.12721  0.11151  0.11758  Biso   1.000  N
  N15      1.0000 0.89509  0.25939  0.88622  Biso   1.000  N
  N16      1.0000 0.78546  0.11010  0.08276  Biso   1.000  N
  N17      1.0000 0.55329  0.81813  0.24970  Biso   1.000  N
  N18      1.0000 0.48884  0.80787  0.28476  Biso   1.000  N
  N19      1.0000 0.56706  0.78957  0.21348  Biso   1.000  N
  N20      1.0000 0.50921  0.81141  0.38648  Biso   1.000  N
  N21      1.0000 0.37790  0.74707  0.41474  Biso   1.000  N
  N22      1.0000 0.27091  0.62721  0.61758  Biso   1.000  N
  N23      1.0000 0.35439  0.39509  0.38622  Biso   1.000  N
  N24      1.0000 0.30714  0.28546  0.58276  Biso   1.000  N
  N25      1.0000 0.69701  0.93217  0.24970  Biso   1.000  N
  N26      1.0000 0.72640  0.90737  0.28476  Biso   1.000  N
  N27      1.0000 0.71946  0.99695  0.21348  Biso   1.000  N
  N28      1.0000 0.60431  0.80211  0.38648  Biso   1.000  N
  N29      1.0000 0.70736  0.83819  0.41474  Biso   1.000  N
  N30      1.0000 0.61151  0.75521  0.61758  Biso   1.000  N
  N31      1.0000 0.75939  0.21869  0.38622  Biso   1.000  N
  N32      1.0000 0.61010  0.13178  0.58276  Biso   1.000  N
  N33      1.0000 0.56783  0.94671  0.25030  Biso   1.000  N
  N34      1.0000 0.59263  0.01116  0.21524  Biso   1.000  N
  N35      1.0000 0.50305  0.93294  0.28652  Biso   1.000  N
  N36      1.0000 0.69789  0.99079  0.11352  Biso   1.000  N
  N37      1.0000 0.66181  0.12210  0.08526  Biso   1.000  N
  N38      1.0000 0.74479  0.22909  0.88242  Biso   1.000  N
  N39      1.0000 0.28131  0.14561  0.11378  Biso   1.000  N
  N40      1.0000 0.36822  0.19286  0.91724  Biso   1.000  N
  N41      1.0000 0.68187  0.80299  0.25030  Biso   1.000  N
  N42      1.0000 0.69213  0.77360  0.21524  Biso   1.000  N
  N43      1.0000 0.71043  0.78054  0.28652  Biso   1.000  N
  N44      1.0000 0.68859  0.89569  0.11352  Biso   1.000  N
  N45      1.0000 0.75293  0.79264  0.08526  Biso   1.000  N
  N46      1.0000 0.87279  0.88849  0.88242  Biso   1.000  N
  N47      1.0000 0.10491  0.74061  0.11378  Biso   1.000  N
  N48      1.0000 0.21454  0.88990  0.91724  Biso   1.000  N
  N49      1.0000 0.44671  0.18187  0.75030  Biso   1.000  N
  N50      1.0000 0.51116  0.19213  0.71524  Biso   1.000  N
  N51      1.0000 0.43294  0.21043  0.78652  Biso   1.000  N
  N52      1.0000 0.49079  0.18859  0.61352  Biso   1.000  N
  N53      1.0000 0.62210  0.25293  0.58526  Biso   1.000  N
  N54      1.0000 0.72909  0.37279  0.38242  Biso   1.000  N
  N55      1.0000 0.64561  0.60491  0.61378  Biso   1.000  N
  N56      1.0000 0.69286  0.71454  0.41724  Biso   1.000  N
  N57      1.0000 0.30299  0.06783  0.75030  Biso   1.000  N
  N58      1.0000 0.27360  0.09263  0.71524  Biso   1.000  N
  N59      1.0000 0.28054  0.00305  0.78652  Biso   1.000  N
  N60      1.0000 0.39569  0.19789  0.61352  Biso   1.000  N
  N61      1.0000 0.29264  0.16181  0.58526  Biso   1.000  N
  N62      1.0000 0.38849  0.24479  0.38242  Biso   1.000  N
  N63      1.0000 0.24061  0.78131  0.61378  Biso   1.000  N
  N64      1.0000 0.38990  0.86822  0.41724  Biso   1.000  N
  N65      1.0000 0.32450  0.07450  0.85100  Biso   1.000  N
  N66      1.0000 0.57450  0.82450  0.35100  Biso   1.000  N
  N67      1.0000 0.67550  0.92550  0.14900  Biso   1.000  N
  N68      1.0000 0.42550  0.17550  0.64900  Biso   1.000  N
  O1       1.0000 0.31944  0.87846  0.81324  Biso   1.000  O
  O2       1.0000 0.36732  0.30830  0.81324  Biso   1.000  O
  O3       1.0000 0.37846  0.86732  0.31324  Biso   1.000  O
  O4       1.0000 0.80830  0.81944  0.31324  Biso   1.000  O
  O5       1.0000 0.68056  0.12154  0.18676  Biso   1.000  O
  O6       1.0000 0.63268  0.69170  0.18676  Biso   1.000  O
  O7       1.0000 0.62154  0.13268  0.68676  Biso   1.000  O
  O8       1.0000 0.19170  0.18056  0.68676  Biso   1.000  O
  Ni11     1.0000 0.16036  0.55566  0.15058  Biso   1.000  Ni
  Ni12     1.0000 0.18906  0.29376  0.15058  Biso   1.000  Ni
  Ni13     1.0000 0.79376  0.66036  0.65058  Biso   1.000  Ni
  Ni14     1.0000 0.05566  0.68906  0.65058  Biso   1.000  Ni
  Ni15     1.0000 0.83964  0.44434  0.84942  Biso   1.000  Ni
  Ni16     1.0000 0.81094  0.70624  0.84942  Biso   1.000  Ni
  Ni17     1.0000 0.20624  0.33964  0.34942  Biso   1.000  Ni
  Ni18     1.0000 0.94434  0.31094  0.34942  Biso   1.000  Ni
  Ni19     1.0000 0.12500  0.37500  0.25000  Biso   1.000  Ni
  Ni20     1.0000 0.87500  0.62500  0.75000  Biso   1.000  Ni
  H81      1.0000 0.24390  0.64210  0.17860  Biso   1.000  H
  H82      1.0000 0.30400  0.66580  0.21960  Biso   1.000  H
  H83      1.0000 0.32750  0.58310  0.29160  Biso   1.000  H
  H84      1.0000 0.28820  0.47310  0.32840  Biso   1.000  H
  H85      1.0000 0.24280  0.60450  0.99460  Biso   1.000  H
  H86      1.0000 0.29490  0.59980  0.90100  Biso   1.000  H
  H87      1.0000 0.49160  0.70660  0.90400  Biso   1.000  H
  H88      1.0000 0.58510  0.70070  0.91300  Biso   1.000  H
  H89      1.0000 0.47930  0.64710  0.09860  Biso   1.000  H
  H90      1.0000 0.38460  0.64980  0.09040  Biso   1.000  H
  H91      1.0000 0.07750  0.17930  0.17860  Biso   1.000  H
  H92      1.0000 0.97640  0.11460  0.21960  Biso   1.000  H
  H93      1.0000 0.88090  0.12530  0.29160  Biso   1.000  H
  H94      1.0000 0.88340  0.19850  0.32840  Biso   1.000  H
  H95      1.0000 0.26260  0.40090  0.99460  Biso   1.000  H
  H96      1.0000 0.30410  0.49920  0.90100  Biso   1.000  H
  H97      1.0000 0.10440  0.38940  0.90400  Biso   1.000  H
  H98      1.0000 0.00190  0.38630  0.91300  Biso   1.000  H
  H99      1.0000 0.92210  0.25430  0.09860  Biso   1.000  H
  H100     1.0000 0.02500  0.25980  0.09040  Biso   1.000  H
  H101     1.0000 0.67930  0.74390  0.67860  Biso   1.000  H
  H102     1.0000 0.61460  0.80400  0.71960  Biso   1.000  H
  H103     1.0000 0.62530  0.82750  0.79160  Biso   1.000  H
  H104     1.0000 0.69850  0.78820  0.82840  Biso   1.000  H
  H105     1.0000 0.90090  0.74280  0.49460  Biso   1.000  H
  H106     1.0000 0.99920  0.79490  0.40100  Biso   1.000  H
  H107     1.0000 0.88940  0.99160  0.40400  Biso   1.000  H
  H108     1.0000 0.88630  0.08510  0.41300  Biso   1.000  H
  H109     1.0000 0.75430  0.97930  0.59860  Biso   1.000  H
  H110     1.0000 0.75980  0.88460  0.59040  Biso   1.000  H
  H111     1.0000 0.14210  0.57750  0.67860  Biso   1.000  H
  H112     1.0000 0.16580  0.47640  0.71960  Biso   1.000  H
  H113     1.0000 0.08310  0.38090  0.79160  Biso   1.000  H
  H114     1.0000 0.97310  0.38340  0.82840  Biso   1.000  H
  H115     1.0000 0.10450  0.76260  0.49460  Biso   1.000  H
  H116     1.0000 0.09980  0.80410  0.40100  Biso   1.000  H
  H117     1.0000 0.20660  0.60440  0.40400  Biso   1.000  H
  H118     1.0000 0.20070  0.50190  0.41300  Biso   1.000  H
  H119     1.0000 0.14710  0.42210  0.59860  Biso   1.000  H
  H120     1.0000 0.14980  0.52500  0.59040  Biso   1.000  H
  H121     1.0000 0.75610  0.35790  0.82140  Biso   1.000  H
  H122     1.0000 0.69600  0.33420  0.78040  Biso   1.000  H
  H123     1.0000 0.67250  0.41690  0.70840  Biso   1.000  H
  H124     1.0000 0.71180  0.52690  0.67160  Biso   1.000  H
  H125     1.0000 0.75720  0.39550  0.00540  Biso   1.000  H
  H126     1.0000 0.70510  0.40020  0.09900  Biso   1.000  H
  H127     1.0000 0.50840  0.29340  0.09600  Biso   1.000  H
  H128     1.0000 0.41490  0.29930  0.08700  Biso   1.000  H
  H129     1.0000 0.52070  0.35290  0.90140  Biso   1.000  H
  H130     1.0000 0.61540  0.35020  0.90960  Biso   1.000  H
  H131     1.0000 0.92250  0.82070  0.82140  Biso   1.000  H
  H132     1.0000 0.02360  0.88540  0.78040  Biso   1.000  H
  H133     1.0000 0.11910  0.87470  0.70840  Biso   1.000  H
  H134     1.0000 0.11660  0.80150  0.67160  Biso   1.000  H
  H135     1.0000 0.73740  0.59910  0.00540  Biso   1.000  H
  H136     1.0000 0.69590  0.50080  0.09900  Biso   1.000  H
  H137     1.0000 0.89560  0.61060  0.09600  Biso   1.000  H
  H138     1.0000 0.99810  0.61370  0.08700  Biso   1.000  H
  H139     1.0000 0.07790  0.74570  0.90140  Biso   1.000  H
  H140     1.0000 0.97500  0.74020  0.90960  Biso   1.000  H
  H141     1.0000 0.32070  0.25610  0.32140  Biso   1.000  H
  H142     1.0000 0.38540  0.19600  0.28040  Biso   1.000  H
  H143     1.0000 0.37470  0.17250  0.20840  Biso   1.000  H
  H144     1.0000 0.30150  0.21180  0.17160  Biso   1.000  H
  H145     1.0000 0.09910  0.25720  0.50540  Biso   1.000  H
  H146     1.0000 0.00080  0.20510  0.59900  Biso   1.000  H
  H147     1.0000 0.11060  0.00840  0.59600  Biso   1.000  H
  H148     1.0000 0.11370  0.91490  0.58700  Biso   1.000  H
  H149     1.0000 0.24570  0.02070  0.40140  Biso   1.000  H
  H150     1.0000 0.24020  0.11540  0.40960  Biso   1.000  H
  H151     1.0000 0.85790  0.42250  0.32140  Biso   1.000  H
  H152     1.0000 0.83420  0.52360  0.28040  Biso   1.000  H
  H153     1.0000 0.91690  0.61910  0.20840  Biso   1.000  H
  H154     1.0000 0.02690  0.61660  0.17160  Biso   1.000  H
  H155     1.0000 0.89550  0.23740  0.50540  Biso   1.000  H
  H156     1.0000 0.90020  0.19590  0.59900  Biso   1.000  H
  H157     1.0000 0.79340  0.39560  0.59600  Biso   1.000  H
  H158     1.0000 0.79930  0.49810  0.58700  Biso   1.000  H
  H159     1.0000 0.85290  0.57790  0.40140  Biso   1.000  H
  H160     1.0000 0.85020  0.47500  0.40960  Biso   1.000  H
  C169     1.0000 0.22899  0.54102  0.22980  Biso   1.000  C
  C170     1.0000 0.25253  0.60870  0.20802  Biso   1.000  C
  C171     1.0000 0.28815  0.62195  0.23250  Biso   1.000  C
  C172     1.0000 0.30202  0.57142  0.27696  Biso   1.000  C
  C173     1.0000 0.27916  0.50618  0.29888  Biso   1.000  C
  C174     1.0000 0.24103  0.49130  0.27452  Biso   1.000  C
  C175     1.0000 0.22097  0.50398  0.05186  Biso   1.000  C
  C176     1.0000 0.24669  0.56439  0.99462  Biso   1.000  C
  C177     1.0000 0.27736  0.56096  0.93948  Biso   1.000  C
  C178     1.0000 0.30461  0.65040  0.04390  Biso   1.000  C
  C179     1.0000 0.37053  0.70753  0.93074  Biso   1.000  C
  C180     1.0000 0.36825  0.68231  0.99038  Biso   1.000  C
  C181     1.0000 0.42626  0.67956  0.99644  Biso   1.000  C
  C182     1.0000 0.48895  0.69454  0.94312  Biso   1.000  C
  C183     1.0000 0.54498  0.69159  0.94842  Biso   1.000  C
  C184     1.0000 0.54351  0.67490  0.00650  Biso   1.000  C
  C185     1.0000 0.48179  0.65903  0.05954  Biso   1.000  C
  C186     1.0000 0.42493  0.66107  0.05446  Biso   1.000  C
  C187     1.0000 0.60276  0.67344  0.01118  Biso   1.000  C
  C188     1.0000 0.60396  0.65816  0.06728  Biso   1.000  C
  C189     1.0000 0.66410  0.68479  0.95900  Biso   1.000  C
  C190     1.0000 0.04121  0.22918  0.22980  Biso   1.000  C
  C191     1.0000 0.03945  0.18328  0.20802  Biso   1.000  C
  C192     1.0000 0.97935  0.14555  0.23250  Biso   1.000  C
  C193     1.0000 0.92102  0.15162  0.27696  Biso   1.000  C
  C194     1.0000 0.92196  0.19494  0.29888  Biso   1.000  C
  C195     1.0000 0.98445  0.23418  0.27452  Biso   1.000  C
  C196     1.0000 0.22717  0.44416  0.05186  Biso   1.000  C
  C197     1.0000 0.25869  0.44099  0.99462  Biso   1.000  C
  C198     1.0000 0.28316  0.49956  0.93948  Biso   1.000  C
  C199     1.0000 0.15149  0.30570  0.04390  Biso   1.000  C
  C200     1.0000 0.19873  0.36173  0.93074  Biso   1.000  C
  C201     1.0000 0.14137  0.32731  0.99038  Biso   1.000  C
  C202     1.0000 0.07730  0.32400  0.99644  Biso   1.000  C
  C203     1.0000 0.06793  0.36234  0.94312  Biso   1.000  C
  C204     1.0000 0.00660  0.35999  0.94842  Biso   1.000  C
  C205     1.0000 0.94999  0.31860  0.00650  Biso   1.000  C
  C206     1.0000 0.95867  0.28143  0.05954  Biso   1.000  C
  C207     1.0000 0.02061  0.28447  0.05446  Biso   1.000  C
  C208     1.0000 0.88606  0.31538  0.01118  Biso   1.000  C
  C209     1.0000 0.82876  0.27456  0.06728  Biso   1.000  C
  C210     1.0000 0.87690  0.35621  0.95900  Biso   1.000  C
  C211     1.0000 0.72918  0.72899  0.72980  Biso   1.000  C
  C212     1.0000 0.68328  0.75253  0.70802  Biso   1.000  C
  C213     1.0000 0.64555  0.78815  0.73250  Biso   1.000  C
  C214     1.0000 0.65162  0.80202  0.77696  Biso   1.000  C
  C215     1.0000 0.69494  0.77916  0.79888  Biso   1.000  C
  C216     1.0000 0.73418  0.74103  0.77452  Biso   1.000  C
  C217     1.0000 0.94416  0.72097  0.55186  Biso   1.000  C
  C218     1.0000 0.94099  0.74669  0.49462  Biso   1.000  C
  C219     1.0000 0.99956  0.77736  0.43948  Biso   1.000  C
  C220     1.0000 0.80570  0.80461  0.54390  Biso   1.000  C
  C221     1.0000 0.86173  0.87053  0.43074  Biso   1.000  C
  C222     1.0000 0.82731  0.86825  0.49038  Biso   1.000  C
  C223     1.0000 0.82400  0.92626  0.49644  Biso   1.000  C
  C224     1.0000 0.86234  0.98895  0.44312  Biso   1.000  C
  C225     1.0000 0.85999  0.04498  0.44842  Biso   1.000  C
  C226     1.0000 0.81860  0.04351  0.50650  Biso   1.000  C
  C227     1.0000 0.78143  0.98179  0.55954  Biso   1.000  C
  C228     1.0000 0.78447  0.92493  0.55446  Biso   1.000  C
  C229     1.0000 0.81538  0.10276  0.51118  Biso   1.000  C
  C230     1.0000 0.77456  0.10396  0.56728  Biso   1.000  C
  C231     1.0000 0.85621  0.16410  0.45900  Biso   1.000  C
  C232     1.0000 0.04102  0.54121  0.72980  Biso   1.000  C
  C233     1.0000 0.10870  0.53945  0.70802  Biso   1.000  C
  C234     1.0000 0.12195  0.47935  0.73250  Biso   1.000  C
  C235     1.0000 0.07142  0.42102  0.77696  Biso   1.000  C
  C236     1.0000 0.00618  0.42196  0.79888  Biso   1.000  C
  C237     1.0000 0.99130  0.48445  0.77452  Biso   1.000  C
  C238     1.0000 0.00398  0.72717  0.55186  Biso   1.000  C
  C239     1.0000 0.06439  0.75869  0.49462  Biso   1.000  C
  C240     1.0000 0.06096  0.78316  0.43948  Biso   1.000  C
  C241     1.0000 0.15040  0.65149  0.54390  Biso   1.000  C
  C242     1.0000 0.20753  0.69873  0.43074  Biso   1.000  C
  C243     1.0000 0.18231  0.64137  0.49038  Biso   1.000  C
  C244     1.0000 0.17956  0.57730  0.49644  Biso   1.000  C
  C245     1.0000 0.19454  0.56793  0.44312  Biso   1.000  C
  C246     1.0000 0.19159  0.50660  0.44842  Biso   1.000  C
  C247     1.0000 0.17490  0.44999  0.50650  Biso   1.000  C
  C248     1.0000 0.15903  0.45867  0.55954  Biso   1.000  C
  C249     1.0000 0.16107  0.52061  0.55446  Biso   1.000  C
  C250     1.0000 0.17344  0.38606  0.51118  Biso   1.000  C
  C251     1.0000 0.15816  0.32876  0.56728  Biso   1.000  C
  C252     1.0000 0.18479  0.37690  0.45900  Biso   1.000  C
  C253     1.0000 0.77101  0.45898  0.77020  Biso   1.000  C
  C254     1.0000 0.74747  0.39130  0.79198  Biso   1.000  C
  C255     1.0000 0.71185  0.37805  0.76750  Biso   1.000  C
  C256     1.0000 0.69798  0.42858  0.72304  Biso   1.000  C
  C257     1.0000 0.72084  0.49382  0.70112  Biso   1.000  C
  C258     1.0000 0.75897  0.50870  0.72548  Biso   1.000  C
  C259     1.0000 0.77903  0.49602  0.94814  Biso   1.000  C
  C260     1.0000 0.75331  0.43561  0.00538  Biso   1.000  C
  C261     1.0000 0.72264  0.43904  0.06052  Biso   1.000  C
  C262     1.0000 0.69539  0.34960  0.95610  Biso   1.000  C
  C263     1.0000 0.62947  0.29247  0.06926  Biso   1.000  C
  C264     1.0000 0.63175  0.31769  0.00962  Biso   1.000  C
  C265     1.0000 0.57374  0.32044  0.00356  Biso   1.000  C
  C266     1.0000 0.51105  0.30546  0.05688  Biso   1.000  C
  C267     1.0000 0.45502  0.30841  0.05158  Biso   1.000  C
  C268     1.0000 0.45649  0.32510  0.99350  Biso   1.000  C
  C269     1.0000 0.51821  0.34097  0.94046  Biso   1.000  C
  C270     1.0000 0.57507  0.33893  0.94554  Biso   1.000  C
  C271     1.0000 0.39724  0.32656  0.98882  Biso   1.000  C
  C272     1.0000 0.39604  0.34184  0.93272  Biso   1.000  C
  C273     1.0000 0.33590  0.31521  0.04100  Biso   1.000  C
  C274     1.0000 0.95879  0.77082  0.77020  Biso   1.000  C
  C275     1.0000 0.96055  0.81672  0.79198  Biso   1.000  C
  C276     1.0000 0.02065  0.85445  0.76750  Biso   1.000  C
  C277     1.0000 0.07898  0.84838  0.72304  Biso   1.000  C
  C278     1.0000 0.07804  0.80506  0.70112  Biso   1.000  C
  C279     1.0000 0.01555  0.76582  0.72548  Biso   1.000  C
  C280     1.0000 0.77283  0.55584  0.94814  Biso   1.000  C
  C281     1.0000 0.74131  0.55901  0.00538  Biso   1.000  C
  C282     1.0000 0.71684  0.50044  0.06052  Biso   1.000  C
  C283     1.0000 0.84851  0.69430  0.95610  Biso   1.000  C
  C284     1.0000 0.80127  0.63827  0.06926  Biso   1.000  C
  C285     1.0000 0.85863  0.67269  0.00962  Biso   1.000  C
  C286     1.0000 0.92270  0.67600  0.00356  Biso   1.000  C
  C287     1.0000 0.93207  0.63766  0.05688  Biso   1.000  C
  C288     1.0000 0.99340  0.64001  0.05158  Biso   1.000  C
  C289     1.0000 0.05001  0.68140  0.99350  Biso   1.000  C
  C290     1.0000 0.04133  0.71857  0.94046  Biso   1.000  C
  C291     1.0000 0.97939  0.71553  0.94554  Biso   1.000  C
  C292     1.0000 0.11394  0.68462  0.98882  Biso   1.000  C
  C293     1.0000 0.17124  0.72544  0.93272  Biso   1.000  C
  C294     1.0000 0.12310  0.64379  0.04100  Biso   1.000  C
  C295     1.0000 0.27082  0.27101  0.27020  Biso   1.000  C
  C296     1.0000 0.31672  0.24747  0.29198  Biso   1.000  C
  C297     1.0000 0.35445  0.21185  0.26750  Biso   1.000  C
  C298     1.0000 0.34838  0.19798  0.22304  Biso   1.000  C
  C299     1.0000 0.30506  0.22084  0.20112  Biso   1.000  C
  C300     1.0000 0.26582  0.25897  0.22548  Biso   1.000  C
  C301     1.0000 0.05584  0.27903  0.44814  Biso   1.000  C
  C302     1.0000 0.05901  0.25331  0.50538  Biso   1.000  C
  C303     1.0000 0.00044  0.22264  0.56052  Biso   1.000  C
  C304     1.0000 0.19430  0.19539  0.45610  Biso   1.000  C
  C305     1.0000 0.13827  0.12947  0.56926  Biso   1.000  C
  C306     1.0000 0.17269  0.13175  0.50962  Biso   1.000  C
  C307     1.0000 0.17600  0.07374  0.50356  Biso   1.000  C
  C308     1.0000 0.13766  0.01105  0.55688  Biso   1.000  C
  C309     1.0000 0.14001  0.95502  0.55158  Biso   1.000  C
  C310     1.0000 0.18140  0.95649  0.49350  Biso   1.000  C
  C311     1.0000 0.21857  0.01821  0.44046  Biso   1.000  C
  C312     1.0000 0.21553  0.07507  0.44554  Biso   1.000  C
  C313     1.0000 0.18462  0.89724  0.48882  Biso   1.000  C
  C314     1.0000 0.22544  0.89604  0.43272  Biso   1.000  C
  C315     1.0000 0.14379  0.83590  0.54100  Biso   1.000  C
  C316     1.0000 0.95898  0.45879  0.27020  Biso   1.000  C
  C317     1.0000 0.89130  0.46055  0.29198  Biso   1.000  C
  C318     1.0000 0.87805  0.52065  0.26750  Biso   1.000  C
  C319     1.0000 0.92858  0.57898  0.22304  Biso   1.000  C
  C320     1.0000 0.99382  0.57804  0.20112  Biso   1.000  C
  C321     1.0000 0.00870  0.51555  0.22548  Biso   1.000  C
  C322     1.0000 0.99602  0.27283  0.44814  Biso   1.000  C
  C323     1.0000 0.93561  0.24131  0.50538  Biso   1.000  C
  C324     1.0000 0.93904  0.21684  0.56052  Biso   1.000  C
  C325     1.0000 0.84960  0.34851  0.45610  Biso   1.000  C
  C326     1.0000 0.79247  0.30127  0.56926  Biso   1.000  C
  C327     1.0000 0.81769  0.35863  0.50962  Biso   1.000  C
  C328     1.0000 0.82044  0.42270  0.50356  Biso   1.000  C
  C329     1.0000 0.80546  0.43207  0.55688  Biso   1.000  C
  C330     1.0000 0.80841  0.49340  0.55158  Biso   1.000  C
  C331     1.0000 0.82510  0.55001  0.49350  Biso   1.000  C
  C332     1.0000 0.84097  0.54133  0.44046  Biso   1.000  C
  C333     1.0000 0.83893  0.47939  0.44554  Biso   1.000  C
  C334     1.0000 0.82656  0.61394  0.48882  Biso   1.000  C
  C335     1.0000 0.84184  0.67124  0.43272  Biso   1.000  C
  C336     1.0000 0.81521  0.62310  0.54100  Biso   1.000  C
  N69      1.0000 0.18187  0.44671  0.25030  Biso   1.000  N
  N70      1.0000 0.19213  0.51116  0.21524  Biso   1.000  N
  N71      1.0000 0.21043  0.43294  0.28652  Biso   1.000  N
  N72      1.0000 0.18859  0.49079  0.11352  Biso   1.000  N
  N73      1.0000 0.25293  0.62210  0.08526  Biso   1.000  N
  N74      1.0000 0.37279  0.72909  0.88242  Biso   1.000  N
  N75      1.0000 0.60491  0.64561  0.11378  Biso   1.000  N
  N76      1.0000 0.71454  0.69286  0.91724  Biso   1.000  N
  N77      1.0000 0.06783  0.30299  0.25030  Biso   1.000  N
  N78      1.0000 0.09263  0.27360  0.21524  Biso   1.000  N
  N79      1.0000 0.00305  0.28054  0.28652  Biso   1.000  N
  N80      1.0000 0.19789  0.39569  0.11352  Biso   1.000  N
  N81      1.0000 0.16181  0.29264  0.08526  Biso   1.000  N
  N82      1.0000 0.24479  0.38849  0.88242  Biso   1.000  N
  N83      1.0000 0.78131  0.24061  0.11378  Biso   1.000  N
  N84      1.0000 0.86822  0.38990  0.91724  Biso   1.000  N
  N85      1.0000 0.80299  0.68187  0.75030  Biso   1.000  N
  N86      1.0000 0.77360  0.69213  0.71524  Biso   1.000  N
  N87      1.0000 0.78054  0.71043  0.78652  Biso   1.000  N
  N88      1.0000 0.89569  0.68859  0.61352  Biso   1.000  N
  N89      1.0000 0.79264  0.75293  0.58526  Biso   1.000  N
  N90      1.0000 0.88849  0.87279  0.38242  Biso   1.000  N
  N91      1.0000 0.74061  0.10491  0.61378  Biso   1.000  N
  N92      1.0000 0.88990  0.21454  0.41724  Biso   1.000  N
  N93      1.0000 0.94671  0.56783  0.75030  Biso   1.000  N
  N94      1.0000 0.01116  0.59263  0.71524  Biso   1.000  N
  N95      1.0000 0.93294  0.50305  0.78652  Biso   1.000  N
  N96      1.0000 0.99079  0.69789  0.61352  Biso   1.000  N
  N97      1.0000 0.12210  0.66181  0.58526  Biso   1.000  N
  N98      1.0000 0.22909  0.74479  0.38242  Biso   1.000  N
  N99      1.0000 0.14561  0.28131  0.61378  Biso   1.000  N
  N100     1.0000 0.19286  0.36822  0.41724  Biso   1.000  N
  N101     1.0000 0.81813  0.55329  0.74970  Biso   1.000  N
  N102     1.0000 0.80787  0.48884  0.78476  Biso   1.000  N
  N103     1.0000 0.78957  0.56706  0.71348  Biso   1.000  N
  N104     1.0000 0.81141  0.50921  0.88648  Biso   1.000  N
  N105     1.0000 0.74707  0.37790  0.91474  Biso   1.000  N
  N106     1.0000 0.62721  0.27091  0.11758  Biso   1.000  N
  N107     1.0000 0.39509  0.35439  0.88622  Biso   1.000  N
  N108     1.0000 0.28546  0.30714  0.08276  Biso   1.000  N
  N109     1.0000 0.93217  0.69701  0.74970  Biso   1.000  N
  N110     1.0000 0.90737  0.72640  0.78476  Biso   1.000  N
  N111     1.0000 0.99695  0.71946  0.71348  Biso   1.000  N
  N112     1.0000 0.80211  0.60431  0.88648  Biso   1.000  N
  N113     1.0000 0.83819  0.70736  0.91474  Biso   1.000  N
  N114     1.0000 0.75521  0.61151  0.11758  Biso   1.000  N
  N115     1.0000 0.21869  0.75939  0.88622  Biso   1.000  N
  N116     1.0000 0.13178  0.61010  0.08276  Biso   1.000  N
  N117     1.0000 0.19701  0.31813  0.24970  Biso   1.000  N
  N118     1.0000 0.22640  0.30787  0.28476  Biso   1.000  N
  N119     1.0000 0.21946  0.28957  0.21348  Biso   1.000  N
  N120     1.0000 0.10431  0.31141  0.38648  Biso   1.000  N
  N121     1.0000 0.20736  0.24707  0.41474  Biso   1.000  N
  N122     1.0000 0.11151  0.12721  0.61758  Biso   1.000  N
  N123     1.0000 0.25939  0.89509  0.38622  Biso   1.000  N
  N124     1.0000 0.11010  0.78546  0.58276  Biso   1.000  N
  N125     1.0000 0.05329  0.43217  0.24970  Biso   1.000  N
  N126     1.0000 0.98884  0.40737  0.28476  Biso   1.000  N
  N127     1.0000 0.06706  0.49695  0.21348  Biso   1.000  N
  N128     1.0000 0.00921  0.30211  0.38648  Biso   1.000  N
  N129     1.0000 0.87790  0.33819  0.41474  Biso   1.000  N
  N130     1.0000 0.77091  0.25521  0.61758  Biso   1.000  N
  N131     1.0000 0.85439  0.71869  0.38622  Biso   1.000  N
  N132     1.0000 0.80714  0.63178  0.58276  Biso   1.000  N
  N133     1.0000 0.17550  0.42550  0.14900  Biso   1.000  N
  N134     1.0000 0.92550  0.67550  0.64900  Biso   1.000  N
  N135     1.0000 0.82450  0.57450  0.85100  Biso   1.000  N
  N136     1.0000 0.07450  0.32450  0.35100  Biso   1.000  N
  O9       1.0000 0.13268  0.62154  0.18676  Biso   1.000  O
  O10      1.0000 0.18056  0.19170  0.18676  Biso   1.000  O
  O11      1.0000 0.69170  0.63268  0.68676  Biso   1.000  O
  O12      1.0000 0.12154  0.68056  0.68676  Biso   1.000  O
  O13      1.0000 0.86732  0.37846  0.81324  Biso   1.000  O
  O14      1.0000 0.81944  0.80830  0.81324  Biso   1.000  O
  O15      1.0000 0.30830  0.36732  0.31324  Biso   1.000  O
  O16      1.0000 0.87846  0.31944  0.31324  Biso   1.000  O
