data_image0
_cell_length_a       23.169
_cell_length_b       23.169
_cell_length_c       26.9503
_cell_angle_alpha    64.5421
_cell_angle_beta     64.5421
_cell_angle_gamma    89.9999

_symmetry_space_group_name_H-M    P 1
_symmetry_int_tables_number       1

loop_
  _symmetry_equiv_pos_as_xyz
  'x, y, z'

loop_
  _atom_site_label
  _atom_site_occupancy
  _atom_site_fract_x
  _atom_site_fract_y
  _atom_site_fract_z
  _atom_site_thermal_displace_type
  _atom_site_B_iso_or_equiv
  _atom_site_type_symbol
  Co1      1.0000 0.34278  0.94271  0.85014  Biso   1.000  Co
  Co2      1.0000 0.30708  0.20715  0.85014  Biso   1.000  Co
  Co3      1.0000 0.44271  0.80708  0.35014  Biso   1.000  Co
  Co4      1.0000 0.70715  0.84278  0.35014  Biso   1.000  Co
  Co5      1.0000 0.65722  0.05729  0.14986  Biso   1.000  Co
  Co6      1.0000 0.69292  0.79285  0.14986  Biso   1.000  Co
  Co7      1.0000 0.55729  0.19292  0.64986  Biso   1.000  Co
  Co8      1.0000 0.29285  0.15722  0.64986  Biso   1.000  Co
  Co9      1.0000 0.37500  0.12500  0.75000  Biso   1.000  Co
  Co10     1.0000 0.62500  0.87500  0.25000  Biso   1.000  Co
  H1       1.0000 0.25900  0.85670  0.82180  Biso   1.000  H
  H2       1.0000 0.20070  0.83080  0.78100  Biso   1.000  H
  H3       1.0000 0.17740  0.91120  0.70860  Biso   1.000  H
  H4       1.0000 0.21370  0.02230  0.67360  Biso   1.000  H
  H5       1.0000 0.26020  0.89670  0.00460  Biso   1.000  H
  H6       1.0000 0.20840  0.90180  0.09700  Biso   1.000  H
  H7       1.0000 0.11960  0.85150  0.91080  Biso   1.000  H
  H8       1.0000 0.02640  0.85430  0.90200  Biso   1.000  H
  H9       1.0000 0.92010  0.79650  0.08660  Biso   1.000  H
  H10      1.0000 0.01350  0.79120  0.09560  Biso   1.000  H
  H11      1.0000 0.41920  0.32150  0.82180  Biso   1.000  H
  H12      1.0000 0.51830  0.38820  0.78100  Biso   1.000  H
  H13      1.0000 0.61400  0.38020  0.70860  Biso   1.000  H
  H14      1.0000 0.61270  0.30410  0.67360  Biso   1.000  H
  H15      1.0000 0.23520  0.09870  0.00460  Biso   1.000  H
  H16      1.0000 0.19460  0.00120  0.09700  Biso   1.000  H
  H17      1.0000 0.46960  0.23770  0.91080  Biso   1.000  H
  H18      1.0000 0.57160  0.24370  0.90200  Biso   1.000  H
  H19      1.0000 0.49330  0.11690  0.08660  Biso   1.000  H
  H20      1.0000 0.39090  0.11320  0.09560  Biso   1.000  H
  H21      1.0000 0.35670  0.91920  0.32180  Biso   1.000  H
  H22      1.0000 0.33080  0.01830  0.28100  Biso   1.000  H
  H23      1.0000 0.41120  0.11400  0.20860  Biso   1.000  H
  H24      1.0000 0.52230  0.11270  0.17360  Biso   1.000  H
  H25      1.0000 0.39670  0.73520  0.50460  Biso   1.000  H
  H26      1.0000 0.40180  0.69460  0.59700  Biso   1.000  H
  H27      1.0000 0.35150  0.96960  0.41080  Biso   1.000  H
  H28      1.0000 0.35430  0.07160  0.40200  Biso   1.000  H
  H29      1.0000 0.29650  0.99330  0.58660  Biso   1.000  H
  H30      1.0000 0.29120  0.89090  0.59560  Biso   1.000  H
  H31      1.0000 0.82150  0.75900  0.32180  Biso   1.000  H
  H32      1.0000 0.88820  0.70070  0.28100  Biso   1.000  H
  H33      1.0000 0.88020  0.67740  0.20860  Biso   1.000  H
  H34      1.0000 0.80410  0.71370  0.17360  Biso   1.000  H
  H35      1.0000 0.59870  0.76020  0.50460  Biso   1.000  H
  H36      1.0000 0.50120  0.70840  0.59700  Biso   1.000  H
  H37      1.0000 0.73770  0.61960  0.41080  Biso   1.000  H
  H38      1.0000 0.74370  0.52640  0.40200  Biso   1.000  H
  H39      1.0000 0.61690  0.42010  0.58660  Biso   1.000  H
  H40      1.0000 0.61320  0.51350  0.59560  Biso   1.000  H
  H41      1.0000 0.74100  0.14330  0.17820  Biso   1.000  H
  H42      1.0000 0.79930  0.16920  0.21900  Biso   1.000  H
  H43      1.0000 0.82260  0.08880  0.29140  Biso   1.000  H
  H44      1.0000 0.78630  0.97770  0.32640  Biso   1.000  H
  H45      1.0000 0.73980  0.10330  0.99540  Biso   1.000  H
  H46      1.0000 0.79160  0.09820  0.90300  Biso   1.000  H
  H47      1.0000 0.88040  0.14850  0.08920  Biso   1.000  H
  H48      1.0000 0.97360  0.14570  0.09800  Biso   1.000  H
  H49      1.0000 0.07990  0.20350  0.91340  Biso   1.000  H
  H50      1.0000 0.98650  0.20880  0.90440  Biso   1.000  H
  H51      1.0000 0.58080  0.67850  0.17820  Biso   1.000  H
  H52      1.0000 0.48170  0.61180  0.21900  Biso   1.000  H
  H53      1.0000 0.38600  0.61980  0.29140  Biso   1.000  H
  H54      1.0000 0.38730  0.69590  0.32640  Biso   1.000  H
  H55      1.0000 0.76480  0.90130  0.99540  Biso   1.000  H
  H56      1.0000 0.80540  0.99880  0.90300  Biso   1.000  H
  H57      1.0000 0.53040  0.76230  0.08920  Biso   1.000  H
  H58      1.0000 0.42840  0.75630  0.09800  Biso   1.000  H
  H59      1.0000 0.50670  0.88310  0.91340  Biso   1.000  H
  H60      1.0000 0.60910  0.88680  0.90440  Biso   1.000  H
  H61      1.0000 0.64330  0.08080  0.67820  Biso   1.000  H
  H62      1.0000 0.66920  0.98170  0.71900  Biso   1.000  H
  H63      1.0000 0.58880  0.88600  0.79140  Biso   1.000  H
  H64      1.0000 0.47770  0.88730  0.82640  Biso   1.000  H
  H65      1.0000 0.60330  0.26480  0.49540  Biso   1.000  H
  H66      1.0000 0.59820  0.30540  0.40300  Biso   1.000  H
  H67      1.0000 0.64850  0.03040  0.58920  Biso   1.000  H
  H68      1.0000 0.64570  0.92840  0.59800  Biso   1.000  H
  H69      1.0000 0.70350  0.00670  0.41340  Biso   1.000  H
  H70      1.0000 0.70880  0.10910  0.40440  Biso   1.000  H
  H71      1.0000 0.17850  0.24100  0.67820  Biso   1.000  H
  H72      1.0000 0.11180  0.29930  0.71900  Biso   1.000  H
  H73      1.0000 0.11980  0.32260  0.79140  Biso   1.000  H
  H74      1.0000 0.19590  0.28630  0.82640  Biso   1.000  H
  H75      1.0000 0.40130  0.23980  0.49540  Biso   1.000  H
  H76      1.0000 0.49880  0.29160  0.40300  Biso   1.000  H
  H77      1.0000 0.26230  0.38040  0.58920  Biso   1.000  H
  H78      1.0000 0.25630  0.47360  0.59800  Biso   1.000  H
  H79      1.0000 0.38310  0.57990  0.41340  Biso   1.000  H
  H80      1.0000 0.38680  0.48650  0.40440  Biso   1.000  H
  C1       1.0000 0.27316  0.95609  0.77040  Biso   1.000  C
  C2       1.0000 0.25054  0.88934  0.79212  Biso   1.000  C
  C3       1.0000 0.21581  0.87461  0.76798  Biso   1.000  C
  C4       1.0000 0.20186  0.92356  0.72368  Biso   1.000  C
  C5       1.0000 0.22350  0.98980  0.70220  Biso   1.000  C
  C6       1.0000 0.26073  0.00496  0.72594  Biso   1.000  C
  C7       1.0000 0.27985  0.99615  0.94810  Biso   1.000  C
  C8       1.0000 0.25547  0.93657  0.00446  Biso   1.000  C
  C9       1.0000 0.22445  0.94005  0.05910  Biso   1.000  C
  C10      1.0000 0.13421  0.79071  0.06858  Biso   1.000  C
  C11      1.0000 0.19863  0.84696  0.95728  Biso   1.000  C
  C12      1.0000 0.13604  0.81654  0.00992  Biso   1.000  C
  C13      1.0000 0.07796  0.81896  0.00428  Biso   1.000  C
  C14      1.0000 0.07934  0.83924  0.94632  Biso   1.000  C
  C15      1.0000 0.02381  0.84151  0.94078  Biso   1.000  C
  C16      1.0000 0.96133  0.82443  0.99414  Biso   1.000  C
  C17      1.0000 0.96010  0.80660  0.05140  Biso   1.000  C
  C18      1.0000 0.01597  0.80357  0.05686  Biso   1.000  C
  C19      1.0000 0.90268  0.82658  0.98884  Biso   1.000  C
  C20      1.0000 0.84134  0.81552  0.03976  Biso   1.000  C
  C21      1.0000 0.90116  0.84176  0.93288  Biso   1.000  C
  C22      1.0000 0.45644  0.27351  0.77040  Biso   1.000  C
  C23      1.0000 0.45734  0.31854  0.79212  Biso   1.000  C
  C24      1.0000 0.51621  0.35741  0.76798  Biso   1.000  C
  C25      1.0000 0.57446  0.35276  0.72368  Biso   1.000  C
  C26      1.0000 0.57430  0.30800  0.70220  Biso   1.000  C
  C27      1.0000 0.51333  0.26910  0.72594  Biso   1.000  C
  C28      1.0000 0.27205  0.05575  0.94810  Biso   1.000  C
  C29      1.0000 0.24007  0.05897  0.00446  Biso   1.000  C
  C30      1.0000 0.21645  0.00085  0.05910  Biso   1.000  C
  C31      1.0000 0.29721  0.14071  0.06858  Biso   1.000  C
  C32      1.0000 0.34409  0.19576  0.95728  Biso   1.000  C
  C33      1.0000 0.35404  0.17354  0.00992  Biso   1.000  C
  C34      1.0000 0.41776  0.17676  0.00428  Biso   1.000  C
  C35      1.0000 0.47434  0.21444  0.94632  Biso   1.000  C
  C36      1.0000 0.53541  0.21771  0.94078  Biso   1.000  C
  C37      1.0000 0.54453  0.18143  0.99414  Biso   1.000  C
  C38      1.0000 0.48850  0.14200  0.05140  Biso   1.000  C
  C39      1.0000 0.42717  0.13957  0.05686  Biso   1.000  C
  C40      1.0000 0.60848  0.18458  0.98884  Biso   1.000  C
  C41      1.0000 0.61890  0.14472  0.03976  Biso   1.000  C
  C42      1.0000 0.66596  0.22536  0.93288  Biso   1.000  C
  C43      1.0000 0.45609  0.95644  0.27040  Biso   1.000  C
  C44      1.0000 0.38934  0.95734  0.29212  Biso   1.000  C
  C45      1.0000 0.37461  0.01621  0.26798  Biso   1.000  C
  C46      1.0000 0.42356  0.07446  0.22368  Biso   1.000  C
  C47      1.0000 0.48980  0.07430  0.20220  Biso   1.000  C
  C48      1.0000 0.50496  0.01333  0.22594  Biso   1.000  C
  C49      1.0000 0.49615  0.77205  0.44810  Biso   1.000  C
  C50      1.0000 0.43657  0.74007  0.50446  Biso   1.000  C
  C51      1.0000 0.44005  0.71645  0.55910  Biso   1.000  C
  C52      1.0000 0.29071  0.79721  0.56858  Biso   1.000  C
  C53      1.0000 0.34696  0.84409  0.45728  Biso   1.000  C
  C54      1.0000 0.31654  0.85404  0.50992  Biso   1.000  C
  C55      1.0000 0.31896  0.91776  0.50428  Biso   1.000  C
  C56      1.0000 0.33924  0.97434  0.44632  Biso   1.000  C
  C57      1.0000 0.34151  0.03541  0.44078  Biso   1.000  C
  C58      1.0000 0.32443  0.04453  0.49414  Biso   1.000  C
  C59      1.0000 0.30660  0.98850  0.55140  Biso   1.000  C
  C60      1.0000 0.30357  0.92717  0.55686  Biso   1.000  C
  C61      1.0000 0.32658  0.10848  0.48884  Biso   1.000  C
  C62      1.0000 0.31552  0.11890  0.53976  Biso   1.000  C
  C63      1.0000 0.34176  0.16596  0.43288  Biso   1.000  C
  C64      1.0000 0.77351  0.77316  0.27040  Biso   1.000  C
  C65      1.0000 0.81854  0.75054  0.29212  Biso   1.000  C
  C66      1.0000 0.85741  0.71581  0.26798  Biso   1.000  C
  C67      1.0000 0.85276  0.70186  0.22368  Biso   1.000  C
  C68      1.0000 0.80800  0.72350  0.20220  Biso   1.000  C
  C69      1.0000 0.76910  0.76073  0.22594  Biso   1.000  C
  C70      1.0000 0.55575  0.77985  0.44810  Biso   1.000  C
  C71      1.0000 0.55897  0.75547  0.50446  Biso   1.000  C
  C72      1.0000 0.50085  0.72445  0.55910  Biso   1.000  C
  C73      1.0000 0.64071  0.63421  0.56858  Biso   1.000  C
  C74      1.0000 0.69576  0.69863  0.45728  Biso   1.000  C
  C75      1.0000 0.67354  0.63604  0.50992  Biso   1.000  C
  C76      1.0000 0.67676  0.57796  0.50428  Biso   1.000  C
  C77      1.0000 0.71444  0.57934  0.44632  Biso   1.000  C
  C78      1.0000 0.71771  0.52381  0.44078  Biso   1.000  C
  C79      1.0000 0.68143  0.46133  0.49414  Biso   1.000  C
  C80      1.0000 0.64200  0.46010  0.55140  Biso   1.000  C
  C81      1.0000 0.63957  0.51597  0.55686  Biso   1.000  C
  C82      1.0000 0.68458  0.40268  0.48884  Biso   1.000  C
  C83      1.0000 0.64472  0.34134  0.53976  Biso   1.000  C
  C84      1.0000 0.72536  0.40116  0.43288  Biso   1.000  C
  C85      1.0000 0.72684  0.04391  0.22960  Biso   1.000  C
  C86      1.0000 0.74946  0.11066  0.20788  Biso   1.000  C
  C87      1.0000 0.78419  0.12539  0.23202  Biso   1.000  C
  C88      1.0000 0.79814  0.07644  0.27632  Biso   1.000  C
  C89      1.0000 0.77650  0.01020  0.29780  Biso   1.000  C
  C90      1.0000 0.73927  0.99504  0.27406  Biso   1.000  C
  C91      1.0000 0.72015  0.00385  0.05190  Biso   1.000  C
  C92      1.0000 0.74453  0.06343  0.99554  Biso   1.000  C
  C93      1.0000 0.77555  0.05995  0.94090  Biso   1.000  C
  C94      1.0000 0.86579  0.20929  0.93142  Biso   1.000  C
  C95      1.0000 0.80137  0.15304  0.04272  Biso   1.000  C
  C96      1.0000 0.86396  0.18346  0.99008  Biso   1.000  C
  C97      1.0000 0.92204  0.18104  0.99572  Biso   1.000  C
  C98      1.0000 0.92066  0.16076  0.05368  Biso   1.000  C
  C99      1.0000 0.97619  0.15849  0.05922  Biso   1.000  C
  C100     1.0000 0.03867  0.17557  0.00586  Biso   1.000  C
  C101     1.0000 0.03990  0.19340  0.94860  Biso   1.000  C
  C102     1.0000 0.98403  0.19643  0.94314  Biso   1.000  C
  C103     1.0000 0.09732  0.17342  0.01116  Biso   1.000  C
  C104     1.0000 0.15866  0.18448  0.96024  Biso   1.000  C
  C105     1.0000 0.09884  0.15824  0.06712  Biso   1.000  C
  C106     1.0000 0.54356  0.72649  0.22960  Biso   1.000  C
  C107     1.0000 0.54266  0.68146  0.20788  Biso   1.000  C
  C108     1.0000 0.48379  0.64259  0.23202  Biso   1.000  C
  C109     1.0000 0.42554  0.64724  0.27632  Biso   1.000  C
  C110     1.0000 0.42570  0.69200  0.29780  Biso   1.000  C
  C111     1.0000 0.48667  0.73090  0.27406  Biso   1.000  C
  C112     1.0000 0.72795  0.94425  0.05190  Biso   1.000  C
  C113     1.0000 0.75993  0.94103  0.99554  Biso   1.000  C
  C114     1.0000 0.78355  0.99915  0.94090  Biso   1.000  C
  C115     1.0000 0.70279  0.85929  0.93142  Biso   1.000  C
  C116     1.0000 0.65591  0.80424  0.04272  Biso   1.000  C
  C117     1.0000 0.64596  0.82646  0.99008  Biso   1.000  C
  C118     1.0000 0.58224  0.82324  0.99572  Biso   1.000  C
  C119     1.0000 0.52566  0.78556  0.05368  Biso   1.000  C
  C120     1.0000 0.46459  0.78229  0.05922  Biso   1.000  C
  C121     1.0000 0.45547  0.81857  0.00586  Biso   1.000  C
  C122     1.0000 0.51150  0.85800  0.94860  Biso   1.000  C
  C123     1.0000 0.57283  0.86043  0.94314  Biso   1.000  C
  C124     1.0000 0.39152  0.81542  0.01116  Biso   1.000  C
  C125     1.0000 0.38110  0.85528  0.96024  Biso   1.000  C
  C126     1.0000 0.33404  0.77464  0.06712  Biso   1.000  C
  C127     1.0000 0.54391  0.04356  0.72960  Biso   1.000  C
  C128     1.0000 0.61066  0.04266  0.70788  Biso   1.000  C
  C129     1.0000 0.62539  0.98379  0.73202  Biso   1.000  C
  C130     1.0000 0.57644  0.92554  0.77632  Biso   1.000  C
  C131     1.0000 0.51020  0.92570  0.79780  Biso   1.000  C
  C132     1.0000 0.49504  0.98667  0.77406  Biso   1.000  C
  C133     1.0000 0.50385  0.22795  0.55190  Biso   1.000  C
  C134     1.0000 0.56343  0.25993  0.49554  Biso   1.000  C
  C135     1.0000 0.55995  0.28355  0.44090  Biso   1.000  C
  C136     1.0000 0.70929  0.20279  0.43142  Biso   1.000  C
  C137     1.0000 0.65304  0.15591  0.54272  Biso   1.000  C
  C138     1.0000 0.68346  0.14596  0.49008  Biso   1.000  C
  C139     1.0000 0.68104  0.08224  0.49572  Biso   1.000  C
  C140     1.0000 0.66076  0.02566  0.55368  Biso   1.000  C
  C141     1.0000 0.65849  0.96459  0.55922  Biso   1.000  C
  C142     1.0000 0.67557  0.95547  0.50586  Biso   1.000  C
  C143     1.0000 0.69340  0.01150  0.44860  Biso   1.000  C
  C144     1.0000 0.69643  0.07283  0.44314  Biso   1.000  C
  C145     1.0000 0.67342  0.89152  0.51116  Biso   1.000  C
  C146     1.0000 0.68448  0.88110  0.46024  Biso   1.000  C
  C147     1.0000 0.65824  0.83404  0.56712  Biso   1.000  C
  C148     1.0000 0.22649  0.22684  0.72960  Biso   1.000  C
  C149     1.0000 0.18146  0.24946  0.70788  Biso   1.000  C
  C150     1.0000 0.14259  0.28419  0.73202  Biso   1.000  C
  C151     1.0000 0.14724  0.29814  0.77632  Biso   1.000  C
  C152     1.0000 0.19200  0.27650  0.79780  Biso   1.000  C
  C153     1.0000 0.23090  0.23927  0.77406  Biso   1.000  C
  C154     1.0000 0.44425  0.22015  0.55190  Biso   1.000  C
  C155     1.0000 0.44103  0.24453  0.49554  Biso   1.000  C
  C156     1.0000 0.49915  0.27555  0.44090  Biso   1.000  C
  C157     1.0000 0.35929  0.36579  0.43142  Biso   1.000  C
  C158     1.0000 0.30424  0.30137  0.54272  Biso   1.000  C
  C159     1.0000 0.32646  0.36396  0.49008  Biso   1.000  C
  C160     1.0000 0.32324  0.42204  0.49572  Biso   1.000  C
  C161     1.0000 0.28556  0.42066  0.55368  Biso   1.000  C
  C162     1.0000 0.28229  0.47619  0.55922  Biso   1.000  C
  C163     1.0000 0.31857  0.53867  0.50586  Biso   1.000  C
  C164     1.0000 0.35800  0.53990  0.44860  Biso   1.000  C
  C165     1.0000 0.36043  0.48403  0.44314  Biso   1.000  C
  C166     1.0000 0.31542  0.59732  0.51116  Biso   1.000  C
  C167     1.0000 0.35528  0.65866  0.46024  Biso   1.000  C
  C168     1.0000 0.27464  0.59884  0.56712  Biso   1.000  C
  N1       1.0000 0.31007  0.98716  0.78422  Biso   1.000  N
  N2       1.0000 0.31925  0.05120  0.74952  Biso   1.000  N
  N3       1.0000 0.29053  0.06398  0.71358  Biso   1.000  N
  N4       1.0000 0.31261  0.00885  0.88722  Biso   1.000  N
  N5       1.0000 0.13177  0.77027  0.11646  Biso   1.000  N
  N6       1.0000 0.25037  0.87429  0.91618  Biso   1.000  N
  N7       1.0000 0.79127  0.80717  0.08096  Biso   1.000  N
  N8       1.0000 0.90209  0.85459  0.88622  Biso   1.000  N
  N9       1.0000 0.40571  0.22862  0.78422  Biso   1.000  N
  N10      1.0000 0.43123  0.19928  0.74952  Biso   1.000  N
  N11      1.0000 0.49589  0.22244  0.71358  Biso   1.000  N
  N12      1.0000 0.30017  0.10393  0.88722  Biso   1.000  N
  N13      1.0000 0.25177  0.11327  0.11646  Biso   1.000  N
  N14      1.0000 0.33345  0.20953  0.91618  Biso   1.000  N
  N15      1.0000 0.62777  0.11187  0.08096  Biso   1.000  N
  N16      1.0000 0.71169  0.25919  0.88622  Biso   1.000  N
  N17      1.0000 0.48716  0.90571  0.28422  Biso   1.000  N
  N18      1.0000 0.55120  0.93123  0.24952  Biso   1.000  N
  N19      1.0000 0.56398  0.99589  0.21358  Biso   1.000  N
  N20      1.0000 0.50885  0.80017  0.38722  Biso   1.000  N
  N21      1.0000 0.27027  0.75177  0.61646  Biso   1.000  N
  N22      1.0000 0.37429  0.83345  0.41618  Biso   1.000  N
  N23      1.0000 0.30717  0.12777  0.58096  Biso   1.000  N
  N24      1.0000 0.35459  0.21169  0.38622  Biso   1.000  N
  N25      1.0000 0.72862  0.81007  0.28422  Biso   1.000  N
  N26      1.0000 0.69928  0.81925  0.24952  Biso   1.000  N
  N27      1.0000 0.72244  0.79053  0.21358  Biso   1.000  N
  N28      1.0000 0.60393  0.81261  0.38722  Biso   1.000  N
  N29      1.0000 0.61327  0.63177  0.61646  Biso   1.000  N
  N30      1.0000 0.70953  0.75037  0.41618  Biso   1.000  N
  N31      1.0000 0.61187  0.29127  0.58096  Biso   1.000  N
  N32      1.0000 0.75919  0.40209  0.38622  Biso   1.000  N
  N33      1.0000 0.68993  0.01284  0.21578  Biso   1.000  N
  N34      1.0000 0.68075  0.94880  0.25048  Biso   1.000  N
  N35      1.0000 0.70947  0.93602  0.28642  Biso   1.000  N
  N36      1.0000 0.68739  0.99115  0.11278  Biso   1.000  N
  N37      1.0000 0.86823  0.22973  0.88354  Biso   1.000  N
  N38      1.0000 0.74963  0.12571  0.08382  Biso   1.000  N
  N39      1.0000 0.20873  0.19283  0.91904  Biso   1.000  N
  N40      1.0000 0.09791  0.14541  0.11378  Biso   1.000  N
  N41      1.0000 0.59429  0.77138  0.21578  Biso   1.000  N
  N42      1.0000 0.56877  0.80072  0.25048  Biso   1.000  N
  N43      1.0000 0.50411  0.77756  0.28642  Biso   1.000  N
  N44      1.0000 0.69983  0.89607  0.11278  Biso   1.000  N
  N45      1.0000 0.74823  0.88673  0.88354  Biso   1.000  N
  N46      1.0000 0.66655  0.79047  0.08382  Biso   1.000  N
  N47      1.0000 0.37223  0.88813  0.91904  Biso   1.000  N
  N48      1.0000 0.28831  0.74081  0.11378  Biso   1.000  N
  N49      1.0000 0.51284  0.09429  0.71578  Biso   1.000  N
  N50      1.0000 0.44880  0.06877  0.75048  Biso   1.000  N
  N51      1.0000 0.43602  0.00411  0.78642  Biso   1.000  N
  N52      1.0000 0.49115  0.19983  0.61278  Biso   1.000  N
  N53      1.0000 0.72973  0.24823  0.38354  Biso   1.000  N
  N54      1.0000 0.62571  0.16655  0.58382  Biso   1.000  N
  N55      1.0000 0.69283  0.87223  0.41904  Biso   1.000  N
  N56      1.0000 0.64541  0.78831  0.61378  Biso   1.000  N
  N57      1.0000 0.27138  0.18993  0.71578  Biso   1.000  N
  N58      1.0000 0.30072  0.18075  0.75048  Biso   1.000  N
  N59      1.0000 0.27756  0.20947  0.78642  Biso   1.000  N
  N60      1.0000 0.39607  0.18739  0.61278  Biso   1.000  N
  N61      1.0000 0.38673  0.36823  0.38354  Biso   1.000  N
  N62      1.0000 0.29047  0.24963  0.58382  Biso   1.000  N
  N63      1.0000 0.38813  0.70873  0.41904  Biso   1.000  N
  N64      1.0000 0.24081  0.59791  0.61378  Biso   1.000  N
  N65      1.0000 0.32371  0.07371  0.85258  Biso   1.000  N
  N66      1.0000 0.57371  0.82371  0.35258  Biso   1.000  N
  N67      1.0000 0.67629  0.92629  0.14742  Biso   1.000  N
  N68      1.0000 0.42629  0.17629  0.64742  Biso   1.000  N
  O1       1.0000 0.37219  0.87615  0.81508  Biso   1.000  O
  O2       1.0000 0.31273  0.30877  0.81508  Biso   1.000  O
  O3       1.0000 0.37615  0.81273  0.31508  Biso   1.000  O
  O4       1.0000 0.80877  0.87219  0.31508  Biso   1.000  O
  O5       1.0000 0.62781  0.12385  0.18492  Biso   1.000  O
  O6       1.0000 0.68727  0.69123  0.18492  Biso   1.000  O
  O7       1.0000 0.62385  0.18727  0.68492  Biso   1.000  O
  O8       1.0000 0.19123  0.12781  0.68492  Biso   1.000  O
  Co11     1.0000 0.19292  0.55729  0.14986  Biso   1.000  Co
  Co12     1.0000 0.15722  0.29285  0.14986  Biso   1.000  Co
  Co13     1.0000 0.79285  0.69292  0.64986  Biso   1.000  Co
  Co14     1.0000 0.05729  0.65722  0.64986  Biso   1.000  Co
  Co15     1.0000 0.80708  0.44271  0.85014  Biso   1.000  Co
  Co16     1.0000 0.84278  0.70715  0.85014  Biso   1.000  Co
  Co17     1.0000 0.20715  0.30708  0.35014  Biso   1.000  Co
  Co18     1.0000 0.94271  0.34278  0.35014  Biso   1.000  Co
  Co19     1.0000 0.12500  0.37500  0.25000  Biso   1.000  Co
  Co20     1.0000 0.87500  0.62500  0.75000  Biso   1.000  Co
  H81      1.0000 0.08080  0.64330  0.17820  Biso   1.000  H
  H82      1.0000 0.98170  0.66920  0.21900  Biso   1.000  H
  H83      1.0000 0.88600  0.58880  0.29140  Biso   1.000  H
  H84      1.0000 0.88730  0.47770  0.32640  Biso   1.000  H
  H85      1.0000 0.26480  0.60330  0.99540  Biso   1.000  H
  H86      1.0000 0.30540  0.59820  0.90300  Biso   1.000  H
  H87      1.0000 0.03040  0.64850  0.08920  Biso   1.000  H
  H88      1.0000 0.92840  0.64570  0.09800  Biso   1.000  H
  H89      1.0000 0.00670  0.70350  0.91340  Biso   1.000  H
  H90      1.0000 0.10910  0.70880  0.90440  Biso   1.000  H
  H91      1.0000 0.24100  0.17850  0.17820  Biso   1.000  H
  H92      1.0000 0.29930  0.11180  0.21900  Biso   1.000  H
  H93      1.0000 0.32260  0.11980  0.29140  Biso   1.000  H
  H94      1.0000 0.28630  0.19590  0.32640  Biso   1.000  H
  H95      1.0000 0.23980  0.40130  0.99540  Biso   1.000  H
  H96      1.0000 0.29160  0.49880  0.90300  Biso   1.000  H
  H97      1.0000 0.38040  0.26230  0.08920  Biso   1.000  H
  H98      1.0000 0.47360  0.25630  0.09800  Biso   1.000  H
  H99      1.0000 0.57990  0.38310  0.91340  Biso   1.000  H
  H100     1.0000 0.48650  0.38680  0.90440  Biso   1.000  H
  H101     1.0000 0.67850  0.58080  0.67820  Biso   1.000  H
  H102     1.0000 0.61180  0.48170  0.71900  Biso   1.000  H
  H103     1.0000 0.61980  0.38600  0.79140  Biso   1.000  H
  H104     1.0000 0.69590  0.38730  0.82640  Biso   1.000  H
  H105     1.0000 0.90130  0.76480  0.49540  Biso   1.000  H
  H106     1.0000 0.99880  0.80540  0.40300  Biso   1.000  H
  H107     1.0000 0.76230  0.53040  0.58920  Biso   1.000  H
  H108     1.0000 0.75630  0.42840  0.59800  Biso   1.000  H
  H109     1.0000 0.88310  0.50670  0.41340  Biso   1.000  H
  H110     1.0000 0.88680  0.60910  0.40440  Biso   1.000  H
  H111     1.0000 0.14330  0.74100  0.67820  Biso   1.000  H
  H112     1.0000 0.16920  0.79930  0.71900  Biso   1.000  H
  H113     1.0000 0.08880  0.82260  0.79140  Biso   1.000  H
  H114     1.0000 0.97770  0.78630  0.82640  Biso   1.000  H
  H115     1.0000 0.10330  0.73980  0.49540  Biso   1.000  H
  H116     1.0000 0.09820  0.79160  0.40300  Biso   1.000  H
  H117     1.0000 0.14850  0.88040  0.58920  Biso   1.000  H
  H118     1.0000 0.14570  0.97360  0.59800  Biso   1.000  H
  H119     1.0000 0.20350  0.07990  0.41340  Biso   1.000  H
  H120     1.0000 0.20880  0.98650  0.40440  Biso   1.000  H
  H121     1.0000 0.91920  0.35670  0.82180  Biso   1.000  H
  H122     1.0000 0.01830  0.33080  0.78100  Biso   1.000  H
  H123     1.0000 0.11400  0.41120  0.70860  Biso   1.000  H
  H124     1.0000 0.11270  0.52230  0.67360  Biso   1.000  H
  H125     1.0000 0.73520  0.39670  0.00460  Biso   1.000  H
  H126     1.0000 0.69460  0.40180  0.09700  Biso   1.000  H
  H127     1.0000 0.96960  0.35150  0.91080  Biso   1.000  H
  H128     1.0000 0.07160  0.35430  0.90200  Biso   1.000  H
  H129     1.0000 0.99330  0.29650  0.08660  Biso   1.000  H
  H130     1.0000 0.89090  0.29120  0.09560  Biso   1.000  H
  H131     1.0000 0.75900  0.82150  0.82180  Biso   1.000  H
  H132     1.0000 0.70070  0.88820  0.78100  Biso   1.000  H
  H133     1.0000 0.67740  0.88020  0.70860  Biso   1.000  H
  H134     1.0000 0.71370  0.80410  0.67360  Biso   1.000  H
  H135     1.0000 0.76020  0.59870  0.00460  Biso   1.000  H
  H136     1.0000 0.70840  0.50120  0.09700  Biso   1.000  H
  H137     1.0000 0.61960  0.73770  0.91080  Biso   1.000  H
  H138     1.0000 0.52640  0.74370  0.90200  Biso   1.000  H
  H139     1.0000 0.42010  0.61690  0.08660  Biso   1.000  H
  H140     1.0000 0.51350  0.61320  0.09560  Biso   1.000  H
  H141     1.0000 0.32150  0.41920  0.32180  Biso   1.000  H
  H142     1.0000 0.38820  0.51830  0.28100  Biso   1.000  H
  H143     1.0000 0.38020  0.61400  0.20860  Biso   1.000  H
  H144     1.0000 0.30410  0.61270  0.17360  Biso   1.000  H
  H145     1.0000 0.09870  0.23520  0.50460  Biso   1.000  H
  H146     1.0000 0.00120  0.19460  0.59700  Biso   1.000  H
  H147     1.0000 0.23770  0.46960  0.41080  Biso   1.000  H
  H148     1.0000 0.24370  0.57160  0.40200  Biso   1.000  H
  H149     1.0000 0.11690  0.49330  0.58660  Biso   1.000  H
  H150     1.0000 0.11320  0.39090  0.59560  Biso   1.000  H
  H151     1.0000 0.85670  0.25900  0.32180  Biso   1.000  H
  H152     1.0000 0.83080  0.20070  0.28100  Biso   1.000  H
  H153     1.0000 0.91120  0.17740  0.20860  Biso   1.000  H
  H154     1.0000 0.02230  0.21370  0.17360  Biso   1.000  H
  H155     1.0000 0.89670  0.26020  0.50460  Biso   1.000  H
  H156     1.0000 0.90180  0.20840  0.59700  Biso   1.000  H
  H157     1.0000 0.85150  0.11960  0.41080  Biso   1.000  H
  H158     1.0000 0.85430  0.02640  0.40200  Biso   1.000  H
  H159     1.0000 0.79650  0.92010  0.58660  Biso   1.000  H
  H160     1.0000 0.79120  0.01350  0.59560  Biso   1.000  H
  C169     1.0000 0.04356  0.54391  0.22960  Biso   1.000  C
  C170     1.0000 0.04266  0.61066  0.20788  Biso   1.000  C
  C171     1.0000 0.98379  0.62539  0.23202  Biso   1.000  C
  C172     1.0000 0.92554  0.57644  0.27632  Biso   1.000  C
  C173     1.0000 0.92570  0.51020  0.29780  Biso   1.000  C
  C174     1.0000 0.98667  0.49504  0.27406  Biso   1.000  C
  C175     1.0000 0.22795  0.50385  0.05190  Biso   1.000  C
  C176     1.0000 0.25993  0.56343  0.99554  Biso   1.000  C
  C177     1.0000 0.28355  0.55995  0.94090  Biso   1.000  C
  C178     1.0000 0.20279  0.70929  0.93142  Biso   1.000  C
  C179     1.0000 0.15591  0.65304  0.04272  Biso   1.000  C
  C180     1.0000 0.14596  0.68346  0.99008  Biso   1.000  C
  C181     1.0000 0.08224  0.68104  0.99572  Biso   1.000  C
  C182     1.0000 0.02566  0.66076  0.05368  Biso   1.000  C
  C183     1.0000 0.96459  0.65849  0.05922  Biso   1.000  C
  C184     1.0000 0.95547  0.67557  0.00586  Biso   1.000  C
  C185     1.0000 0.01150  0.69340  0.94860  Biso   1.000  C
  C186     1.0000 0.07283  0.69643  0.94314  Biso   1.000  C
  C187     1.0000 0.89152  0.67342  0.01116  Biso   1.000  C
  C188     1.0000 0.88110  0.68448  0.96024  Biso   1.000  C
  C189     1.0000 0.83404  0.65824  0.06712  Biso   1.000  C
  C190     1.0000 0.22684  0.22649  0.22960  Biso   1.000  C
  C191     1.0000 0.24946  0.18146  0.20788  Biso   1.000  C
  C192     1.0000 0.28419  0.14259  0.23202  Biso   1.000  C
  C193     1.0000 0.29814  0.14724  0.27632  Biso   1.000  C
  C194     1.0000 0.27650  0.19200  0.29780  Biso   1.000  C
  C195     1.0000 0.23927  0.23090  0.27406  Biso   1.000  C
  C196     1.0000 0.22015  0.44425  0.05190  Biso   1.000  C
  C197     1.0000 0.24453  0.44103  0.99554  Biso   1.000  C
  C198     1.0000 0.27555  0.49915  0.94090  Biso   1.000  C
  C199     1.0000 0.36579  0.35929  0.93142  Biso   1.000  C
  C200     1.0000 0.30137  0.30424  0.04272  Biso   1.000  C
  C201     1.0000 0.36396  0.32646  0.99008  Biso   1.000  C
  C202     1.0000 0.42204  0.32324  0.99572  Biso   1.000  C
  C203     1.0000 0.42066  0.28556  0.05368  Biso   1.000  C
  C204     1.0000 0.47619  0.28229  0.05922  Biso   1.000  C
  C205     1.0000 0.53867  0.31857  0.00586  Biso   1.000  C
  C206     1.0000 0.53990  0.35800  0.94860  Biso   1.000  C
  C207     1.0000 0.48403  0.36043  0.94314  Biso   1.000  C
  C208     1.0000 0.59732  0.31542  0.01116  Biso   1.000  C
  C209     1.0000 0.65866  0.35528  0.96024  Biso   1.000  C
  C210     1.0000 0.59884  0.27464  0.06712  Biso   1.000  C
  C211     1.0000 0.72649  0.54356  0.72960  Biso   1.000  C
  C212     1.0000 0.68146  0.54266  0.70788  Biso   1.000  C
  C213     1.0000 0.64259  0.48379  0.73202  Biso   1.000  C
  C214     1.0000 0.64724  0.42554  0.77632  Biso   1.000  C
  C215     1.0000 0.69200  0.42570  0.79780  Biso   1.000  C
  C216     1.0000 0.73090  0.48667  0.77406  Biso   1.000  C
  C217     1.0000 0.94425  0.72795  0.55190  Biso   1.000  C
  C218     1.0000 0.94103  0.75993  0.49554  Biso   1.000  C
  C219     1.0000 0.99915  0.78355  0.44090  Biso   1.000  C
  C220     1.0000 0.85929  0.70279  0.43142  Biso   1.000  C
  C221     1.0000 0.80424  0.65591  0.54272  Biso   1.000  C
  C222     1.0000 0.82646  0.64596  0.49008  Biso   1.000  C
  C223     1.0000 0.82324  0.58224  0.49572  Biso   1.000  C
  C224     1.0000 0.78556  0.52566  0.55368  Biso   1.000  C
  C225     1.0000 0.78229  0.46459  0.55922  Biso   1.000  C
  C226     1.0000 0.81857  0.45547  0.50586  Biso   1.000  C
  C227     1.0000 0.85800  0.51150  0.44860  Biso   1.000  C
  C228     1.0000 0.86043  0.57283  0.44314  Biso   1.000  C
  C229     1.0000 0.81542  0.39152  0.51116  Biso   1.000  C
  C230     1.0000 0.85528  0.38110  0.46024  Biso   1.000  C
  C231     1.0000 0.77464  0.33404  0.56712  Biso   1.000  C
  C232     1.0000 0.04391  0.72684  0.72960  Biso   1.000  C
  C233     1.0000 0.11066  0.74946  0.70788  Biso   1.000  C
  C234     1.0000 0.12539  0.78419  0.73202  Biso   1.000  C
  C235     1.0000 0.07644  0.79814  0.77632  Biso   1.000  C
  C236     1.0000 0.01020  0.77650  0.79780  Biso   1.000  C
  C237     1.0000 0.99504  0.73927  0.77406  Biso   1.000  C
  C238     1.0000 0.00385  0.72015  0.55190  Biso   1.000  C
  C239     1.0000 0.06343  0.74453  0.49554  Biso   1.000  C
  C240     1.0000 0.05995  0.77555  0.44090  Biso   1.000  C
  C241     1.0000 0.20929  0.86579  0.43142  Biso   1.000  C
  C242     1.0000 0.15304  0.80137  0.54272  Biso   1.000  C
  C243     1.0000 0.18346  0.86396  0.49008  Biso   1.000  C
  C244     1.0000 0.18104  0.92204  0.49572  Biso   1.000  C
  C245     1.0000 0.16076  0.92066  0.55368  Biso   1.000  C
  C246     1.0000 0.15849  0.97619  0.55922  Biso   1.000  C
  C247     1.0000 0.17557  0.03867  0.50586  Biso   1.000  C
  C248     1.0000 0.19340  0.03990  0.44860  Biso   1.000  C
  C249     1.0000 0.19643  0.98403  0.44314  Biso   1.000  C
  C250     1.0000 0.17342  0.09732  0.51116  Biso   1.000  C
  C251     1.0000 0.18448  0.15866  0.46024  Biso   1.000  C
  C252     1.0000 0.15824  0.09884  0.56712  Biso   1.000  C
  C253     1.0000 0.95644  0.45609  0.77040  Biso   1.000  C
  C254     1.0000 0.95734  0.38934  0.79212  Biso   1.000  C
  C255     1.0000 0.01621  0.37461  0.76798  Biso   1.000  C
  C256     1.0000 0.07446  0.42356  0.72368  Biso   1.000  C
  C257     1.0000 0.07430  0.48980  0.70220  Biso   1.000  C
  C258     1.0000 0.01333  0.50496  0.72594  Biso   1.000  C
  C259     1.0000 0.77205  0.49615  0.94810  Biso   1.000  C
  C260     1.0000 0.74007  0.43657  0.00446  Biso   1.000  C
  C261     1.0000 0.71645  0.44005  0.05910  Biso   1.000  C
  C262     1.0000 0.79721  0.29071  0.06858  Biso   1.000  C
  C263     1.0000 0.84409  0.34696  0.95728  Biso   1.000  C
  C264     1.0000 0.85404  0.31654  0.00992  Biso   1.000  C
  C265     1.0000 0.91776  0.31896  0.00428  Biso   1.000  C
  C266     1.0000 0.97434  0.33924  0.94632  Biso   1.000  C
  C267     1.0000 0.03541  0.34151  0.94078  Biso   1.000  C
  C268     1.0000 0.04453  0.32443  0.99414  Biso   1.000  C
  C269     1.0000 0.98850  0.30660  0.05140  Biso   1.000  C
  C270     1.0000 0.92717  0.30357  0.05686  Biso   1.000  C
  C271     1.0000 0.10848  0.32658  0.98884  Biso   1.000  C
  C272     1.0000 0.11890  0.31552  0.03976  Biso   1.000  C
  C273     1.0000 0.16596  0.34176  0.93288  Biso   1.000  C
  C274     1.0000 0.77316  0.77351  0.77040  Biso   1.000  C
  C275     1.0000 0.75054  0.81854  0.79212  Biso   1.000  C
  C276     1.0000 0.71581  0.85741  0.76798  Biso   1.000  C
  C277     1.0000 0.70186  0.85276  0.72368  Biso   1.000  C
  C278     1.0000 0.72350  0.80800  0.70220  Biso   1.000  C
  C279     1.0000 0.76073  0.76910  0.72594  Biso   1.000  C
  C280     1.0000 0.77985  0.55575  0.94810  Biso   1.000  C
  C281     1.0000 0.75547  0.55897  0.00446  Biso   1.000  C
  C282     1.0000 0.72445  0.50085  0.05910  Biso   1.000  C
  C283     1.0000 0.63421  0.64071  0.06858  Biso   1.000  C
  C284     1.0000 0.69863  0.69576  0.95728  Biso   1.000  C
  C285     1.0000 0.63604  0.67354  0.00992  Biso   1.000  C
  C286     1.0000 0.57796  0.67676  0.00428  Biso   1.000  C
  C287     1.0000 0.57934  0.71444  0.94632  Biso   1.000  C
  C288     1.0000 0.52381  0.71771  0.94078  Biso   1.000  C
  C289     1.0000 0.46133  0.68143  0.99414  Biso   1.000  C
  C290     1.0000 0.46010  0.64200  0.05140  Biso   1.000  C
  C291     1.0000 0.51597  0.63957  0.05686  Biso   1.000  C
  C292     1.0000 0.40268  0.68458  0.98884  Biso   1.000  C
  C293     1.0000 0.34134  0.64472  0.03976  Biso   1.000  C
  C294     1.0000 0.40116  0.72536  0.93288  Biso   1.000  C
  C295     1.0000 0.27351  0.45644  0.27040  Biso   1.000  C
  C296     1.0000 0.31854  0.45734  0.29212  Biso   1.000  C
  C297     1.0000 0.35741  0.51621  0.26798  Biso   1.000  C
  C298     1.0000 0.35276  0.57446  0.22368  Biso   1.000  C
  C299     1.0000 0.30800  0.57430  0.20220  Biso   1.000  C
  C300     1.0000 0.26910  0.51333  0.22594  Biso   1.000  C
  C301     1.0000 0.05575  0.27205  0.44810  Biso   1.000  C
  C302     1.0000 0.05897  0.24007  0.50446  Biso   1.000  C
  C303     1.0000 0.00085  0.21645  0.55910  Biso   1.000  C
  C304     1.0000 0.14071  0.29721  0.56858  Biso   1.000  C
  C305     1.0000 0.19576  0.34409  0.45728  Biso   1.000  C
  C306     1.0000 0.17354  0.35404  0.50992  Biso   1.000  C
  C307     1.0000 0.17676  0.41776  0.50428  Biso   1.000  C
  C308     1.0000 0.21444  0.47434  0.44632  Biso   1.000  C
  C309     1.0000 0.21771  0.53541  0.44078  Biso   1.000  C
  C310     1.0000 0.18143  0.54453  0.49414  Biso   1.000  C
  C311     1.0000 0.14200  0.48850  0.55140  Biso   1.000  C
  C312     1.0000 0.13957  0.42717  0.55686  Biso   1.000  C
  C313     1.0000 0.18458  0.60848  0.48884  Biso   1.000  C
  C314     1.0000 0.14472  0.61890  0.53976  Biso   1.000  C
  C315     1.0000 0.22536  0.66596  0.43288  Biso   1.000  C
  C316     1.0000 0.95609  0.27316  0.27040  Biso   1.000  C
  C317     1.0000 0.88934  0.25054  0.29212  Biso   1.000  C
  C318     1.0000 0.87461  0.21581  0.26798  Biso   1.000  C
  C319     1.0000 0.92356  0.20186  0.22368  Biso   1.000  C
  C320     1.0000 0.98980  0.22350  0.20220  Biso   1.000  C
  C321     1.0000 0.00496  0.26073  0.22594  Biso   1.000  C
  C322     1.0000 0.99615  0.27985  0.44810  Biso   1.000  C
  C323     1.0000 0.93657  0.25547  0.50446  Biso   1.000  C
  C324     1.0000 0.94005  0.22445  0.55910  Biso   1.000  C
  C325     1.0000 0.79071  0.13421  0.56858  Biso   1.000  C
  C326     1.0000 0.84696  0.19863  0.45728  Biso   1.000  C
  C327     1.0000 0.81654  0.13604  0.50992  Biso   1.000  C
  C328     1.0000 0.81896  0.07796  0.50428  Biso   1.000  C
  C329     1.0000 0.83924  0.07934  0.44632  Biso   1.000  C
  C330     1.0000 0.84151  0.02381  0.44078  Biso   1.000  C
  C331     1.0000 0.82443  0.96133  0.49414  Biso   1.000  C
  C332     1.0000 0.80660  0.96010  0.55140  Biso   1.000  C
  C333     1.0000 0.80357  0.01597  0.55686  Biso   1.000  C
  C334     1.0000 0.82658  0.90268  0.48884  Biso   1.000  C
  C335     1.0000 0.81552  0.84134  0.53976  Biso   1.000  C
  C336     1.0000 0.84176  0.90116  0.43288  Biso   1.000  C
  N69      1.0000 0.09429  0.51284  0.21578  Biso   1.000  N
  N70      1.0000 0.06877  0.44880  0.25048  Biso   1.000  N
  N71      1.0000 0.00411  0.43602  0.28642  Biso   1.000  N
  N72      1.0000 0.19983  0.49115  0.11278  Biso   1.000  N
  N73      1.0000 0.24823  0.72973  0.88354  Biso   1.000  N
  N74      1.0000 0.16655  0.62571  0.08382  Biso   1.000  N
  N75      1.0000 0.87223  0.69283  0.91904  Biso   1.000  N
  N76      1.0000 0.78831  0.64541  0.11378  Biso   1.000  N
  N77      1.0000 0.18993  0.27138  0.21578  Biso   1.000  N
  N78      1.0000 0.18075  0.30072  0.25048  Biso   1.000  N
  N79      1.0000 0.20947  0.27756  0.28642  Biso   1.000  N
  N80      1.0000 0.18739  0.39607  0.11278  Biso   1.000  N
  N81      1.0000 0.36823  0.38673  0.88354  Biso   1.000  N
  N82      1.0000 0.24963  0.29047  0.08382  Biso   1.000  N
  N83      1.0000 0.70873  0.38813  0.91904  Biso   1.000  N
  N84      1.0000 0.59791  0.24081  0.11378  Biso   1.000  N
  N85      1.0000 0.77138  0.59429  0.71578  Biso   1.000  N
  N86      1.0000 0.80072  0.56877  0.75048  Biso   1.000  N
  N87      1.0000 0.77756  0.50411  0.78642  Biso   1.000  N
  N88      1.0000 0.89607  0.69983  0.61278  Biso   1.000  N
  N89      1.0000 0.88673  0.74823  0.38354  Biso   1.000  N
  N90      1.0000 0.79047  0.66655  0.58382  Biso   1.000  N
  N91      1.0000 0.88813  0.37223  0.41904  Biso   1.000  N
  N92      1.0000 0.74081  0.28831  0.61378  Biso   1.000  N
  N93      1.0000 0.01284  0.68993  0.71578  Biso   1.000  N
  N94      1.0000 0.94880  0.68075  0.75048  Biso   1.000  N
  N95      1.0000 0.93602  0.70947  0.78642  Biso   1.000  N
  N96      1.0000 0.99115  0.68739  0.61278  Biso   1.000  N
  N97      1.0000 0.22973  0.86823  0.38354  Biso   1.000  N
  N98      1.0000 0.12571  0.74963  0.58382  Biso   1.000  N
  N99      1.0000 0.19283  0.20873  0.41904  Biso   1.000  N
  N100     1.0000 0.14541  0.09791  0.61378  Biso   1.000  N
  N101     1.0000 0.90571  0.48716  0.78422  Biso   1.000  N
  N102     1.0000 0.93123  0.55120  0.74952  Biso   1.000  N
  N103     1.0000 0.99589  0.56398  0.71358  Biso   1.000  N
  N104     1.0000 0.80017  0.50885  0.88722  Biso   1.000  N
  N105     1.0000 0.75177  0.27027  0.11646  Biso   1.000  N
  N106     1.0000 0.83345  0.37429  0.91618  Biso   1.000  N
  N107     1.0000 0.12777  0.30717  0.08096  Biso   1.000  N
  N108     1.0000 0.21169  0.35459  0.88622  Biso   1.000  N
  N109     1.0000 0.81007  0.72862  0.78422  Biso   1.000  N
  N110     1.0000 0.81925  0.69928  0.74952  Biso   1.000  N
  N111     1.0000 0.79053  0.72244  0.71358  Biso   1.000  N
  N112     1.0000 0.81261  0.60393  0.88722  Biso   1.000  N
  N113     1.0000 0.63177  0.61327  0.11646  Biso   1.000  N
  N114     1.0000 0.75037  0.70953  0.91618  Biso   1.000  N
  N115     1.0000 0.29127  0.61187  0.08096  Biso   1.000  N
  N116     1.0000 0.40209  0.75919  0.88622  Biso   1.000  N
  N117     1.0000 0.22862  0.40571  0.28422  Biso   1.000  N
  N118     1.0000 0.19928  0.43123  0.24952  Biso   1.000  N
  N119     1.0000 0.22244  0.49589  0.21358  Biso   1.000  N
  N120     1.0000 0.10393  0.30017  0.38722  Biso   1.000  N
  N121     1.0000 0.11327  0.25177  0.61646  Biso   1.000  N
  N122     1.0000 0.20953  0.33345  0.41618  Biso   1.000  N
  N123     1.0000 0.11187  0.62777  0.58096  Biso   1.000  N
  N124     1.0000 0.25919  0.71169  0.38622  Biso   1.000  N
  N125     1.0000 0.98716  0.31007  0.28422  Biso   1.000  N
  N126     1.0000 0.05120  0.31925  0.24952  Biso   1.000  N
  N127     1.0000 0.06398  0.29053  0.21358  Biso   1.000  N
  N128     1.0000 0.00885  0.31261  0.38722  Biso   1.000  N
  N129     1.0000 0.77027  0.13177  0.61646  Biso   1.000  N
  N130     1.0000 0.87429  0.25037  0.41618  Biso   1.000  N
  N131     1.0000 0.80717  0.79127  0.58096  Biso   1.000  N
  N132     1.0000 0.85459  0.90209  0.38622  Biso   1.000  N
  N133     1.0000 0.17629  0.42629  0.14742  Biso   1.000  N
  N134     1.0000 0.92629  0.67629  0.64742  Biso   1.000  N
  N135     1.0000 0.82371  0.57371  0.85258  Biso   1.000  N
  N136     1.0000 0.07371  0.32371  0.35258  Biso   1.000  N
  O9       1.0000 0.18727  0.62385  0.18492  Biso   1.000  O
  O10      1.0000 0.12781  0.19123  0.18492  Biso   1.000  O
  O11      1.0000 0.69123  0.68727  0.68492  Biso   1.000  O
  O12      1.0000 0.12385  0.62781  0.68492  Biso   1.000  O
  O13      1.0000 0.81273  0.37615  0.81508  Biso   1.000  O
  O14      1.0000 0.87219  0.80877  0.81508  Biso   1.000  O
  O15      1.0000 0.30877  0.31273  0.31508  Biso   1.000  O
  O16      1.0000 0.87615  0.37219  0.31508  Biso   1.000  O
