data_image0
_cell_length_a       24.2577
_cell_length_b       24.2577
_cell_length_c       24.2577
_cell_angle_alpha    109.436
_cell_angle_beta     109.436
_cell_angle_gamma    109.436

_symmetry_space_group_name_H-M    P 1
_symmetry_int_tables_number       1

loop_
  _symmetry_equiv_pos_as_xyz
  'x, y, z'

loop_
  _atom_site_label
  _atom_site_occupancy
  _atom_site_fract_x
  _atom_site_fract_y
  _atom_site_fract_z
  _atom_site_thermal_displace_type
  _atom_site_B_iso_or_equiv
  _atom_site_type_symbol
  Eu1      1.0000 0.59952  0.64814  0.14815  Biso   1.000  Eu
  Eu2      1.0000 0.64815  0.14814  0.09952  Biso   1.000  Eu
  H1       1.0000 0.64140  0.51140  0.96770  Biso   1.000  H
  H2       1.0000 0.65200  0.62770  0.01960  Biso   1.000  H
  H3       1.0000 0.71480  0.62750  0.06590  Biso   1.000  H
  H4       1.0000 0.64520  0.63380  0.91650  Biso   1.000  H
  H5       1.0000 0.69210  0.63680  0.84920  Biso   1.000  H
  H6       1.0000 0.79430  0.64360  0.87940  Biso   1.000  H
  H7       1.0000 0.85230  0.65170  0.98160  Biso   1.000  H
  H8       1.0000 0.79110  0.61340  0.02740  Biso   1.000  H
  H9       1.0000 0.79120  0.61160  0.28480  Biso   1.000  H
  H10      1.0000 0.68560  0.32520  0.32670  Biso   1.000  H
  H11      1.0000 0.80810  0.53120  0.33240  Biso   1.000  H
  H12      1.0000 0.79410  0.46370  0.33410  Biso   1.000  H
  H13      1.0000 0.84550  0.62250  0.46170  Biso   1.000  H
  H14      1.0000 0.77730  0.60820  0.46170  Biso   1.000  H
  H15      1.0000 0.67360  0.49280  0.37120  Biso   1.000  H
  H16      1.0000 0.69130  0.50630  0.31840  Biso   1.000  H
  H17      1.0000 0.83090  0.50880  0.47300  Biso   1.000  H
  H18      1.0000 0.75910  0.44390  0.42070  Biso   1.000  H
  H19      1.0000 0.86200  0.47340  0.29460  Biso   1.000  H
  H20      1.0000 0.93800  0.45470  0.26610  Biso   1.000  H
  H21      1.0000 0.03840  0.48570  0.34920  Biso   1.000  H
  H22      1.0000 0.07540  0.55780  0.45730  Biso   1.000  H
  H23      1.0000 0.82890  0.71750  0.50210  Biso   1.000  H
  H24      1.0000 0.83640  0.82040  0.52910  Biso   1.000  H
  H25      1.0000 0.78800  0.83920  0.44710  Biso   1.000  H
  H26      1.0000 0.74700  0.76660  0.33900  Biso   1.000  H
  H27      1.0000 0.66940  0.53400  0.16830  Biso   1.000  H
  H28      1.0000 0.72670  0.57500  0.15760  Biso   1.000  H
  H29      1.0000 0.66000  0.42920  0.16760  Biso   1.000  H
  H30      1.0000 0.69990  0.35520  0.15580  Biso   1.000  H
  H31      1.0000 0.78370  0.37130  0.12940  Biso   1.000  H
  H32      1.0000 0.85230  0.47630  0.15140  Biso   1.000  H
  H33      1.0000 0.82440  0.55820  0.18290  Biso   1.000  H
  H34      1.0000 0.58160  0.43540  0.25570  Biso   1.000  H
  H35      1.0000 0.47230  0.35490  0.16410  Biso   1.000  H
  H36      1.0000 0.46060  0.25740  0.09030  Biso   1.000  H
  H37      1.0000 0.53050  0.22010  0.12580  Biso   1.000  H
  H38      1.0000 0.77080  0.30360  0.28770  Biso   1.000  H
  H39      1.0000 0.72700  0.23800  0.28640  Biso   1.000  H
  H40      1.0000 0.85810  0.37700  0.36730  Biso   1.000  H
  H41      1.0000 0.94240  0.43630  0.47630  Biso   1.000  H
  H42      1.0000 0.92080  0.42410  0.55810  Biso   1.000  H
  H43      1.0000 0.82710  0.32630  0.52490  Biso   1.000  H
  H44      1.0000 0.73980  0.27040  0.41700  Biso   1.000  H
  H45      1.0000 0.82820  0.47400  0.54140  Biso   1.000  H
  H46      1.0000 0.83570  0.45660  0.62990  Biso   1.000  H
  H47      1.0000 0.81570  0.51890  0.70640  Biso   1.000  H
  H48      1.0000 0.73490  0.54380  0.66360  Biso   1.000  H
  H49      1.0000 0.78480  0.11160  0.29120  Biso   1.000  H
  H50      1.0000 0.82670  0.82520  0.18560  Biso   1.000  H
  H51      1.0000 0.83240  0.03120  0.30810  Biso   1.000  H
  H52      1.0000 0.83410  0.96370  0.29410  Biso   1.000  H
  H53      1.0000 0.96170  0.12250  0.34550  Biso   1.000  H
  H54      1.0000 0.96170  0.10820  0.27730  Biso   1.000  H
  H55      1.0000 0.87120  0.99280  0.17360  Biso   1.000  H
  H56      1.0000 0.81840  0.00630  0.19130  Biso   1.000  H
  H57      1.0000 0.97300  0.00880  0.33090  Biso   1.000  H
  H58      1.0000 0.92070  0.94390  0.25910  Biso   1.000  H
  H59      1.0000 0.79460  0.97340  0.36200  Biso   1.000  H
  H60      1.0000 0.76610  0.95470  0.43800  Biso   1.000  H
  H61      1.0000 0.84920  0.98570  0.53840  Biso   1.000  H
  H62      1.0000 0.95730  0.05780  0.57540  Biso   1.000  H
  H63      1.0000 0.00210  0.21750  0.32890  Biso   1.000  H
  H64      1.0000 0.02910  0.32040  0.33640  Biso   1.000  H
  H65      1.0000 0.94710  0.33920  0.28800  Biso   1.000  H
  H66      1.0000 0.83900  0.26660  0.24700  Biso   1.000  H
  H67      1.0000 0.66830  0.03400  0.16940  Biso   1.000  H
  H68      1.0000 0.65760  0.07500  0.22670  Biso   1.000  H
  H69      1.0000 0.66760  0.92920  0.16000  Biso   1.000  H
  H70      1.0000 0.65580  0.85520  0.19990  Biso   1.000  H
  H71      1.0000 0.62940  0.87130  0.28370  Biso   1.000  H
  H72      1.0000 0.65140  0.97630  0.35230  Biso   1.000  H
  H73      1.0000 0.68290  0.05820  0.32440  Biso   1.000  H
  H74      1.0000 0.75570  0.93540  0.08160  Biso   1.000  H
  H75      1.0000 0.66410  0.85490  0.97230  Biso   1.000  H
  H76      1.0000 0.59030  0.75740  0.96060  Biso   1.000  H
  H77      1.0000 0.62580  0.72010  0.03050  Biso   1.000  H
  H78      1.0000 0.78770  0.80360  0.27080  Biso   1.000  H
  H79      1.0000 0.78640  0.73800  0.22700  Biso   1.000  H
  H80      1.0000 0.86730  0.87700  0.35810  Biso   1.000  H
  H81      1.0000 0.97630  0.93630  0.44240  Biso   1.000  H
  H82      1.0000 0.05810  0.92410  0.42080  Biso   1.000  H
  H83      1.0000 0.02490  0.82630  0.32710  Biso   1.000  H
  H84      1.0000 0.91700  0.77040  0.23980  Biso   1.000  H
  H85      1.0000 0.04140  0.97400  0.32820  Biso   1.000  H
  H86      1.0000 0.12990  0.95660  0.33570  Biso   1.000  H
  H87      1.0000 0.20640  0.01890  0.31570  Biso   1.000  H
  H88      1.0000 0.16360  0.04380  0.23490  Biso   1.000  H
  H89      1.0000 0.46770  0.01140  0.14140  Biso   1.000  H
  H90      1.0000 0.51960  0.12770  0.15200  Biso   1.000  H
  H91      1.0000 0.56590  0.12750  0.21480  Biso   1.000  H
  H92      1.0000 0.41650  0.13380  0.14520  Biso   1.000  H
  H93      1.0000 0.34920  0.13680  0.19210  Biso   1.000  H
  H94      1.0000 0.37940  0.14360  0.29430  Biso   1.000  H
  H95      1.0000 0.48160  0.15170  0.35230  Biso   1.000  H
  H96      1.0000 0.52740  0.11340  0.29110  Biso   1.000  H
  C1       1.0000 0.60630  0.52590  0.02280  Biso   1.000  C
  C2       1.0000 0.67940  0.60620  0.01970  Biso   1.000  C
  C3       1.0000 0.71180  0.61920  0.97790  Biso   1.000  C
  C4       1.0000 0.68390  0.63030  0.92570  Biso   1.000  C
  C5       1.0000 0.71400  0.63610  0.88830  Biso   1.000  C
  C6       1.0000 0.77480  0.64050  0.90620  Biso   1.000  C
  C7       1.0000 0.80730  0.64020  0.96370  Biso   1.000  C
  C8       1.0000 0.77260  0.62300  0.99400  Biso   1.000  C
  C9       1.0000 0.77140  0.52310  0.39760  Biso   1.000  C
  C10      1.0000 0.81160  0.51160  0.36140  Biso   1.000  C
  C11      1.0000 0.79690  0.59800  0.43340  Biso   1.000  C
  C12      1.0000 0.69920  0.48810  0.34850  Biso   1.000  C
  C13      1.0000 0.78330  0.49280  0.44600  Biso   1.000  C
  C14      1.0000 0.98850  0.55310  0.44180  Biso   1.000  C
  C15      1.0000 0.92660  0.53050  0.39220  Biso   1.000  C
  C16      1.0000 0.90610  0.49150  0.32780  Biso   1.000  C
  C17      1.0000 0.94990  0.47820  0.31110  Biso   1.000  C
  C18      1.0000 0.00990  0.49920  0.36000  Biso   1.000  C
  C19      1.0000 0.03110  0.53950  0.42450  Biso   1.000  C
  C20      1.0000 0.72930  0.64720  0.27360  Biso   1.000  C
  C21      1.0000 0.75920  0.69480  0.35300  Biso   1.000  C
  C22      1.0000 0.78420  0.68170  0.40350  Biso   1.000  C
  C23      1.0000 0.81200  0.72740  0.46830  Biso   1.000  C
  C24      1.0000 0.81530  0.78750  0.48410  Biso   1.000  C
  C25      1.0000 0.78880  0.79910  0.43600  Biso   1.000  C
  C26      1.0000 0.76290  0.75520  0.37170  Biso   1.000  C
  C27      1.0000 0.71750  0.55500  0.18440  Biso   1.000  C
  C28      1.0000 0.73980  0.50290  0.17820  Biso   1.000  C
  C29      1.0000 0.70040  0.44020  0.16720  Biso   1.000  C
  C30      1.0000 0.72180  0.39480  0.15580  Biso   1.000  C
  C31      1.0000 0.77470  0.40610  0.14470  Biso   1.000  C
  C32      1.0000 0.81410  0.46720  0.15580  Biso   1.000  C
  C33      1.0000 0.79650  0.51510  0.17350  Biso   1.000  C
  C34      1.0000 0.64650  0.27470  0.22910  Biso   1.000  C
  C35      1.0000 0.60260  0.30660  0.21200  Biso   1.000  C
  C36      1.0000 0.61400  0.36950  0.25080  Biso   1.000  C
  C37      1.0000 0.56990  0.39060  0.23120  Biso   1.000  C
  C38      1.0000 0.50690  0.34490  0.17400  Biso   1.000  C
  C39      1.0000 0.49830  0.28490  0.13340  Biso   1.000  C
  C40      1.0000 0.54160  0.26400  0.15270  Biso   1.000  C
  C41      1.0000 0.74510  0.28640  0.30720  Biso   1.000  C
  C42      1.0000 0.78900  0.31900  0.38130  Biso   1.000  C
  C43      1.0000 0.85060  0.36840  0.39960  Biso   1.000  C
  C44      1.0000 0.90010  0.40420  0.46430  Biso   1.000  C
  C45      1.0000 0.88910  0.39410  0.51270  Biso   1.000  C
  C46      1.0000 0.83150  0.33940  0.49390  Biso   1.000  C
  C47      1.0000 0.78100  0.30480  0.42930  Biso   1.000  C
  C48      1.0000 0.74310  0.53770  0.58410  Biso   1.000  C
  C49      1.0000 0.76960  0.51350  0.54700  Biso   1.000  C
  C50      1.0000 0.80800  0.48770  0.56560  Biso   1.000  C
  C51      1.0000 0.81670  0.48230  0.62080  Biso   1.000  C
  C52      1.0000 0.79890  0.51230  0.66290  Biso   1.000  C
  C53      1.0000 0.75640  0.53270  0.64000  Biso   1.000  C
  C54      1.0000 0.89760  0.02310  0.27140  Biso   1.000  C
  C55      1.0000 0.86140  0.01160  0.31160  Biso   1.000  C
  C56      1.0000 0.93340  0.09800  0.29690  Biso   1.000  C
  C57      1.0000 0.84850  0.98810  0.19920  Biso   1.000  C
  C58      1.0000 0.94600  0.99280  0.28330  Biso   1.000  C
  C59      1.0000 0.94180  0.05310  0.48850  Biso   1.000  C
  C60      1.0000 0.89220  0.03050  0.42660  Biso   1.000  C
  C61      1.0000 0.82780  0.99150  0.40610  Biso   1.000  C
  C62      1.0000 0.81110  0.97820  0.44990  Biso   1.000  C
  C63      1.0000 0.86000  0.99920  0.50990  Biso   1.000  C
  C64      1.0000 0.92450  0.03950  0.53110  Biso   1.000  C
  C65      1.0000 0.77360  0.14720  0.22930  Biso   1.000  C
  C66      1.0000 0.85300  0.19480  0.25920  Biso   1.000  C
  C67      1.0000 0.90350  0.18170  0.28420  Biso   1.000  C
  C68      1.0000 0.96830  0.22740  0.31200  Biso   1.000  C
  C69      1.0000 0.98410  0.28750  0.31530  Biso   1.000  C
  C70      1.0000 0.93600  0.29910  0.28880  Biso   1.000  C
  C71      1.0000 0.87170  0.25520  0.26290  Biso   1.000  C
  C72      1.0000 0.68440  0.05500  0.21750  Biso   1.000  C
  C73      1.0000 0.67820  0.00290  0.23980  Biso   1.000  C
  C74      1.0000 0.66720  0.94020  0.20040  Biso   1.000  C
  C75      1.0000 0.65580  0.89480  0.22180  Biso   1.000  C
  C76      1.0000 0.64470  0.90610  0.27470  Biso   1.000  C
  C77      1.0000 0.65580  0.96720  0.31410  Biso   1.000  C
  C78      1.0000 0.67350  0.01510  0.29650  Biso   1.000  C
  C79      1.0000 0.72910  0.77470  0.14650  Biso   1.000  C
  C80      1.0000 0.71200  0.80660  0.10260  Biso   1.000  C
  C81      1.0000 0.75080  0.86950  0.11400  Biso   1.000  C
  C82      1.0000 0.73120  0.89060  0.06990  Biso   1.000  C
  C83      1.0000 0.67400  0.84490  0.00690  Biso   1.000  C
  C84      1.0000 0.63340  0.78490  0.99830  Biso   1.000  C
  C85      1.0000 0.65270  0.76400  0.04160  Biso   1.000  C
  C86      1.0000 0.80720  0.78640  0.24510  Biso   1.000  C
  C87      1.0000 0.88130  0.81900  0.28900  Biso   1.000  C
  C88      1.0000 0.89960  0.86840  0.35060  Biso   1.000  C
  C89      1.0000 0.96430  0.90420  0.40010  Biso   1.000  C
  C90      1.0000 0.01270  0.89410  0.38910  Biso   1.000  C
  C91      1.0000 0.99390  0.83940  0.33150  Biso   1.000  C
  C92      1.0000 0.92930  0.80480  0.28100  Biso   1.000  C
  C93      1.0000 0.08410  0.03770  0.24310  Biso   1.000  C
  C94      1.0000 0.04700  0.01350  0.26960  Biso   1.000  C
  C95      1.0000 0.06560  0.98770  0.30800  Biso   1.000  C
  C96      1.0000 0.12080  0.98230  0.31670  Biso   1.000  C
  C97      1.0000 0.16290  0.01230  0.29890  Biso   1.000  C
  C98      1.0000 0.14000  0.03270  0.25640  Biso   1.000  C
  C99      1.0000 0.52280  0.02590  0.10630  Biso   1.000  C
  C100     1.0000 0.51970  0.10620  0.17940  Biso   1.000  C
  C101     1.0000 0.47790  0.11920  0.21180  Biso   1.000  C
  C102     1.0000 0.42570  0.13030  0.18390  Biso   1.000  C
  C103     1.0000 0.38830  0.13610  0.21400  Biso   1.000  C
  C104     1.0000 0.40620  0.14050  0.27480  Biso   1.000  C
  C105     1.0000 0.46370  0.14020  0.30730  Biso   1.000  C
  C106     1.0000 0.49400  0.12300  0.27260  Biso   1.000  C
  N1       1.0000 0.64140  0.54200  0.99860  Biso   1.000  N
  N2       1.0000 0.49230  0.52820  0.12220  Biso   1.000  N
  N3       1.0000 0.60830  0.73990  0.26400  Biso   1.000  N
  N4       1.0000 0.51430  0.67260  0.05540  Biso   1.000  N
  N5       1.0000 0.75520  0.60700  0.25610  Biso   1.000  N
  N6       1.0000 0.68990  0.30140  0.29490  Biso   1.000  N
  N7       1.0000 0.75610  0.10700  0.25520  Biso   1.000  N
  N8       1.0000 0.79490  0.80140  0.18990  Biso   1.000  N
  N9       1.0000 0.49860  0.04200  0.14140  Biso   1.000  N
  N10      1.0000 0.62220  0.02820  0.99230  Biso   1.000  N
  N11      1.0000 0.76400  0.23990  0.10830  Biso   1.000  N
  N12      1.0000 0.55540  0.17260  0.01430  Biso   1.000  N
  O1       1.0000 0.60580  0.56650  0.06970  Biso   1.000  O
  O2       1.0000 0.47850  0.55590  0.08850  Biso   1.000  O
  O3       1.0000 0.55230  0.54960  0.16260  Biso   1.000  O
  O4       1.0000 0.44900  0.46910  0.10340  Biso   1.000  O
  O5       1.0000 0.64850  0.76060  0.24540  Biso   1.000  O
  O6       1.0000 0.56640  0.67900  0.23570  Biso   1.000  O
  O7       1.0000 0.60400  0.78300  0.30710  Biso   1.000  O
  O8       1.0000 0.53630  0.70620  0.11740  Biso   1.000  O
  O9       1.0000 0.53800  0.63510  0.03530  Biso   1.000  O
  O10      1.0000 0.48380  0.68840  0.01640  Biso   1.000  O
  O11      1.0000 0.88310  0.54500  0.41520  Biso   1.000  O
  O12      1.0000 0.77800  0.61800  0.38340  Biso   1.000  O
  O13      1.0000 0.67860  0.41190  0.30790  Biso   1.000  O
  O14      1.0000 0.75470  0.51980  0.49050  Biso   1.000  O
  O15      1.0000 0.68680  0.65080  0.23030  Biso   1.000  O
  O16      1.0000 0.64580  0.22730  0.18510  Biso   1.000  O
  O17      1.0000 0.91520  0.04500  0.38310  Biso   1.000  O
  O18      1.0000 0.88340  0.11800  0.27800  Biso   1.000  O
  O19      1.0000 0.80790  0.91190  0.17860  Biso   1.000  O
  O20      1.0000 0.99050  0.01980  0.25470  Biso   1.000  O
  O21      1.0000 0.73030  0.15080  0.18680  Biso   1.000  O
  O22      1.0000 0.68510  0.72730  0.14580  Biso   1.000  O
  O23      1.0000 0.56970  0.06650  0.10580  Biso   1.000  O
  O24      1.0000 0.58850  0.05590  0.97850  Biso   1.000  O
  O25      1.0000 0.66260  0.04960  0.05230  Biso   1.000  O
  O26      1.0000 0.60340  0.96910  0.94900  Biso   1.000  O
  O27      1.0000 0.74540  0.26060  0.14850  Biso   1.000  O
  O28      1.0000 0.73570  0.17900  0.06640  Biso   1.000  O
  O29      1.0000 0.80710  0.28300  0.10400  Biso   1.000  O
  O30      1.0000 0.61740  0.20620  0.03630  Biso   1.000  O
  O31      1.0000 0.53530  0.13510  0.03800  Biso   1.000  O
  O32      1.0000 0.51640  0.18840  0.98380  Biso   1.000  O
  Eu3      1.0000 0.14815  0.59952  0.64814  Biso   1.000  Eu
  Eu4      1.0000 0.09952  0.64815  0.14814  Biso   1.000  Eu
  H97      1.0000 0.96770  0.64140  0.51140  Biso   1.000  H
  H98      1.0000 0.01960  0.65200  0.62770  Biso   1.000  H
  H99      1.0000 0.06590  0.71480  0.62750  Biso   1.000  H
  H100     1.0000 0.91650  0.64520  0.63380  Biso   1.000  H
  H101     1.0000 0.84920  0.69210  0.63680  Biso   1.000  H
  H102     1.0000 0.87940  0.79430  0.64360  Biso   1.000  H
  H103     1.0000 0.98160  0.85230  0.65170  Biso   1.000  H
  H104     1.0000 0.02740  0.79110  0.61340  Biso   1.000  H
  H105     1.0000 0.28480  0.79120  0.61160  Biso   1.000  H
  H106     1.0000 0.32670  0.68560  0.32520  Biso   1.000  H
  H107     1.0000 0.33240  0.80810  0.53120  Biso   1.000  H
  H108     1.0000 0.33410  0.79410  0.46370  Biso   1.000  H
  H109     1.0000 0.46170  0.84550  0.62250  Biso   1.000  H
  H110     1.0000 0.46170  0.77730  0.60820  Biso   1.000  H
  H111     1.0000 0.37120  0.67360  0.49280  Biso   1.000  H
  H112     1.0000 0.31840  0.69130  0.50630  Biso   1.000  H
  H113     1.0000 0.47300  0.83090  0.50880  Biso   1.000  H
  H114     1.0000 0.42070  0.75910  0.44390  Biso   1.000  H
  H115     1.0000 0.29460  0.86200  0.47340  Biso   1.000  H
  H116     1.0000 0.26610  0.93800  0.45470  Biso   1.000  H
  H117     1.0000 0.34920  0.03840  0.48570  Biso   1.000  H
  H118     1.0000 0.45730  0.07540  0.55780  Biso   1.000  H
  H119     1.0000 0.50210  0.82890  0.71750  Biso   1.000  H
  H120     1.0000 0.52910  0.83640  0.82040  Biso   1.000  H
  H121     1.0000 0.44710  0.78800  0.83920  Biso   1.000  H
  H122     1.0000 0.33900  0.74700  0.76660  Biso   1.000  H
  H123     1.0000 0.16830  0.66940  0.53400  Biso   1.000  H
  H124     1.0000 0.15760  0.72670  0.57500  Biso   1.000  H
  H125     1.0000 0.16760  0.66000  0.42920  Biso   1.000  H
  H126     1.0000 0.15580  0.69990  0.35520  Biso   1.000  H
  H127     1.0000 0.12940  0.78370  0.37130  Biso   1.000  H
  H128     1.0000 0.15140  0.85230  0.47630  Biso   1.000  H
  H129     1.0000 0.18290  0.82440  0.55820  Biso   1.000  H
  H130     1.0000 0.25570  0.58160  0.43540  Biso   1.000  H
  H131     1.0000 0.16410  0.47230  0.35490  Biso   1.000  H
  H132     1.0000 0.09030  0.46060  0.25740  Biso   1.000  H
  H133     1.0000 0.12580  0.53050  0.22010  Biso   1.000  H
  H134     1.0000 0.28770  0.77080  0.30360  Biso   1.000  H
  H135     1.0000 0.28640  0.72700  0.23800  Biso   1.000  H
  H136     1.0000 0.36730  0.85810  0.37700  Biso   1.000  H
  H137     1.0000 0.47630  0.94240  0.43630  Biso   1.000  H
  H138     1.0000 0.55810  0.92080  0.42410  Biso   1.000  H
  H139     1.0000 0.52490  0.82710  0.32630  Biso   1.000  H
  H140     1.0000 0.41700  0.73980  0.27040  Biso   1.000  H
  H141     1.0000 0.54140  0.82820  0.47400  Biso   1.000  H
  H142     1.0000 0.62990  0.83570  0.45660  Biso   1.000  H
  H143     1.0000 0.70640  0.81570  0.51890  Biso   1.000  H
  H144     1.0000 0.66360  0.73490  0.54380  Biso   1.000  H
  H145     1.0000 0.14140  0.46770  0.01140  Biso   1.000  H
  H146     1.0000 0.15200  0.51960  0.12770  Biso   1.000  H
  H147     1.0000 0.21480  0.56590  0.12750  Biso   1.000  H
  H148     1.0000 0.14520  0.41650  0.13380  Biso   1.000  H
  H149     1.0000 0.19210  0.34920  0.13680  Biso   1.000  H
  H150     1.0000 0.29430  0.37940  0.14360  Biso   1.000  H
  H151     1.0000 0.35230  0.48160  0.15170  Biso   1.000  H
  H152     1.0000 0.29110  0.52740  0.11340  Biso   1.000  H
  H153     1.0000 0.29120  0.78480  0.11160  Biso   1.000  H
  H154     1.0000 0.18560  0.82670  0.82520  Biso   1.000  H
  H155     1.0000 0.30810  0.83240  0.03120  Biso   1.000  H
  H156     1.0000 0.29410  0.83410  0.96370  Biso   1.000  H
  H157     1.0000 0.34550  0.96170  0.12250  Biso   1.000  H
  H158     1.0000 0.27730  0.96170  0.10820  Biso   1.000  H
  H159     1.0000 0.17360  0.87120  0.99280  Biso   1.000  H
  H160     1.0000 0.19130  0.81840  0.00630  Biso   1.000  H
  H161     1.0000 0.33090  0.97300  0.00880  Biso   1.000  H
  H162     1.0000 0.25910  0.92070  0.94390  Biso   1.000  H
  H163     1.0000 0.36200  0.79460  0.97340  Biso   1.000  H
  H164     1.0000 0.43800  0.76610  0.95470  Biso   1.000  H
  H165     1.0000 0.53840  0.84920  0.98570  Biso   1.000  H
  H166     1.0000 0.57540  0.95730  0.05780  Biso   1.000  H
  H167     1.0000 0.32890  0.00210  0.21750  Biso   1.000  H
  H168     1.0000 0.33640  0.02910  0.32040  Biso   1.000  H
  H169     1.0000 0.28800  0.94710  0.33920  Biso   1.000  H
  H170     1.0000 0.24700  0.83900  0.26660  Biso   1.000  H
  H171     1.0000 0.16940  0.66830  0.03400  Biso   1.000  H
  H172     1.0000 0.22670  0.65760  0.07500  Biso   1.000  H
  H173     1.0000 0.16000  0.66760  0.92920  Biso   1.000  H
  H174     1.0000 0.19990  0.65580  0.85520  Biso   1.000  H
  H175     1.0000 0.28370  0.62940  0.87130  Biso   1.000  H
  H176     1.0000 0.35230  0.65140  0.97630  Biso   1.000  H
  H177     1.0000 0.32440  0.68290  0.05820  Biso   1.000  H
  H178     1.0000 0.08160  0.75570  0.93540  Biso   1.000  H
  H179     1.0000 0.97230  0.66410  0.85490  Biso   1.000  H
  H180     1.0000 0.96060  0.59030  0.75740  Biso   1.000  H
  H181     1.0000 0.03050  0.62580  0.72010  Biso   1.000  H
  H182     1.0000 0.27080  0.78770  0.80360  Biso   1.000  H
  H183     1.0000 0.22700  0.78640  0.73800  Biso   1.000  H
  H184     1.0000 0.35810  0.86730  0.87700  Biso   1.000  H
  H185     1.0000 0.44240  0.97630  0.93630  Biso   1.000  H
  H186     1.0000 0.42080  0.05810  0.92410  Biso   1.000  H
  H187     1.0000 0.32710  0.02490  0.82630  Biso   1.000  H
  H188     1.0000 0.23980  0.91700  0.77040  Biso   1.000  H
  H189     1.0000 0.32820  0.04140  0.97400  Biso   1.000  H
  H190     1.0000 0.33570  0.12990  0.95660  Biso   1.000  H
  H191     1.0000 0.31570  0.20640  0.01890  Biso   1.000  H
  H192     1.0000 0.23490  0.16360  0.04380  Biso   1.000  H
  C107     1.0000 0.02280  0.60630  0.52590  Biso   1.000  C
  C108     1.0000 0.01970  0.67940  0.60620  Biso   1.000  C
  C109     1.0000 0.97790  0.71180  0.61920  Biso   1.000  C
  C110     1.0000 0.92570  0.68390  0.63030  Biso   1.000  C
  C111     1.0000 0.88830  0.71400  0.63610  Biso   1.000  C
  C112     1.0000 0.90620  0.77480  0.64050  Biso   1.000  C
  C113     1.0000 0.96370  0.80730  0.64020  Biso   1.000  C
  C114     1.0000 0.99400  0.77260  0.62300  Biso   1.000  C
  C115     1.0000 0.39760  0.77140  0.52310  Biso   1.000  C
  C116     1.0000 0.36140  0.81160  0.51160  Biso   1.000  C
  C117     1.0000 0.43340  0.79690  0.59800  Biso   1.000  C
  C118     1.0000 0.34850  0.69920  0.48810  Biso   1.000  C
  C119     1.0000 0.44600  0.78330  0.49280  Biso   1.000  C
  C120     1.0000 0.44180  0.98850  0.55310  Biso   1.000  C
  C121     1.0000 0.39220  0.92660  0.53050  Biso   1.000  C
  C122     1.0000 0.32780  0.90610  0.49150  Biso   1.000  C
  C123     1.0000 0.31110  0.94990  0.47820  Biso   1.000  C
  C124     1.0000 0.36000  0.00990  0.49920  Biso   1.000  C
  C125     1.0000 0.42450  0.03110  0.53950  Biso   1.000  C
  C126     1.0000 0.27360  0.72930  0.64720  Biso   1.000  C
  C127     1.0000 0.35300  0.75920  0.69480  Biso   1.000  C
  C128     1.0000 0.40350  0.78420  0.68170  Biso   1.000  C
  C129     1.0000 0.46830  0.81200  0.72740  Biso   1.000  C
  C130     1.0000 0.48410  0.81530  0.78750  Biso   1.000  C
  C131     1.0000 0.43600  0.78880  0.79910  Biso   1.000  C
  C132     1.0000 0.37170  0.76290  0.75520  Biso   1.000  C
  C133     1.0000 0.18440  0.71750  0.55500  Biso   1.000  C
  C134     1.0000 0.17820  0.73980  0.50290  Biso   1.000  C
  C135     1.0000 0.16720  0.70040  0.44020  Biso   1.000  C
  C136     1.0000 0.15580  0.72180  0.39480  Biso   1.000  C
  C137     1.0000 0.14470  0.77470  0.40610  Biso   1.000  C
  C138     1.0000 0.15580  0.81410  0.46720  Biso   1.000  C
  C139     1.0000 0.17350  0.79650  0.51510  Biso   1.000  C
  C140     1.0000 0.22910  0.64650  0.27470  Biso   1.000  C
  C141     1.0000 0.21200  0.60260  0.30660  Biso   1.000  C
  C142     1.0000 0.25080  0.61400  0.36950  Biso   1.000  C
  C143     1.0000 0.23120  0.56990  0.39060  Biso   1.000  C
  C144     1.0000 0.17400  0.50690  0.34490  Biso   1.000  C
  C145     1.0000 0.13340  0.49830  0.28490  Biso   1.000  C
  C146     1.0000 0.15270  0.54160  0.26400  Biso   1.000  C
  C147     1.0000 0.30720  0.74510  0.28640  Biso   1.000  C
  C148     1.0000 0.38130  0.78900  0.31900  Biso   1.000  C
  C149     1.0000 0.39960  0.85060  0.36840  Biso   1.000  C
  C150     1.0000 0.46430  0.90010  0.40420  Biso   1.000  C
  C151     1.0000 0.51270  0.88910  0.39410  Biso   1.000  C
  C152     1.0000 0.49390  0.83150  0.33940  Biso   1.000  C
  C153     1.0000 0.42930  0.78100  0.30480  Biso   1.000  C
  C154     1.0000 0.58410  0.74310  0.53770  Biso   1.000  C
  C155     1.0000 0.54700  0.76960  0.51350  Biso   1.000  C
  C156     1.0000 0.56560  0.80800  0.48770  Biso   1.000  C
  C157     1.0000 0.62080  0.81670  0.48230  Biso   1.000  C
  C158     1.0000 0.66290  0.79890  0.51230  Biso   1.000  C
  C159     1.0000 0.64000  0.75640  0.53270  Biso   1.000  C
  C160     1.0000 0.10630  0.52280  0.02590  Biso   1.000  C
  C161     1.0000 0.17940  0.51970  0.10620  Biso   1.000  C
  C162     1.0000 0.21180  0.47790  0.11920  Biso   1.000  C
  C163     1.0000 0.18390  0.42570  0.13030  Biso   1.000  C
  C164     1.0000 0.21400  0.38830  0.13610  Biso   1.000  C
  C165     1.0000 0.27480  0.40620  0.14050  Biso   1.000  C
  C166     1.0000 0.30730  0.46370  0.14020  Biso   1.000  C
  C167     1.0000 0.27260  0.49400  0.12300  Biso   1.000  C
  C168     1.0000 0.27140  0.89760  0.02310  Biso   1.000  C
  C169     1.0000 0.31160  0.86140  0.01160  Biso   1.000  C
  C170     1.0000 0.29690  0.93340  0.09800  Biso   1.000  C
  C171     1.0000 0.19920  0.84850  0.98810  Biso   1.000  C
  C172     1.0000 0.28330  0.94600  0.99280  Biso   1.000  C
  C173     1.0000 0.48850  0.94180  0.05310  Biso   1.000  C
  C174     1.0000 0.42660  0.89220  0.03050  Biso   1.000  C
  C175     1.0000 0.40610  0.82780  0.99150  Biso   1.000  C
  C176     1.0000 0.44990  0.81110  0.97820  Biso   1.000  C
  C177     1.0000 0.50990  0.86000  0.99920  Biso   1.000  C
  C178     1.0000 0.53110  0.92450  0.03950  Biso   1.000  C
  C179     1.0000 0.22930  0.77360  0.14720  Biso   1.000  C
  C180     1.0000 0.25920  0.85300  0.19480  Biso   1.000  C
  C181     1.0000 0.28420  0.90350  0.18170  Biso   1.000  C
  C182     1.0000 0.31200  0.96830  0.22740  Biso   1.000  C
  C183     1.0000 0.31530  0.98410  0.28750  Biso   1.000  C
  C184     1.0000 0.28880  0.93600  0.29910  Biso   1.000  C
  C185     1.0000 0.26290  0.87170  0.25520  Biso   1.000  C
  C186     1.0000 0.21750  0.68440  0.05500  Biso   1.000  C
  C187     1.0000 0.23980  0.67820  0.00290  Biso   1.000  C
  C188     1.0000 0.20040  0.66720  0.94020  Biso   1.000  C
  C189     1.0000 0.22180  0.65580  0.89480  Biso   1.000  C
  C190     1.0000 0.27470  0.64470  0.90610  Biso   1.000  C
  C191     1.0000 0.31410  0.65580  0.96720  Biso   1.000  C
  C192     1.0000 0.29650  0.67350  0.01510  Biso   1.000  C
  C193     1.0000 0.14650  0.72910  0.77470  Biso   1.000  C
  C194     1.0000 0.10260  0.71200  0.80660  Biso   1.000  C
  C195     1.0000 0.11400  0.75080  0.86950  Biso   1.000  C
  C196     1.0000 0.06990  0.73120  0.89060  Biso   1.000  C
  C197     1.0000 0.00690  0.67400  0.84490  Biso   1.000  C
  C198     1.0000 0.99830  0.63340  0.78490  Biso   1.000  C
  C199     1.0000 0.04160  0.65270  0.76400  Biso   1.000  C
  C200     1.0000 0.24510  0.80720  0.78640  Biso   1.000  C
  C201     1.0000 0.28900  0.88130  0.81900  Biso   1.000  C
  C202     1.0000 0.35060  0.89960  0.86840  Biso   1.000  C
  C203     1.0000 0.40010  0.96430  0.90420  Biso   1.000  C
  C204     1.0000 0.38910  0.01270  0.89410  Biso   1.000  C
  C205     1.0000 0.33150  0.99390  0.83940  Biso   1.000  C
  C206     1.0000 0.28100  0.92930  0.80480  Biso   1.000  C
  C207     1.0000 0.24310  0.08410  0.03770  Biso   1.000  C
  C208     1.0000 0.26960  0.04700  0.01350  Biso   1.000  C
  C209     1.0000 0.30800  0.06560  0.98770  Biso   1.000  C
  C210     1.0000 0.31670  0.12080  0.98230  Biso   1.000  C
  C211     1.0000 0.29890  0.16290  0.01230  Biso   1.000  C
  C212     1.0000 0.25640  0.14000  0.03270  Biso   1.000  C
  N13      1.0000 0.99860  0.64140  0.54200  Biso   1.000  N
  N14      1.0000 0.12220  0.49230  0.52820  Biso   1.000  N
  N15      1.0000 0.26400  0.60830  0.73990  Biso   1.000  N
  N16      1.0000 0.05540  0.51430  0.67260  Biso   1.000  N
  N17      1.0000 0.25610  0.75520  0.60700  Biso   1.000  N
  N18      1.0000 0.29490  0.68990  0.30140  Biso   1.000  N
  N19      1.0000 0.14140  0.49860  0.04200  Biso   1.000  N
  N20      1.0000 0.99230  0.62220  0.02820  Biso   1.000  N
  N21      1.0000 0.10830  0.76400  0.23990  Biso   1.000  N
  N22      1.0000 0.01430  0.55540  0.17260  Biso   1.000  N
  N23      1.0000 0.25520  0.75610  0.10700  Biso   1.000  N
  N24      1.0000 0.18990  0.79490  0.80140  Biso   1.000  N
  O33      1.0000 0.06970  0.60580  0.56650  Biso   1.000  O
  O34      1.0000 0.08850  0.47850  0.55590  Biso   1.000  O
  O35      1.0000 0.16260  0.55230  0.54960  Biso   1.000  O
  O36      1.0000 0.10340  0.44900  0.46910  Biso   1.000  O
  O37      1.0000 0.24540  0.64850  0.76060  Biso   1.000  O
  O38      1.0000 0.23570  0.56640  0.67900  Biso   1.000  O
  O39      1.0000 0.30710  0.60400  0.78300  Biso   1.000  O
  O40      1.0000 0.11740  0.53630  0.70620  Biso   1.000  O
  O41      1.0000 0.03530  0.53800  0.63510  Biso   1.000  O
  O42      1.0000 0.01640  0.48380  0.68840  Biso   1.000  O
  O43      1.0000 0.41520  0.88310  0.54500  Biso   1.000  O
  O44      1.0000 0.38340  0.77800  0.61800  Biso   1.000  O
  O45      1.0000 0.30790  0.67860  0.41190  Biso   1.000  O
  O46      1.0000 0.49050  0.75470  0.51980  Biso   1.000  O
  O47      1.0000 0.23030  0.68680  0.65080  Biso   1.000  O
  O48      1.0000 0.18510  0.64580  0.22730  Biso   1.000  O
  O49      1.0000 0.10580  0.56970  0.06650  Biso   1.000  O
  O50      1.0000 0.97850  0.58850  0.05590  Biso   1.000  O
  O51      1.0000 0.05230  0.66260  0.04960  Biso   1.000  O
  O52      1.0000 0.94900  0.60340  0.96910  Biso   1.000  O
  O53      1.0000 0.14850  0.74540  0.26060  Biso   1.000  O
  O54      1.0000 0.06640  0.73570  0.17900  Biso   1.000  O
  O55      1.0000 0.10400  0.80710  0.28300  Biso   1.000  O
  O56      1.0000 0.03630  0.61740  0.20620  Biso   1.000  O
  O57      1.0000 0.03800  0.53530  0.13510  Biso   1.000  O
  O58      1.0000 0.98380  0.51640  0.18840  Biso   1.000  O
  O59      1.0000 0.38310  0.91520  0.04500  Biso   1.000  O
  O60      1.0000 0.27800  0.88340  0.11800  Biso   1.000  O
  O61      1.0000 0.17860  0.80790  0.91190  Biso   1.000  O
  O62      1.0000 0.25470  0.99050  0.01980  Biso   1.000  O
  O63      1.0000 0.18680  0.73030  0.15080  Biso   1.000  O
  O64      1.0000 0.14580  0.68510  0.72730  Biso   1.000  O
  Eu5      1.0000 0.64814  0.14815  0.59952  Biso   1.000  Eu
  Eu6      1.0000 0.14814  0.09952  0.64815  Biso   1.000  Eu
  H193     1.0000 0.61160  0.28480  0.79120  Biso   1.000  H
  H194     1.0000 0.32520  0.32670  0.68560  Biso   1.000  H
  H195     1.0000 0.53120  0.33240  0.80810  Biso   1.000  H
  H196     1.0000 0.46370  0.33410  0.79410  Biso   1.000  H
  H197     1.0000 0.62250  0.46170  0.84550  Biso   1.000  H
  H198     1.0000 0.60820  0.46170  0.77730  Biso   1.000  H
  H199     1.0000 0.49280  0.37120  0.67360  Biso   1.000  H
  H200     1.0000 0.50630  0.31840  0.69130  Biso   1.000  H
  H201     1.0000 0.50880  0.47300  0.83090  Biso   1.000  H
  H202     1.0000 0.44390  0.42070  0.75910  Biso   1.000  H
  H203     1.0000 0.47340  0.29460  0.86200  Biso   1.000  H
  H204     1.0000 0.45470  0.26610  0.93800  Biso   1.000  H
  H205     1.0000 0.48570  0.34920  0.03840  Biso   1.000  H
  H206     1.0000 0.55780  0.45730  0.07540  Biso   1.000  H
  H207     1.0000 0.71750  0.50210  0.82890  Biso   1.000  H
  H208     1.0000 0.82040  0.52910  0.83640  Biso   1.000  H
  H209     1.0000 0.83920  0.44710  0.78800  Biso   1.000  H
  H210     1.0000 0.76660  0.33900  0.74700  Biso   1.000  H
  H211     1.0000 0.53400  0.16830  0.66940  Biso   1.000  H
  H212     1.0000 0.57500  0.15760  0.72670  Biso   1.000  H
  H213     1.0000 0.42920  0.16760  0.66000  Biso   1.000  H
  H214     1.0000 0.35520  0.15580  0.69990  Biso   1.000  H
  H215     1.0000 0.37130  0.12940  0.78370  Biso   1.000  H
  H216     1.0000 0.47630  0.15140  0.85230  Biso   1.000  H
  H217     1.0000 0.55820  0.18290  0.82440  Biso   1.000  H
  H218     1.0000 0.43540  0.25570  0.58160  Biso   1.000  H
  H219     1.0000 0.35490  0.16410  0.47230  Biso   1.000  H
  H220     1.0000 0.25740  0.09030  0.46060  Biso   1.000  H
  H221     1.0000 0.22010  0.12580  0.53050  Biso   1.000  H
  H222     1.0000 0.30360  0.28770  0.77080  Biso   1.000  H
  H223     1.0000 0.23800  0.28640  0.72700  Biso   1.000  H
  H224     1.0000 0.37700  0.36730  0.85810  Biso   1.000  H
  H225     1.0000 0.43630  0.47630  0.94240  Biso   1.000  H
  H226     1.0000 0.42410  0.55810  0.92080  Biso   1.000  H
  H227     1.0000 0.32630  0.52490  0.82710  Biso   1.000  H
  H228     1.0000 0.27040  0.41700  0.73980  Biso   1.000  H
  H229     1.0000 0.47400  0.54140  0.82820  Biso   1.000  H
  H230     1.0000 0.45660  0.62990  0.83570  Biso   1.000  H
  H231     1.0000 0.51890  0.70640  0.81570  Biso   1.000  H
  H232     1.0000 0.54380  0.66360  0.73490  Biso   1.000  H
  H233     1.0000 0.51140  0.96770  0.64140  Biso   1.000  H
  H234     1.0000 0.62770  0.01960  0.65200  Biso   1.000  H
  H235     1.0000 0.62750  0.06590  0.71480  Biso   1.000  H
  H236     1.0000 0.63380  0.91650  0.64520  Biso   1.000  H
  H237     1.0000 0.63680  0.84920  0.69210  Biso   1.000  H
  H238     1.0000 0.64360  0.87940  0.79430  Biso   1.000  H
  H239     1.0000 0.65170  0.98160  0.85230  Biso   1.000  H
  H240     1.0000 0.61340  0.02740  0.79110  Biso   1.000  H
  H241     1.0000 0.01140  0.14140  0.46770  Biso   1.000  H
  H242     1.0000 0.12770  0.15200  0.51960  Biso   1.000  H
  H243     1.0000 0.12750  0.21480  0.56590  Biso   1.000  H
  H244     1.0000 0.13380  0.14520  0.41650  Biso   1.000  H
  H245     1.0000 0.13680  0.19210  0.34920  Biso   1.000  H
  H246     1.0000 0.14360  0.29430  0.37940  Biso   1.000  H
  H247     1.0000 0.15170  0.35230  0.48160  Biso   1.000  H
  H248     1.0000 0.11340  0.29110  0.52740  Biso   1.000  H
  H249     1.0000 0.11160  0.29120  0.78480  Biso   1.000  H
  H250     1.0000 0.82520  0.18560  0.82670  Biso   1.000  H
  H251     1.0000 0.03120  0.30810  0.83240  Biso   1.000  H
  H252     1.0000 0.96370  0.29410  0.83410  Biso   1.000  H
  H253     1.0000 0.12250  0.34550  0.96170  Biso   1.000  H
  H254     1.0000 0.10820  0.27730  0.96170  Biso   1.000  H
  H255     1.0000 0.99280  0.17360  0.87120  Biso   1.000  H
  H256     1.0000 0.00630  0.19130  0.81840  Biso   1.000  H
  H257     1.0000 0.00880  0.33090  0.97300  Biso   1.000  H
  H258     1.0000 0.94390  0.25910  0.92070  Biso   1.000  H
  H259     1.0000 0.97340  0.36200  0.79460  Biso   1.000  H
  H260     1.0000 0.95470  0.43800  0.76610  Biso   1.000  H
  H261     1.0000 0.98570  0.53840  0.84920  Biso   1.000  H
  H262     1.0000 0.05780  0.57540  0.95730  Biso   1.000  H
  H263     1.0000 0.21750  0.32890  0.00210  Biso   1.000  H
  H264     1.0000 0.32040  0.33640  0.02910  Biso   1.000  H
  H265     1.0000 0.33920  0.28800  0.94710  Biso   1.000  H
  H266     1.0000 0.26660  0.24700  0.83900  Biso   1.000  H
  H267     1.0000 0.03400  0.16940  0.66830  Biso   1.000  H
  H268     1.0000 0.07500  0.22670  0.65760  Biso   1.000  H
  H269     1.0000 0.92920  0.16000  0.66760  Biso   1.000  H
  H270     1.0000 0.85520  0.19990  0.65580  Biso   1.000  H
  H271     1.0000 0.87130  0.28370  0.62940  Biso   1.000  H
  H272     1.0000 0.97630  0.35230  0.65140  Biso   1.000  H
  H273     1.0000 0.05820  0.32440  0.68290  Biso   1.000  H
  H274     1.0000 0.93540  0.08160  0.75570  Biso   1.000  H
  H275     1.0000 0.85490  0.97230  0.66410  Biso   1.000  H
  H276     1.0000 0.75740  0.96060  0.59030  Biso   1.000  H
  H277     1.0000 0.72010  0.03050  0.62580  Biso   1.000  H
  H278     1.0000 0.80360  0.27080  0.78770  Biso   1.000  H
  H279     1.0000 0.73800  0.22700  0.78640  Biso   1.000  H
  H280     1.0000 0.87700  0.35810  0.86730  Biso   1.000  H
  H281     1.0000 0.93630  0.44240  0.97630  Biso   1.000  H
  H282     1.0000 0.92410  0.42080  0.05810  Biso   1.000  H
  H283     1.0000 0.82630  0.32710  0.02490  Biso   1.000  H
  H284     1.0000 0.77040  0.23980  0.91700  Biso   1.000  H
  H285     1.0000 0.97400  0.32820  0.04140  Biso   1.000  H
  H286     1.0000 0.95660  0.33570  0.12990  Biso   1.000  H
  H287     1.0000 0.01890  0.31570  0.20640  Biso   1.000  H
  H288     1.0000 0.04380  0.23490  0.16360  Biso   1.000  H
  C213     1.0000 0.52310  0.39760  0.77140  Biso   1.000  C
  C214     1.0000 0.51160  0.36140  0.81160  Biso   1.000  C
  C215     1.0000 0.59800  0.43340  0.79690  Biso   1.000  C
  C216     1.0000 0.48810  0.34850  0.69920  Biso   1.000  C
  C217     1.0000 0.49280  0.44600  0.78330  Biso   1.000  C
  C218     1.0000 0.55310  0.44180  0.98850  Biso   1.000  C
  C219     1.0000 0.53050  0.39220  0.92660  Biso   1.000  C
  C220     1.0000 0.49150  0.32780  0.90610  Biso   1.000  C
  C221     1.0000 0.47820  0.31110  0.94990  Biso   1.000  C
  C222     1.0000 0.49920  0.36000  0.00990  Biso   1.000  C
  C223     1.0000 0.53950  0.42450  0.03110  Biso   1.000  C
  C224     1.0000 0.64720  0.27360  0.72930  Biso   1.000  C
  C225     1.0000 0.69480  0.35300  0.75920  Biso   1.000  C
  C226     1.0000 0.68170  0.40350  0.78420  Biso   1.000  C
  C227     1.0000 0.72740  0.46830  0.81200  Biso   1.000  C
  C228     1.0000 0.78750  0.48410  0.81530  Biso   1.000  C
  C229     1.0000 0.79910  0.43600  0.78880  Biso   1.000  C
  C230     1.0000 0.75520  0.37170  0.76290  Biso   1.000  C
  C231     1.0000 0.55500  0.18440  0.71750  Biso   1.000  C
  C232     1.0000 0.50290  0.17820  0.73980  Biso   1.000  C
  C233     1.0000 0.44020  0.16720  0.70040  Biso   1.000  C
  C234     1.0000 0.39480  0.15580  0.72180  Biso   1.000  C
  C235     1.0000 0.40610  0.14470  0.77470  Biso   1.000  C
  C236     1.0000 0.46720  0.15580  0.81410  Biso   1.000  C
  C237     1.0000 0.51510  0.17350  0.79650  Biso   1.000  C
  C238     1.0000 0.27470  0.22910  0.64650  Biso   1.000  C
  C239     1.0000 0.30660  0.21200  0.60260  Biso   1.000  C
  C240     1.0000 0.36950  0.25080  0.61400  Biso   1.000  C
  C241     1.0000 0.39060  0.23120  0.56990  Biso   1.000  C
  C242     1.0000 0.34490  0.17400  0.50690  Biso   1.000  C
  C243     1.0000 0.28490  0.13340  0.49830  Biso   1.000  C
  C244     1.0000 0.26400  0.15270  0.54160  Biso   1.000  C
  C245     1.0000 0.28640  0.30720  0.74510  Biso   1.000  C
  C246     1.0000 0.31900  0.38130  0.78900  Biso   1.000  C
  C247     1.0000 0.36840  0.39960  0.85060  Biso   1.000  C
  C248     1.0000 0.40420  0.46430  0.90010  Biso   1.000  C
  C249     1.0000 0.39410  0.51270  0.88910  Biso   1.000  C
  C250     1.0000 0.33940  0.49390  0.83150  Biso   1.000  C
  C251     1.0000 0.30480  0.42930  0.78100  Biso   1.000  C
  C252     1.0000 0.53770  0.58410  0.74310  Biso   1.000  C
  C253     1.0000 0.51350  0.54700  0.76960  Biso   1.000  C
  C254     1.0000 0.48770  0.56560  0.80800  Biso   1.000  C
  C255     1.0000 0.48230  0.62080  0.81670  Biso   1.000  C
  C256     1.0000 0.51230  0.66290  0.79890  Biso   1.000  C
  C257     1.0000 0.53270  0.64000  0.75640  Biso   1.000  C
  C258     1.0000 0.52590  0.02280  0.60630  Biso   1.000  C
  C259     1.0000 0.60620  0.01970  0.67940  Biso   1.000  C
  C260     1.0000 0.61920  0.97790  0.71180  Biso   1.000  C
  C261     1.0000 0.63030  0.92570  0.68390  Biso   1.000  C
  C262     1.0000 0.63610  0.88830  0.71400  Biso   1.000  C
  C263     1.0000 0.64050  0.90620  0.77480  Biso   1.000  C
  C264     1.0000 0.64020  0.96370  0.80730  Biso   1.000  C
  C265     1.0000 0.62300  0.99400  0.77260  Biso   1.000  C
  C266     1.0000 0.02590  0.10630  0.52280  Biso   1.000  C
  C267     1.0000 0.10620  0.17940  0.51970  Biso   1.000  C
  C268     1.0000 0.11920  0.21180  0.47790  Biso   1.000  C
  C269     1.0000 0.13030  0.18390  0.42570  Biso   1.000  C
  C270     1.0000 0.13610  0.21400  0.38830  Biso   1.000  C
  C271     1.0000 0.14050  0.27480  0.40620  Biso   1.000  C
  C272     1.0000 0.14020  0.30730  0.46370  Biso   1.000  C
  C273     1.0000 0.12300  0.27260  0.49400  Biso   1.000  C
  C274     1.0000 0.02310  0.27140  0.89760  Biso   1.000  C
  C275     1.0000 0.01160  0.31160  0.86140  Biso   1.000  C
  C276     1.0000 0.09800  0.29690  0.93340  Biso   1.000  C
  C277     1.0000 0.98810  0.19920  0.84850  Biso   1.000  C
  C278     1.0000 0.99280  0.28330  0.94600  Biso   1.000  C
  C279     1.0000 0.05310  0.48850  0.94180  Biso   1.000  C
  C280     1.0000 0.03050  0.42660  0.89220  Biso   1.000  C
  C281     1.0000 0.99150  0.40610  0.82780  Biso   1.000  C
  C282     1.0000 0.97820  0.44990  0.81110  Biso   1.000  C
  C283     1.0000 0.99920  0.50990  0.86000  Biso   1.000  C
  C284     1.0000 0.03950  0.53110  0.92450  Biso   1.000  C
  C285     1.0000 0.14720  0.22930  0.77360  Biso   1.000  C
  C286     1.0000 0.19480  0.25920  0.85300  Biso   1.000  C
  C287     1.0000 0.18170  0.28420  0.90350  Biso   1.000  C
  C288     1.0000 0.22740  0.31200  0.96830  Biso   1.000  C
  C289     1.0000 0.28750  0.31530  0.98410  Biso   1.000  C
  C290     1.0000 0.29910  0.28880  0.93600  Biso   1.000  C
  C291     1.0000 0.25520  0.26290  0.87170  Biso   1.000  C
  C292     1.0000 0.05500  0.21750  0.68440  Biso   1.000  C
  C293     1.0000 0.00290  0.23980  0.67820  Biso   1.000  C
  C294     1.0000 0.94020  0.20040  0.66720  Biso   1.000  C
  C295     1.0000 0.89480  0.22180  0.65580  Biso   1.000  C
  C296     1.0000 0.90610  0.27470  0.64470  Biso   1.000  C
  C297     1.0000 0.96720  0.31410  0.65580  Biso   1.000  C
  C298     1.0000 0.01510  0.29650  0.67350  Biso   1.000  C
  C299     1.0000 0.77470  0.14650  0.72910  Biso   1.000  C
  C300     1.0000 0.80660  0.10260  0.71200  Biso   1.000  C
  C301     1.0000 0.86950  0.11400  0.75080  Biso   1.000  C
  C302     1.0000 0.89060  0.06990  0.73120  Biso   1.000  C
  C303     1.0000 0.84490  0.00690  0.67400  Biso   1.000  C
  C304     1.0000 0.78490  0.99830  0.63340  Biso   1.000  C
  C305     1.0000 0.76400  0.04160  0.65270  Biso   1.000  C
  C306     1.0000 0.78640  0.24510  0.80720  Biso   1.000  C
  C307     1.0000 0.81900  0.28900  0.88130  Biso   1.000  C
  C308     1.0000 0.86840  0.35060  0.89960  Biso   1.000  C
  C309     1.0000 0.90420  0.40010  0.96430  Biso   1.000  C
  C310     1.0000 0.89410  0.38910  0.01270  Biso   1.000  C
  C311     1.0000 0.83940  0.33150  0.99390  Biso   1.000  C
  C312     1.0000 0.80480  0.28100  0.92930  Biso   1.000  C
  C313     1.0000 0.03770  0.24310  0.08410  Biso   1.000  C
  C314     1.0000 0.01350  0.26960  0.04700  Biso   1.000  C
  C315     1.0000 0.98770  0.30800  0.06560  Biso   1.000  C
  C316     1.0000 0.98230  0.31670  0.12080  Biso   1.000  C
  C317     1.0000 0.01230  0.29890  0.16290  Biso   1.000  C
  C318     1.0000 0.03270  0.25640  0.14000  Biso   1.000  C
  N25      1.0000 0.60700  0.25610  0.75520  Biso   1.000  N
  N26      1.0000 0.30140  0.29490  0.68990  Biso   1.000  N
  N27      1.0000 0.54200  0.99860  0.64140  Biso   1.000  N
  N28      1.0000 0.52820  0.12220  0.49230  Biso   1.000  N
  N29      1.0000 0.73990  0.26400  0.60830  Biso   1.000  N
  N30      1.0000 0.67260  0.05540  0.51430  Biso   1.000  N
  N31      1.0000 0.04200  0.14140  0.49860  Biso   1.000  N
  N32      1.0000 0.02820  0.99230  0.62220  Biso   1.000  N
  N33      1.0000 0.23990  0.10830  0.76400  Biso   1.000  N
  N34      1.0000 0.17260  0.01430  0.55540  Biso   1.000  N
  N35      1.0000 0.10700  0.25520  0.75610  Biso   1.000  N
  N36      1.0000 0.80140  0.18990  0.79490  Biso   1.000  N
  O65      1.0000 0.54500  0.41520  0.88310  Biso   1.000  O
  O66      1.0000 0.61800  0.38340  0.77800  Biso   1.000  O
  O67      1.0000 0.41190  0.30790  0.67860  Biso   1.000  O
  O68      1.0000 0.51980  0.49050  0.75470  Biso   1.000  O
  O69      1.0000 0.65080  0.23030  0.68680  Biso   1.000  O
  O70      1.0000 0.22730  0.18510  0.64580  Biso   1.000  O
  O71      1.0000 0.56650  0.06970  0.60580  Biso   1.000  O
  O72      1.0000 0.55590  0.08850  0.47850  Biso   1.000  O
  O73      1.0000 0.54960  0.16260  0.55230  Biso   1.000  O
  O74      1.0000 0.46910  0.10340  0.44900  Biso   1.000  O
  O75      1.0000 0.76060  0.24540  0.64850  Biso   1.000  O
  O76      1.0000 0.67900  0.23570  0.56640  Biso   1.000  O
  O77      1.0000 0.78300  0.30710  0.60400  Biso   1.000  O
  O78      1.0000 0.70620  0.11740  0.53630  Biso   1.000  O
  O79      1.0000 0.63510  0.03530  0.53800  Biso   1.000  O
  O80      1.0000 0.68840  0.01640  0.48380  Biso   1.000  O
  O81      1.0000 0.06650  0.10580  0.56970  Biso   1.000  O
  O82      1.0000 0.05590  0.97850  0.58850  Biso   1.000  O
  O83      1.0000 0.04960  0.05230  0.66260  Biso   1.000  O
  O84      1.0000 0.96910  0.94900  0.60340  Biso   1.000  O
  O85      1.0000 0.26060  0.14850  0.74540  Biso   1.000  O
  O86      1.0000 0.17900  0.06640  0.73570  Biso   1.000  O
  O87      1.0000 0.28300  0.10400  0.80710  Biso   1.000  O
  O88      1.0000 0.20620  0.03630  0.61740  Biso   1.000  O
  O89      1.0000 0.13510  0.03800  0.53530  Biso   1.000  O
  O90      1.0000 0.18840  0.98380  0.51640  Biso   1.000  O
  O91      1.0000 0.04500  0.38310  0.91520  Biso   1.000  O
  O92      1.0000 0.11800  0.27800  0.88340  Biso   1.000  O
  O93      1.0000 0.91190  0.17860  0.80790  Biso   1.000  O
  O94      1.0000 0.01980  0.25470  0.99050  Biso   1.000  O
  O95      1.0000 0.15080  0.18680  0.73030  Biso   1.000  O
  O96      1.0000 0.72730  0.14580  0.68510  Biso   1.000  O
