data_image0
_cell_length_a       24.2501
_cell_length_b       24.2501
_cell_length_c       24.2501
_cell_angle_alpha    109.458
_cell_angle_beta     109.458
_cell_angle_gamma    109.458

_symmetry_space_group_name_H-M    P 1
_symmetry_int_tables_number       1

loop_
  _symmetry_equiv_pos_as_xyz
  'x, y, z'

loop_
  _atom_site_label
  _atom_site_occupancy
  _atom_site_fract_x
  _atom_site_fract_y
  _atom_site_fract_z
  _atom_site_thermal_displace_type
  _atom_site_B_iso_or_equiv
  _atom_site_type_symbol
  Pr1      1.0000 0.40159  0.35083  0.85048  Biso   1.000  Pr
  Pr2      1.0000 0.85048  0.40159  0.35083  Biso   1.000  Pr
  Pr3      1.0000 0.35083  0.85048  0.40159  Biso   1.000  Pr
  Pr4      1.0000 0.85083  0.90159  0.35048  Biso   1.000  Pr
  Pr5      1.0000 0.90159  0.35048  0.85083  Biso   1.000  Pr
  Pr6      1.0000 0.35048  0.85083  0.90159  Biso   1.000  Pr
  Pr7      1.0000 0.29937  0.29937  0.29937  Biso   1.000  Pr
  Pr8      1.0000 0.79937  0.79937  0.79937  Biso   1.000  Pr
  H1       1.0000 0.33210  0.47140  0.01270  Biso   1.000  H
  H2       1.0000 0.38260  0.70100  0.20600  Biso   1.000  H
  H3       1.0000 0.67550  0.67390  0.31250  Biso   1.000  H
  H4       1.0000 0.50730  0.52640  0.37800  Biso   1.000  H
  H5       1.0000 0.53350  0.66640  0.20790  Biso   1.000  H
  H6       1.0000 0.46310  0.66120  0.19230  Biso   1.000  H
  H7       1.0000 0.39050  0.53260  0.21980  Biso   1.000  H
  H8       1.0000 0.37410  0.53800  0.15400  Biso   1.000  H
  H9       1.0000 0.52130  0.62730  0.33150  Biso   1.000  H
  H10      1.0000 0.49930  0.67840  0.31890  Biso   1.000  H
  H11      1.0000 0.54930  0.57180  0.24170  Biso   1.000  H
  H12      1.0000 0.48280  0.52010  0.17210  Biso   1.000  H
  H13      1.0000 0.52060  0.69570  0.13390  Biso   1.000  H
  H14      1.0000 0.55780  0.72800  0.06710  Biso   1.000  H
  H15      1.0000 0.51570  0.64910  0.95740  Biso   1.000  H
  H16      1.0000 0.43990  0.53600  0.91530  Biso   1.000  H
  H17      1.0000 0.32650  0.35560  0.94990  Biso   1.000  H
  H18      1.0000 0.39550  0.40000  0.01920  Biso   1.000  H
  H19      1.0000 0.36310  0.37100  0.10850  Biso   1.000  H
  H20      1.0000 0.28500  0.35530  0.14500  Biso   1.000  H
  H21      1.0000 0.18640  0.35280  0.08650  Biso   1.000  H
  H22      1.0000 0.16860  0.37150  0.99680  Biso   1.000  H
  H23      1.0000 0.24630  0.38550  0.95940  Biso   1.000  H
  H24      1.0000 0.28290  0.49000  0.16570  Biso   1.000  H
  H25      1.0000 0.17440  0.46140  0.15190  Biso   1.000  H
  H26      1.0000 0.15060  0.54310  0.19450  Biso   1.000  H
  H27      1.0000 0.23170  0.65780  0.24710  Biso   1.000  H
  H28      1.0000 0.41840  0.82660  0.28430  Biso   1.000  H
  H29      1.0000 0.46270  0.80970  0.33220  Biso   1.000  H
  H30      1.0000 0.56470  0.82880  0.34220  Biso   1.000  H
  H31      1.0000 0.64390  0.86070  0.31090  Biso   1.000  H
  H32      1.0000 0.61590  0.86600  0.21270  Biso   1.000  H
  H33      1.0000 0.50850  0.84520  0.14860  Biso   1.000  H
  H34      1.0000 0.42990  0.81430  0.18160  Biso   1.000  H
  H35      1.0000 0.55900  0.74210  0.41330  Biso   1.000  H
  H36      1.0000 0.63560  0.83480  0.52120  Biso   1.000  H
  H37      1.0000 0.74710  0.89490  0.55210  Biso   1.000  H
  H38      1.0000 0.77790  0.87040  0.46930  Biso   1.000  H
  H39      1.0000 0.76070  0.72600  0.27090  Biso   1.000  H
  H40      1.0000 0.69370  0.72590  0.23240  Biso   1.000  H
  H41      1.0000 0.59120  0.59360  0.12610  Biso   1.000  H
  H42      1.0000 0.56410  0.48370  0.07800  Biso   1.000  H
  H43      1.0000 0.64100  0.45310  0.12950  Biso   1.000  H
  H44      1.0000 0.73800  0.53440  0.23080  Biso   1.000  H
  H45      1.0000 0.76220  0.64520  0.27880  Biso   1.000  H
  H46      1.0000 0.51180  0.45580  0.15880  Biso   1.000  H
  H47      1.0000 0.53500  0.36940  0.14940  Biso   1.000  H
  H48      1.0000 0.51420  0.31560  0.20990  Biso   1.000  H
  H49      1.0000 0.46910  0.34970  0.27730  Biso   1.000  H
  H50      1.0000 0.37620  0.48840  0.33110  Biso   1.000  H
  H51      1.0000 0.40890  0.49010  0.39960  Biso   1.000  H
  H52      1.0000 0.36550  0.57740  0.33560  Biso   1.000  H
  H53      1.0000 0.39850  0.69180  0.39460  Biso   1.000  H
  H54      1.0000 0.48840  0.75990  0.50210  Biso   1.000  H
  H55      1.0000 0.54910  0.71760  0.55240  Biso   1.000  H
  H56      1.0000 0.51670  0.60470  0.49340  Biso   1.000  H
  H57      1.0000 0.01270  0.33210  0.47140  Biso   1.000  H
  H58      1.0000 0.20600  0.38260  0.70100  Biso   1.000  H
  H59      1.0000 0.31250  0.67550  0.67390  Biso   1.000  H
  H60      1.0000 0.37800  0.50730  0.52640  Biso   1.000  H
  H61      1.0000 0.20790  0.53350  0.66640  Biso   1.000  H
  H62      1.0000 0.19230  0.46310  0.66120  Biso   1.000  H
  H63      1.0000 0.21980  0.39050  0.53260  Biso   1.000  H
  H64      1.0000 0.15400  0.37410  0.53800  Biso   1.000  H
  H65      1.0000 0.33150  0.52130  0.62730  Biso   1.000  H
  H66      1.0000 0.31890  0.49930  0.67840  Biso   1.000  H
  H67      1.0000 0.24170  0.54930  0.57180  Biso   1.000  H
  H68      1.0000 0.17210  0.48280  0.52010  Biso   1.000  H
  H69      1.0000 0.13390  0.52060  0.69570  Biso   1.000  H
  H70      1.0000 0.06710  0.55780  0.72800  Biso   1.000  H
  H71      1.0000 0.95740  0.51570  0.64910  Biso   1.000  H
  H72      1.0000 0.91530  0.43990  0.53600  Biso   1.000  H
  H73      1.0000 0.94990  0.32650  0.35560  Biso   1.000  H
  H74      1.0000 0.01920  0.39550  0.40000  Biso   1.000  H
  H75      1.0000 0.10850  0.36310  0.37100  Biso   1.000  H
  H76      1.0000 0.14500  0.28500  0.35530  Biso   1.000  H
  H77      1.0000 0.08650  0.18640  0.35280  Biso   1.000  H
  H78      1.0000 0.99680  0.16860  0.37150  Biso   1.000  H
  H79      1.0000 0.95940  0.24630  0.38550  Biso   1.000  H
  H80      1.0000 0.16570  0.28290  0.49000  Biso   1.000  H
  H81      1.0000 0.15190  0.17440  0.46140  Biso   1.000  H
  H82      1.0000 0.19450  0.15060  0.54310  Biso   1.000  H
  H83      1.0000 0.24710  0.23170  0.65780  Biso   1.000  H
  H84      1.0000 0.28430  0.41840  0.82660  Biso   1.000  H
  H85      1.0000 0.33220  0.46270  0.80970  Biso   1.000  H
  H86      1.0000 0.34220  0.56470  0.82880  Biso   1.000  H
  H87      1.0000 0.31090  0.64390  0.86070  Biso   1.000  H
  H88      1.0000 0.21270  0.61590  0.86600  Biso   1.000  H
  H89      1.0000 0.14860  0.50850  0.84520  Biso   1.000  H
  H90      1.0000 0.18160  0.42990  0.81430  Biso   1.000  H
  H91      1.0000 0.41330  0.55900  0.74210  Biso   1.000  H
  H92      1.0000 0.52120  0.63560  0.83480  Biso   1.000  H
  H93      1.0000 0.55210  0.74710  0.89490  Biso   1.000  H
  H94      1.0000 0.46930  0.77790  0.87040  Biso   1.000  H
  H95      1.0000 0.27090  0.76070  0.72600  Biso   1.000  H
  H96      1.0000 0.23240  0.69370  0.72590  Biso   1.000  H
  H97      1.0000 0.12610  0.59120  0.59360  Biso   1.000  H
  H98      1.0000 0.07800  0.56410  0.48370  Biso   1.000  H
  H99      1.0000 0.12950  0.64100  0.45310  Biso   1.000  H
  H100     1.0000 0.23080  0.73800  0.53440  Biso   1.000  H
  H101     1.0000 0.27880  0.76220  0.64520  Biso   1.000  H
  H102     1.0000 0.15880  0.51180  0.45580  Biso   1.000  H
  H103     1.0000 0.14940  0.53500  0.36940  Biso   1.000  H
  H104     1.0000 0.20990  0.51420  0.31560  Biso   1.000  H
  H105     1.0000 0.27730  0.46910  0.34970  Biso   1.000  H
  H106     1.0000 0.33110  0.37620  0.48840  Biso   1.000  H
  H107     1.0000 0.39960  0.40890  0.49010  Biso   1.000  H
  H108     1.0000 0.33560  0.36550  0.57740  Biso   1.000  H
  H109     1.0000 0.39460  0.39850  0.69180  Biso   1.000  H
  H110     1.0000 0.50210  0.48840  0.75990  Biso   1.000  H
  H111     1.0000 0.55240  0.54910  0.71760  Biso   1.000  H
  H112     1.0000 0.49340  0.51670  0.60470  Biso   1.000  H
  H113     1.0000 0.47140  0.01270  0.33210  Biso   1.000  H
  H114     1.0000 0.70100  0.20600  0.38260  Biso   1.000  H
  H115     1.0000 0.67390  0.31250  0.67550  Biso   1.000  H
  H116     1.0000 0.52640  0.37800  0.50730  Biso   1.000  H
  H117     1.0000 0.66640  0.20790  0.53350  Biso   1.000  H
  H118     1.0000 0.66120  0.19230  0.46310  Biso   1.000  H
  H119     1.0000 0.53260  0.21980  0.39050  Biso   1.000  H
  H120     1.0000 0.53800  0.15400  0.37410  Biso   1.000  H
  H121     1.0000 0.62730  0.33150  0.52130  Biso   1.000  H
  H122     1.0000 0.67840  0.31890  0.49930  Biso   1.000  H
  H123     1.0000 0.57180  0.24170  0.54930  Biso   1.000  H
  H124     1.0000 0.52010  0.17210  0.48280  Biso   1.000  H
  H125     1.0000 0.69570  0.13390  0.52060  Biso   1.000  H
  H126     1.0000 0.72800  0.06710  0.55780  Biso   1.000  H
  H127     1.0000 0.64910  0.95740  0.51570  Biso   1.000  H
  H128     1.0000 0.53600  0.91530  0.43990  Biso   1.000  H
  H129     1.0000 0.35560  0.94990  0.32650  Biso   1.000  H
  H130     1.0000 0.40000  0.01920  0.39550  Biso   1.000  H
  H131     1.0000 0.37100  0.10850  0.36310  Biso   1.000  H
  H132     1.0000 0.35530  0.14500  0.28500  Biso   1.000  H
  H133     1.0000 0.35280  0.08650  0.18640  Biso   1.000  H
  H134     1.0000 0.37150  0.99680  0.16860  Biso   1.000  H
  H135     1.0000 0.38550  0.95940  0.24630  Biso   1.000  H
  H136     1.0000 0.49000  0.16570  0.28290  Biso   1.000  H
  H137     1.0000 0.46140  0.15190  0.17440  Biso   1.000  H
  H138     1.0000 0.54310  0.19450  0.15060  Biso   1.000  H
  H139     1.0000 0.65780  0.24710  0.23170  Biso   1.000  H
  H140     1.0000 0.82660  0.28430  0.41840  Biso   1.000  H
  H141     1.0000 0.80970  0.33220  0.46270  Biso   1.000  H
  H142     1.0000 0.82880  0.34220  0.56470  Biso   1.000  H
  H143     1.0000 0.86070  0.31090  0.64390  Biso   1.000  H
  H144     1.0000 0.86600  0.21270  0.61590  Biso   1.000  H
  H145     1.0000 0.84520  0.14860  0.50850  Biso   1.000  H
  H146     1.0000 0.81430  0.18160  0.42990  Biso   1.000  H
  H147     1.0000 0.74210  0.41330  0.55900  Biso   1.000  H
  H148     1.0000 0.83480  0.52120  0.63560  Biso   1.000  H
  H149     1.0000 0.89490  0.55210  0.74710  Biso   1.000  H
  H150     1.0000 0.87040  0.46930  0.77790  Biso   1.000  H
  H151     1.0000 0.72600  0.27090  0.76070  Biso   1.000  H
  H152     1.0000 0.72590  0.23240  0.69370  Biso   1.000  H
  H153     1.0000 0.59360  0.12610  0.59120  Biso   1.000  H
  H154     1.0000 0.48370  0.07800  0.56410  Biso   1.000  H
  H155     1.0000 0.45310  0.12950  0.64100  Biso   1.000  H
  H156     1.0000 0.53440  0.23080  0.73800  Biso   1.000  H
  H157     1.0000 0.64520  0.27880  0.76220  Biso   1.000  H
  H158     1.0000 0.45580  0.15880  0.51180  Biso   1.000  H
  H159     1.0000 0.36940  0.14940  0.53500  Biso   1.000  H
  H160     1.0000 0.31560  0.20990  0.51420  Biso   1.000  H
  H161     1.0000 0.34970  0.27730  0.46910  Biso   1.000  H
  H162     1.0000 0.48840  0.33110  0.37620  Biso   1.000  H
  H163     1.0000 0.49010  0.39960  0.40890  Biso   1.000  H
  H164     1.0000 0.57740  0.33560  0.36550  Biso   1.000  H
  H165     1.0000 0.69180  0.39460  0.39850  Biso   1.000  H
  H166     1.0000 0.75990  0.50210  0.48840  Biso   1.000  H
  H167     1.0000 0.71760  0.55240  0.54910  Biso   1.000  H
  H168     1.0000 0.60470  0.49340  0.51670  Biso   1.000  H
  H169     1.0000 0.97140  0.83210  0.51270  Biso   1.000  H
  H170     1.0000 0.20100  0.88260  0.70600  Biso   1.000  H
  H171     1.0000 0.17390  0.17550  0.81250  Biso   1.000  H
  H172     1.0000 0.02640  0.00730  0.87800  Biso   1.000  H
  H173     1.0000 0.16640  0.03350  0.70790  Biso   1.000  H
  H174     1.0000 0.16120  0.96310  0.69230  Biso   1.000  H
  H175     1.0000 0.03260  0.89050  0.71980  Biso   1.000  H
  H176     1.0000 0.03800  0.87410  0.65400  Biso   1.000  H
  H177     1.0000 0.12730  0.02130  0.83150  Biso   1.000  H
  H178     1.0000 0.17840  0.99930  0.81890  Biso   1.000  H
  H179     1.0000 0.07180  0.04930  0.74170  Biso   1.000  H
  H180     1.0000 0.02010  0.98280  0.67210  Biso   1.000  H
  H181     1.0000 0.19570  0.02060  0.63390  Biso   1.000  H
  H182     1.0000 0.22800  0.05780  0.56710  Biso   1.000  H
  H183     1.0000 0.14910  0.01570  0.45740  Biso   1.000  H
  H184     1.0000 0.03600  0.93990  0.41530  Biso   1.000  H
  H185     1.0000 0.85560  0.82650  0.44990  Biso   1.000  H
  H186     1.0000 0.90000  0.89550  0.51920  Biso   1.000  H
  H187     1.0000 0.87100  0.86310  0.60850  Biso   1.000  H
  H188     1.0000 0.85530  0.78500  0.64500  Biso   1.000  H
  H189     1.0000 0.85280  0.68640  0.58650  Biso   1.000  H
  H190     1.0000 0.87150  0.66860  0.49680  Biso   1.000  H
  H191     1.0000 0.88550  0.74630  0.45940  Biso   1.000  H
  H192     1.0000 0.99000  0.78290  0.66570  Biso   1.000  H
  H193     1.0000 0.96140  0.67440  0.65190  Biso   1.000  H
  H194     1.0000 0.04310  0.65060  0.69450  Biso   1.000  H
  H195     1.0000 0.15780  0.73170  0.74710  Biso   1.000  H
  H196     1.0000 0.32660  0.91840  0.78430  Biso   1.000  H
  H197     1.0000 0.30970  0.96270  0.83220  Biso   1.000  H
  H198     1.0000 0.32880  0.06470  0.84220  Biso   1.000  H
  H199     1.0000 0.36070  0.14390  0.81090  Biso   1.000  H
  H200     1.0000 0.36600  0.11590  0.71270  Biso   1.000  H
  H201     1.0000 0.34520  0.00850  0.64860  Biso   1.000  H
  H202     1.0000 0.31430  0.92990  0.68160  Biso   1.000  H
  H203     1.0000 0.24210  0.05900  0.91330  Biso   1.000  H
  H204     1.0000 0.33480  0.13560  0.02120  Biso   1.000  H
  H205     1.0000 0.39490  0.24710  0.05210  Biso   1.000  H
  H206     1.0000 0.37040  0.27790  0.96930  Biso   1.000  H
  H207     1.0000 0.22600  0.26070  0.77090  Biso   1.000  H
  H208     1.0000 0.22590  0.19370  0.73240  Biso   1.000  H
  H209     1.0000 0.09360  0.09120  0.62610  Biso   1.000  H
  H210     1.0000 0.98370  0.06410  0.57800  Biso   1.000  H
  H211     1.0000 0.95310  0.14100  0.62950  Biso   1.000  H
  H212     1.0000 0.03440  0.23800  0.73080  Biso   1.000  H
  H213     1.0000 0.14520  0.26220  0.77880  Biso   1.000  H
  H214     1.0000 0.95580  0.01180  0.65880  Biso   1.000  H
  H215     1.0000 0.86940  0.03500  0.64940  Biso   1.000  H
  H216     1.0000 0.81560  0.01420  0.70990  Biso   1.000  H
  H217     1.0000 0.84970  0.96910  0.77730  Biso   1.000  H
  H218     1.0000 0.98840  0.87620  0.83110  Biso   1.000  H
  H219     1.0000 0.99010  0.90890  0.89960  Biso   1.000  H
  H220     1.0000 0.07740  0.86550  0.83560  Biso   1.000  H
  H221     1.0000 0.19180  0.89850  0.89460  Biso   1.000  H
  H222     1.0000 0.25990  0.98840  0.00210  Biso   1.000  H
  H223     1.0000 0.21760  0.04910  0.05240  Biso   1.000  H
  H224     1.0000 0.10470  0.01670  0.99340  Biso   1.000  H
  H225     1.0000 0.83210  0.51270  0.97140  Biso   1.000  H
  H226     1.0000 0.88260  0.70600  0.20100  Biso   1.000  H
  H227     1.0000 0.17550  0.81250  0.17390  Biso   1.000  H
  H228     1.0000 0.00730  0.87800  0.02640  Biso   1.000  H
  H229     1.0000 0.03350  0.70790  0.16640  Biso   1.000  H
  H230     1.0000 0.96310  0.69230  0.16120  Biso   1.000  H
  H231     1.0000 0.89050  0.71980  0.03260  Biso   1.000  H
  H232     1.0000 0.87410  0.65400  0.03800  Biso   1.000  H
  H233     1.0000 0.02130  0.83150  0.12730  Biso   1.000  H
  H234     1.0000 0.99930  0.81890  0.17840  Biso   1.000  H
  H235     1.0000 0.04930  0.74170  0.07180  Biso   1.000  H
  H236     1.0000 0.98280  0.67210  0.02010  Biso   1.000  H
  H237     1.0000 0.02060  0.63390  0.19570  Biso   1.000  H
  H238     1.0000 0.05780  0.56710  0.22800  Biso   1.000  H
  H239     1.0000 0.01570  0.45740  0.14910  Biso   1.000  H
  H240     1.0000 0.93990  0.41530  0.03600  Biso   1.000  H
  H241     1.0000 0.82650  0.44990  0.85560  Biso   1.000  H
  H242     1.0000 0.89550  0.51920  0.90000  Biso   1.000  H
  H243     1.0000 0.86310  0.60850  0.87100  Biso   1.000  H
  H244     1.0000 0.78500  0.64500  0.85530  Biso   1.000  H
  H245     1.0000 0.68640  0.58650  0.85280  Biso   1.000  H
  H246     1.0000 0.66860  0.49680  0.87150  Biso   1.000  H
  H247     1.0000 0.74630  0.45940  0.88550  Biso   1.000  H
  H248     1.0000 0.78290  0.66570  0.99000  Biso   1.000  H
  H249     1.0000 0.67440  0.65190  0.96140  Biso   1.000  H
  H250     1.0000 0.65060  0.69450  0.04310  Biso   1.000  H
  H251     1.0000 0.73170  0.74710  0.15780  Biso   1.000  H
  H252     1.0000 0.91840  0.78430  0.32660  Biso   1.000  H
  H253     1.0000 0.96270  0.83220  0.30970  Biso   1.000  H
  H254     1.0000 0.06470  0.84220  0.32880  Biso   1.000  H
  H255     1.0000 0.14390  0.81090  0.36070  Biso   1.000  H
  H256     1.0000 0.11590  0.71270  0.36600  Biso   1.000  H
  H257     1.0000 0.00850  0.64860  0.34520  Biso   1.000  H
  H258     1.0000 0.92990  0.68160  0.31430  Biso   1.000  H
  H259     1.0000 0.05900  0.91330  0.24210  Biso   1.000  H
  H260     1.0000 0.13560  0.02120  0.33480  Biso   1.000  H
  H261     1.0000 0.24710  0.05210  0.39490  Biso   1.000  H
  H262     1.0000 0.27790  0.96930  0.37040  Biso   1.000  H
  H263     1.0000 0.26070  0.77090  0.22600  Biso   1.000  H
  H264     1.0000 0.19370  0.73240  0.22590  Biso   1.000  H
  H265     1.0000 0.09120  0.62610  0.09360  Biso   1.000  H
  H266     1.0000 0.06410  0.57800  0.98370  Biso   1.000  H
  H267     1.0000 0.14100  0.62950  0.95310  Biso   1.000  H
  H268     1.0000 0.23800  0.73080  0.03440  Biso   1.000  H
  H269     1.0000 0.26220  0.77880  0.14520  Biso   1.000  H
  H270     1.0000 0.01180  0.65880  0.95580  Biso   1.000  H
  H271     1.0000 0.03500  0.64940  0.86940  Biso   1.000  H
  H272     1.0000 0.01420  0.70990  0.81560  Biso   1.000  H
  H273     1.0000 0.96910  0.77730  0.84970  Biso   1.000  H
  H274     1.0000 0.87620  0.83110  0.98840  Biso   1.000  H
  H275     1.0000 0.90890  0.89960  0.99010  Biso   1.000  H
  H276     1.0000 0.86550  0.83560  0.07740  Biso   1.000  H
  H277     1.0000 0.89850  0.89460  0.19180  Biso   1.000  H
  H278     1.0000 0.98840  0.00210  0.25990  Biso   1.000  H
  H279     1.0000 0.04910  0.05240  0.21760  Biso   1.000  H
  H280     1.0000 0.01670  0.99340  0.10470  Biso   1.000  H
  H281     1.0000 0.51270  0.97140  0.83210  Biso   1.000  H
  H282     1.0000 0.70600  0.20100  0.88260  Biso   1.000  H
  H283     1.0000 0.81250  0.17390  0.17550  Biso   1.000  H
  H284     1.0000 0.87800  0.02640  0.00730  Biso   1.000  H
  H285     1.0000 0.70790  0.16640  0.03350  Biso   1.000  H
  H286     1.0000 0.69230  0.16120  0.96310  Biso   1.000  H
  H287     1.0000 0.71980  0.03260  0.89050  Biso   1.000  H
  H288     1.0000 0.65400  0.03800  0.87410  Biso   1.000  H
  H289     1.0000 0.83150  0.12730  0.02130  Biso   1.000  H
  H290     1.0000 0.81890  0.17840  0.99930  Biso   1.000  H
  H291     1.0000 0.74170  0.07180  0.04930  Biso   1.000  H
  H292     1.0000 0.67210  0.02010  0.98280  Biso   1.000  H
  H293     1.0000 0.63390  0.19570  0.02060  Biso   1.000  H
  H294     1.0000 0.56710  0.22800  0.05780  Biso   1.000  H
  H295     1.0000 0.45740  0.14910  0.01570  Biso   1.000  H
  H296     1.0000 0.41530  0.03600  0.93990  Biso   1.000  H
  H297     1.0000 0.44990  0.85560  0.82650  Biso   1.000  H
  H298     1.0000 0.51920  0.90000  0.89550  Biso   1.000  H
  H299     1.0000 0.60850  0.87100  0.86310  Biso   1.000  H
  H300     1.0000 0.64500  0.85530  0.78500  Biso   1.000  H
  H301     1.0000 0.58650  0.85280  0.68640  Biso   1.000  H
  H302     1.0000 0.49680  0.87150  0.66860  Biso   1.000  H
  H303     1.0000 0.45940  0.88550  0.74630  Biso   1.000  H
  H304     1.0000 0.66570  0.99000  0.78290  Biso   1.000  H
  H305     1.0000 0.65190  0.96140  0.67440  Biso   1.000  H
  H306     1.0000 0.69450  0.04310  0.65060  Biso   1.000  H
  H307     1.0000 0.74710  0.15780  0.73170  Biso   1.000  H
  H308     1.0000 0.78430  0.32660  0.91840  Biso   1.000  H
  H309     1.0000 0.83220  0.30970  0.96270  Biso   1.000  H
  H310     1.0000 0.84220  0.32880  0.06470  Biso   1.000  H
  H311     1.0000 0.81090  0.36070  0.14390  Biso   1.000  H
  H312     1.0000 0.71270  0.36600  0.11590  Biso   1.000  H
  H313     1.0000 0.64860  0.34520  0.00850  Biso   1.000  H
  H314     1.0000 0.68160  0.31430  0.92990  Biso   1.000  H
  H315     1.0000 0.91330  0.24210  0.05900  Biso   1.000  H
  H316     1.0000 0.02120  0.33480  0.13560  Biso   1.000  H
  H317     1.0000 0.05210  0.39490  0.24710  Biso   1.000  H
  H318     1.0000 0.96930  0.37040  0.27790  Biso   1.000  H
  H319     1.0000 0.77090  0.22600  0.26070  Biso   1.000  H
  H320     1.0000 0.73240  0.22590  0.19370  Biso   1.000  H
  H321     1.0000 0.62610  0.09360  0.09120  Biso   1.000  H
  H322     1.0000 0.57800  0.98370  0.06410  Biso   1.000  H
  H323     1.0000 0.62950  0.95310  0.14100  Biso   1.000  H
  H324     1.0000 0.73080  0.03440  0.23800  Biso   1.000  H
  H325     1.0000 0.77880  0.14520  0.26220  Biso   1.000  H
  H326     1.0000 0.65880  0.95580  0.01180  Biso   1.000  H
  H327     1.0000 0.64940  0.86940  0.03500  Biso   1.000  H
  H328     1.0000 0.70990  0.81560  0.01420  Biso   1.000  H
  H329     1.0000 0.77730  0.84970  0.96910  Biso   1.000  H
  H330     1.0000 0.83110  0.98840  0.87620  Biso   1.000  H
  H331     1.0000 0.89960  0.99010  0.90890  Biso   1.000  H
  H332     1.0000 0.83560  0.07740  0.86550  Biso   1.000  H
  H333     1.0000 0.89460  0.19180  0.89850  Biso   1.000  H
  H334     1.0000 0.00210  0.25990  0.98840  Biso   1.000  H
  H335     1.0000 0.05240  0.21760  0.04910  Biso   1.000  H
  H336     1.0000 0.99340  0.10470  0.01670  Biso   1.000  H
  C1       1.0000 0.47920  0.60070  0.22710  Biso   1.000  C
  C2       1.0000 0.48620  0.63520  0.18890  Biso   1.000  C
  C3       1.0000 0.40040  0.56360  0.20290  Biso   1.000  C
  C4       1.0000 0.52010  0.65180  0.30700  Biso   1.000  C
  C5       1.0000 0.50040  0.54920  0.21960  Biso   1.000  C
  C6       1.0000 0.38950  0.47930  0.97170  Biso   1.000  C
  C7       1.0000 0.43680  0.55030  0.00040  Biso   1.000  C
  C8       1.0000 0.46040  0.59660  0.06490  Biso   1.000  C
  C9       1.0000 0.50500  0.66360  0.09010  Biso   1.000  C
  C10      1.0000 0.52670  0.68310  0.04980  Biso   1.000  C
  C11      1.0000 0.50210  0.63620  0.98480  Biso   1.000  C
  C12      1.0000 0.45650  0.56830  0.95940  Biso   1.000  C
  C13      1.0000 0.35050  0.39280  0.99580  Biso   1.000  C
  C14      1.0000 0.31280  0.38060  0.03250  Biso   1.000  C
  C15      1.0000 0.32370  0.37110  0.08600  Biso   1.000  C
  C16      1.0000 0.27690  0.36120  0.10760  Biso   1.000  C
  C17      1.0000 0.21870  0.36050  0.07320  Biso   1.000  C
  C18      1.0000 0.20760  0.37070  0.01890  Biso   1.000  C
  C19      1.0000 0.25420  0.38000  0.99690  Biso   1.000  C
  C20      1.0000 0.35370  0.71570  0.27600  Biso   1.000  C
  C21      1.0000 0.30520  0.64100  0.23960  Biso   1.000  C
  C22      1.0000 0.31890  0.59150  0.21510  Biso   1.000  C
  C23      1.0000 0.27210  0.52300  0.18190  Biso   1.000  C
  C24      1.0000 0.20740  0.50650  0.17430  Biso   1.000  C
  C25      1.0000 0.19310  0.55500  0.19890  Biso   1.000  C
  C26      1.0000 0.24220  0.62440  0.23160  Biso   1.000  C
  C27      1.0000 0.44010  0.79970  0.28590  Biso   1.000  C
  C28      1.0000 0.49010  0.81880  0.26540  Biso   1.000  C
  C29      1.0000 0.55330  0.83220  0.30340  Biso   1.000  C
  C30      1.0000 0.60020  0.85060  0.28430  Biso   1.000  C
  C31      1.0000 0.58380  0.85460  0.22590  Biso   1.000  C
  C32      1.0000 0.51990  0.84170  0.18750  Biso   1.000  C
  C33      1.0000 0.47330  0.82360  0.20750  Biso   1.000  C
  C34      1.0000 0.72610  0.77360  0.35870  Biso   1.000  C
  C35      1.0000 0.68970  0.78660  0.39680  Biso   1.000  C
  C36      1.0000 0.62660  0.74300  0.38260  Biso   1.000  C
  C37      1.0000 0.60450  0.76510  0.42640  Biso   1.000  C
  C38      1.0000 0.65010  0.82220  0.49050  Biso   1.000  C
  C39      1.0000 0.71560  0.85930  0.50820  Biso   1.000  C
  C40      1.0000 0.73460  0.84290  0.45940  Biso   1.000  C
  C41      1.0000 0.71250  0.70450  0.25450  Biso   1.000  C
  C42      1.0000 0.67820  0.62950  0.20690  Biso   1.000  C
  C43      1.0000 0.62060  0.58110  0.14730  Biso   1.000  C
  C44      1.0000 0.60450  0.51600  0.11810  Biso   1.000  C
  C45      1.0000 0.65020  0.49760  0.14930  Biso   1.000  C
  C46      1.0000 0.70800  0.54610  0.20920  Biso   1.000  C
  C47      1.0000 0.72250  0.61240  0.23820  Biso   1.000  C
  C48      1.0000 0.43850  0.43170  0.30750  Biso   1.000  C
  C49      1.0000 0.46570  0.42330  0.25930  Biso   1.000  C
  C50      1.0000 0.47840  0.45520  0.22340  Biso   1.000  C
  C51      1.0000 0.50370  0.43430  0.18300  Biso   1.000  C
  C52      1.0000 0.51760  0.38260  0.17700  Biso   1.000  C
  C53      1.0000 0.50500  0.35040  0.21280  Biso   1.000  C
  C54      1.0000 0.47830  0.37140  0.25360  Biso   1.000  C
  C55      1.0000 0.41810  0.51040  0.37310  Biso   1.000  C
  C56      1.0000 0.43830  0.58210  0.40990  Biso   1.000  C
  C57      1.0000 0.40240  0.60580  0.37920  Biso   1.000  C
  C58      1.0000 0.42210  0.67420  0.41470  Biso   1.000  C
  C59      1.0000 0.47590  0.71470  0.47850  Biso   1.000  C
  C60      1.0000 0.51220  0.68950  0.50880  Biso   1.000  C
  C61      1.0000 0.49290  0.62230  0.47380  Biso   1.000  C
  C62      1.0000 0.22710  0.47920  0.60070  Biso   1.000  C
  C63      1.0000 0.18890  0.48620  0.63520  Biso   1.000  C
  C64      1.0000 0.20290  0.40040  0.56360  Biso   1.000  C
  C65      1.0000 0.30700  0.52010  0.65180  Biso   1.000  C
  C66      1.0000 0.21960  0.50040  0.54920  Biso   1.000  C
  C67      1.0000 0.97170  0.38950  0.47930  Biso   1.000  C
  C68      1.0000 0.00040  0.43680  0.55030  Biso   1.000  C
  C69      1.0000 0.06490  0.46040  0.59660  Biso   1.000  C
  C70      1.0000 0.09010  0.50500  0.66360  Biso   1.000  C
  C71      1.0000 0.04980  0.52670  0.68310  Biso   1.000  C
  C72      1.0000 0.98480  0.50210  0.63620  Biso   1.000  C
  C73      1.0000 0.95940  0.45650  0.56830  Biso   1.000  C
  C74      1.0000 0.99580  0.35050  0.39280  Biso   1.000  C
  C75      1.0000 0.03250  0.31280  0.38060  Biso   1.000  C
  C76      1.0000 0.08600  0.32370  0.37110  Biso   1.000  C
  C77      1.0000 0.10760  0.27690  0.36120  Biso   1.000  C
  C78      1.0000 0.07320  0.21870  0.36050  Biso   1.000  C
  C79      1.0000 0.01890  0.20760  0.37070  Biso   1.000  C
  C80      1.0000 0.99690  0.25420  0.38000  Biso   1.000  C
  C81      1.0000 0.27600  0.35370  0.71570  Biso   1.000  C
  C82      1.0000 0.23960  0.30520  0.64100  Biso   1.000  C
  C83      1.0000 0.21510  0.31890  0.59150  Biso   1.000  C
  C84      1.0000 0.18190  0.27210  0.52300  Biso   1.000  C
  C85      1.0000 0.17430  0.20740  0.50650  Biso   1.000  C
  C86      1.0000 0.19890  0.19310  0.55500  Biso   1.000  C
  C87      1.0000 0.23160  0.24220  0.62440  Biso   1.000  C
  C88      1.0000 0.28590  0.44010  0.79970  Biso   1.000  C
  C89      1.0000 0.26540  0.49010  0.81880  Biso   1.000  C
  C90      1.0000 0.30340  0.55330  0.83220  Biso   1.000  C
  C91      1.0000 0.28430  0.60020  0.85060  Biso   1.000  C
  C92      1.0000 0.22590  0.58380  0.85460  Biso   1.000  C
  C93      1.0000 0.18750  0.51990  0.84170  Biso   1.000  C
  C94      1.0000 0.20750  0.47330  0.82360  Biso   1.000  C
  C95      1.0000 0.35870  0.72610  0.77360  Biso   1.000  C
  C96      1.0000 0.39680  0.68970  0.78660  Biso   1.000  C
  C97      1.0000 0.38260  0.62660  0.74300  Biso   1.000  C
  C98      1.0000 0.42640  0.60450  0.76510  Biso   1.000  C
  C99      1.0000 0.49050  0.65010  0.82220  Biso   1.000  C
  C100     1.0000 0.50820  0.71560  0.85930  Biso   1.000  C
  C101     1.0000 0.45940  0.73460  0.84290  Biso   1.000  C
  C102     1.0000 0.25450  0.71250  0.70450  Biso   1.000  C
  C103     1.0000 0.20690  0.67820  0.62950  Biso   1.000  C
  C104     1.0000 0.14730  0.62060  0.58110  Biso   1.000  C
  C105     1.0000 0.11810  0.60450  0.51600  Biso   1.000  C
  C106     1.0000 0.14930  0.65020  0.49760  Biso   1.000  C
  C107     1.0000 0.20920  0.70800  0.54610  Biso   1.000  C
  C108     1.0000 0.23820  0.72250  0.61240  Biso   1.000  C
  C109     1.0000 0.30750  0.43850  0.43170  Biso   1.000  C
  C110     1.0000 0.25930  0.46570  0.42330  Biso   1.000  C
  C111     1.0000 0.22340  0.47840  0.45520  Biso   1.000  C
  C112     1.0000 0.18300  0.50370  0.43430  Biso   1.000  C
  C113     1.0000 0.17700  0.51760  0.38260  Biso   1.000  C
  C114     1.0000 0.21280  0.50500  0.35040  Biso   1.000  C
  C115     1.0000 0.25360  0.47830  0.37140  Biso   1.000  C
  C116     1.0000 0.37310  0.41810  0.51040  Biso   1.000  C
  C117     1.0000 0.40990  0.43830  0.58210  Biso   1.000  C
  C118     1.0000 0.37920  0.40240  0.60580  Biso   1.000  C
  C119     1.0000 0.41470  0.42210  0.67420  Biso   1.000  C
  C120     1.0000 0.47850  0.47590  0.71470  Biso   1.000  C
  C121     1.0000 0.50880  0.51220  0.68950  Biso   1.000  C
  C122     1.0000 0.47380  0.49290  0.62230  Biso   1.000  C
  C123     1.0000 0.60070  0.22710  0.47920  Biso   1.000  C
  C124     1.0000 0.63520  0.18890  0.48620  Biso   1.000  C
  C125     1.0000 0.56360  0.20290  0.40040  Biso   1.000  C
  C126     1.0000 0.65180  0.30700  0.52010  Biso   1.000  C
  C127     1.0000 0.54920  0.21960  0.50040  Biso   1.000  C
  C128     1.0000 0.47930  0.97170  0.38950  Biso   1.000  C
  C129     1.0000 0.55030  0.00040  0.43680  Biso   1.000  C
  C130     1.0000 0.59660  0.06490  0.46040  Biso   1.000  C
  C131     1.0000 0.66360  0.09010  0.50500  Biso   1.000  C
  C132     1.0000 0.68310  0.04980  0.52670  Biso   1.000  C
  C133     1.0000 0.63620  0.98480  0.50210  Biso   1.000  C
  C134     1.0000 0.56830  0.95940  0.45650  Biso   1.000  C
  C135     1.0000 0.39280  0.99580  0.35050  Biso   1.000  C
  C136     1.0000 0.38060  0.03250  0.31280  Biso   1.000  C
  C137     1.0000 0.37110  0.08600  0.32370  Biso   1.000  C
  C138     1.0000 0.36120  0.10760  0.27690  Biso   1.000  C
  C139     1.0000 0.36050  0.07320  0.21870  Biso   1.000  C
  C140     1.0000 0.37070  0.01890  0.20760  Biso   1.000  C
  C141     1.0000 0.38000  0.99690  0.25420  Biso   1.000  C
  C142     1.0000 0.71570  0.27600  0.35370  Biso   1.000  C
  C143     1.0000 0.64100  0.23960  0.30520  Biso   1.000  C
  C144     1.0000 0.59150  0.21510  0.31890  Biso   1.000  C
  C145     1.0000 0.52300  0.18190  0.27210  Biso   1.000  C
  C146     1.0000 0.50650  0.17430  0.20740  Biso   1.000  C
  C147     1.0000 0.55500  0.19890  0.19310  Biso   1.000  C
  C148     1.0000 0.62440  0.23160  0.24220  Biso   1.000  C
  C149     1.0000 0.79970  0.28590  0.44010  Biso   1.000  C
  C150     1.0000 0.81880  0.26540  0.49010  Biso   1.000  C
  C151     1.0000 0.83220  0.30340  0.55330  Biso   1.000  C
  C152     1.0000 0.85060  0.28430  0.60020  Biso   1.000  C
  C153     1.0000 0.85460  0.22590  0.58380  Biso   1.000  C
  C154     1.0000 0.84170  0.18750  0.51990  Biso   1.000  C
  C155     1.0000 0.82360  0.20750  0.47330  Biso   1.000  C
  C156     1.0000 0.77360  0.35870  0.72610  Biso   1.000  C
  C157     1.0000 0.78660  0.39680  0.68970  Biso   1.000  C
  C158     1.0000 0.74300  0.38260  0.62660  Biso   1.000  C
  C159     1.0000 0.76510  0.42640  0.60450  Biso   1.000  C
  C160     1.0000 0.82220  0.49050  0.65010  Biso   1.000  C
  C161     1.0000 0.85930  0.50820  0.71560  Biso   1.000  C
  C162     1.0000 0.84290  0.45940  0.73460  Biso   1.000  C
  C163     1.0000 0.70450  0.25450  0.71250  Biso   1.000  C
  C164     1.0000 0.62950  0.20690  0.67820  Biso   1.000  C
  C165     1.0000 0.58110  0.14730  0.62060  Biso   1.000  C
  C166     1.0000 0.51600  0.11810  0.60450  Biso   1.000  C
  C167     1.0000 0.49760  0.14930  0.65020  Biso   1.000  C
  C168     1.0000 0.54610  0.20920  0.70800  Biso   1.000  C
  C169     1.0000 0.61240  0.23820  0.72250  Biso   1.000  C
  C170     1.0000 0.43170  0.30750  0.43850  Biso   1.000  C
  C171     1.0000 0.42330  0.25930  0.46570  Biso   1.000  C
  C172     1.0000 0.45520  0.22340  0.47840  Biso   1.000  C
  C173     1.0000 0.43430  0.18300  0.50370  Biso   1.000  C
  C174     1.0000 0.38260  0.17700  0.51760  Biso   1.000  C
  C175     1.0000 0.35040  0.21280  0.50500  Biso   1.000  C
  C176     1.0000 0.37140  0.25360  0.47830  Biso   1.000  C
  C177     1.0000 0.51040  0.37310  0.41810  Biso   1.000  C
  C178     1.0000 0.58210  0.40990  0.43830  Biso   1.000  C
  C179     1.0000 0.60580  0.37920  0.40240  Biso   1.000  C
  C180     1.0000 0.67420  0.41470  0.42210  Biso   1.000  C
  C181     1.0000 0.71470  0.47850  0.47590  Biso   1.000  C
  C182     1.0000 0.68950  0.50880  0.51220  Biso   1.000  C
  C183     1.0000 0.62230  0.47380  0.49290  Biso   1.000  C
  C184     1.0000 0.10070  0.97920  0.72710  Biso   1.000  C
  C185     1.0000 0.13520  0.98620  0.68890  Biso   1.000  C
  C186     1.0000 0.06360  0.90040  0.70290  Biso   1.000  C
  C187     1.0000 0.15180  0.02010  0.80700  Biso   1.000  C
  C188     1.0000 0.04920  0.00040  0.71960  Biso   1.000  C
  C189     1.0000 0.97930  0.88950  0.47170  Biso   1.000  C
  C190     1.0000 0.05030  0.93680  0.50040  Biso   1.000  C
  C191     1.0000 0.09660  0.96040  0.56490  Biso   1.000  C
  C192     1.0000 0.16360  0.00500  0.59010  Biso   1.000  C
  C193     1.0000 0.18310  0.02670  0.54980  Biso   1.000  C
  C194     1.0000 0.13620  0.00210  0.48480  Biso   1.000  C
  C195     1.0000 0.06830  0.95650  0.45940  Biso   1.000  C
  C196     1.0000 0.89280  0.85050  0.49580  Biso   1.000  C
  C197     1.0000 0.88060  0.81280  0.53250  Biso   1.000  C
  C198     1.0000 0.87110  0.82370  0.58600  Biso   1.000  C
  C199     1.0000 0.86120  0.77690  0.60760  Biso   1.000  C
  C200     1.0000 0.86050  0.71870  0.57320  Biso   1.000  C
  C201     1.0000 0.87070  0.70760  0.51890  Biso   1.000  C
  C202     1.0000 0.88000  0.75420  0.49690  Biso   1.000  C
  C203     1.0000 0.21570  0.85370  0.77600  Biso   1.000  C
  C204     1.0000 0.14100  0.80520  0.73960  Biso   1.000  C
  C205     1.0000 0.09150  0.81890  0.71510  Biso   1.000  C
  C206     1.0000 0.02300  0.77210  0.68190  Biso   1.000  C
  C207     1.0000 0.00650  0.70740  0.67430  Biso   1.000  C
  C208     1.0000 0.05500  0.69310  0.69890  Biso   1.000  C
  C209     1.0000 0.12440  0.74220  0.73160  Biso   1.000  C
  C210     1.0000 0.29970  0.94010  0.78590  Biso   1.000  C
  C211     1.0000 0.31880  0.99010  0.76540  Biso   1.000  C
  C212     1.0000 0.33220  0.05330  0.80340  Biso   1.000  C
  C213     1.0000 0.35060  0.10020  0.78430  Biso   1.000  C
  C214     1.0000 0.35460  0.08380  0.72590  Biso   1.000  C
  C215     1.0000 0.34170  0.01990  0.68750  Biso   1.000  C
  C216     1.0000 0.32360  0.97330  0.70750  Biso   1.000  C
  C217     1.0000 0.27360  0.22610  0.85870  Biso   1.000  C
  C218     1.0000 0.28660  0.18970  0.89680  Biso   1.000  C
  C219     1.0000 0.24300  0.12660  0.88260  Biso   1.000  C
  C220     1.0000 0.26510  0.10450  0.92640  Biso   1.000  C
  C221     1.0000 0.32220  0.15010  0.99050  Biso   1.000  C
  C222     1.0000 0.35930  0.21560  0.00820  Biso   1.000  C
  C223     1.0000 0.34290  0.23460  0.95940  Biso   1.000  C
  C224     1.0000 0.20450  0.21250  0.75450  Biso   1.000  C
  C225     1.0000 0.12950  0.17820  0.70690  Biso   1.000  C
  C226     1.0000 0.08110  0.12060  0.64730  Biso   1.000  C
  C227     1.0000 0.01600  0.10450  0.61810  Biso   1.000  C
  C228     1.0000 0.99760  0.15020  0.64930  Biso   1.000  C
  C229     1.0000 0.04610  0.20800  0.70920  Biso   1.000  C
  C230     1.0000 0.11240  0.22250  0.73820  Biso   1.000  C
  C231     1.0000 0.93170  0.93850  0.80750  Biso   1.000  C
  C232     1.0000 0.92330  0.96570  0.75930  Biso   1.000  C
  C233     1.0000 0.95520  0.97840  0.72340  Biso   1.000  C
  C234     1.0000 0.93430  0.00370  0.68300  Biso   1.000  C
  C235     1.0000 0.88260  0.01760  0.67700  Biso   1.000  C
  C236     1.0000 0.85040  0.00500  0.71280  Biso   1.000  C
  C237     1.0000 0.87140  0.97830  0.75360  Biso   1.000  C
  C238     1.0000 0.01040  0.91810  0.87310  Biso   1.000  C
  C239     1.0000 0.08210  0.93830  0.90990  Biso   1.000  C
  C240     1.0000 0.10580  0.90240  0.87920  Biso   1.000  C
  C241     1.0000 0.17420  0.92210  0.91470  Biso   1.000  C
  C242     1.0000 0.21470  0.97590  0.97850  Biso   1.000  C
  C243     1.0000 0.18950  0.01220  0.00880  Biso   1.000  C
  C244     1.0000 0.12230  0.99290  0.97380  Biso   1.000  C
  C245     1.0000 0.97920  0.72710  0.10070  Biso   1.000  C
  C246     1.0000 0.98620  0.68890  0.13520  Biso   1.000  C
  C247     1.0000 0.90040  0.70290  0.06360  Biso   1.000  C
  C248     1.0000 0.02010  0.80700  0.15180  Biso   1.000  C
  C249     1.0000 0.00040  0.71960  0.04920  Biso   1.000  C
  C250     1.0000 0.88950  0.47170  0.97930  Biso   1.000  C
  C251     1.0000 0.93680  0.50040  0.05030  Biso   1.000  C
  C252     1.0000 0.96040  0.56490  0.09660  Biso   1.000  C
  C253     1.0000 0.00500  0.59010  0.16360  Biso   1.000  C
  C254     1.0000 0.02670  0.54980  0.18310  Biso   1.000  C
  C255     1.0000 0.00210  0.48480  0.13620  Biso   1.000  C
  C256     1.0000 0.95650  0.45940  0.06830  Biso   1.000  C
  C257     1.0000 0.85050  0.49580  0.89280  Biso   1.000  C
  C258     1.0000 0.81280  0.53250  0.88060  Biso   1.000  C
  C259     1.0000 0.82370  0.58600  0.87110  Biso   1.000  C
  C260     1.0000 0.77690  0.60760  0.86120  Biso   1.000  C
  C261     1.0000 0.71870  0.57320  0.86050  Biso   1.000  C
  C262     1.0000 0.70760  0.51890  0.87070  Biso   1.000  C
  C263     1.0000 0.75420  0.49690  0.88000  Biso   1.000  C
  C264     1.0000 0.85370  0.77600  0.21570  Biso   1.000  C
  C265     1.0000 0.80520  0.73960  0.14100  Biso   1.000  C
  C266     1.0000 0.81890  0.71510  0.09150  Biso   1.000  C
  C267     1.0000 0.77210  0.68190  0.02300  Biso   1.000  C
  C268     1.0000 0.70740  0.67430  0.00650  Biso   1.000  C
  C269     1.0000 0.69310  0.69890  0.05500  Biso   1.000  C
  C270     1.0000 0.74220  0.73160  0.12440  Biso   1.000  C
  C271     1.0000 0.94010  0.78590  0.29970  Biso   1.000  C
  C272     1.0000 0.99010  0.76540  0.31880  Biso   1.000  C
  C273     1.0000 0.05330  0.80340  0.33220  Biso   1.000  C
  C274     1.0000 0.10020  0.78430  0.35060  Biso   1.000  C
  C275     1.0000 0.08380  0.72590  0.35460  Biso   1.000  C
  C276     1.0000 0.01990  0.68750  0.34170  Biso   1.000  C
  C277     1.0000 0.97330  0.70750  0.32360  Biso   1.000  C
  C278     1.0000 0.22610  0.85870  0.27360  Biso   1.000  C
  C279     1.0000 0.18970  0.89680  0.28660  Biso   1.000  C
  C280     1.0000 0.12660  0.88260  0.24300  Biso   1.000  C
  C281     1.0000 0.10450  0.92640  0.26510  Biso   1.000  C
  C282     1.0000 0.15010  0.99050  0.32220  Biso   1.000  C
  C283     1.0000 0.21560  0.00820  0.35930  Biso   1.000  C
  C284     1.0000 0.23460  0.95940  0.34290  Biso   1.000  C
  C285     1.0000 0.21250  0.75450  0.20450  Biso   1.000  C
  C286     1.0000 0.17820  0.70690  0.12950  Biso   1.000  C
  C287     1.0000 0.12060  0.64730  0.08110  Biso   1.000  C
  C288     1.0000 0.10450  0.61810  0.01600  Biso   1.000  C
  C289     1.0000 0.15020  0.64930  0.99760  Biso   1.000  C
  C290     1.0000 0.20800  0.70920  0.04610  Biso   1.000  C
  C291     1.0000 0.22250  0.73820  0.11240  Biso   1.000  C
  C292     1.0000 0.93850  0.80750  0.93170  Biso   1.000  C
  C293     1.0000 0.96570  0.75930  0.92330  Biso   1.000  C
  C294     1.0000 0.97840  0.72340  0.95520  Biso   1.000  C
  C295     1.0000 0.00370  0.68300  0.93430  Biso   1.000  C
  C296     1.0000 0.01760  0.67700  0.88260  Biso   1.000  C
  C297     1.0000 0.00500  0.71280  0.85040  Biso   1.000  C
  C298     1.0000 0.97830  0.75360  0.87140  Biso   1.000  C
  C299     1.0000 0.91810  0.87310  0.01040  Biso   1.000  C
  C300     1.0000 0.93830  0.90990  0.08210  Biso   1.000  C
  C301     1.0000 0.90240  0.87920  0.10580  Biso   1.000  C
  C302     1.0000 0.92210  0.91470  0.17420  Biso   1.000  C
  C303     1.0000 0.97590  0.97850  0.21470  Biso   1.000  C
  C304     1.0000 0.01220  0.00880  0.18950  Biso   1.000  C
  C305     1.0000 0.99290  0.97380  0.12230  Biso   1.000  C
  C306     1.0000 0.72710  0.10070  0.97920  Biso   1.000  C
  C307     1.0000 0.68890  0.13520  0.98620  Biso   1.000  C
  C308     1.0000 0.70290  0.06360  0.90040  Biso   1.000  C
  C309     1.0000 0.80700  0.15180  0.02010  Biso   1.000  C
  C310     1.0000 0.71960  0.04920  0.00040  Biso   1.000  C
  C311     1.0000 0.47170  0.97930  0.88950  Biso   1.000  C
  C312     1.0000 0.50040  0.05030  0.93680  Biso   1.000  C
  C313     1.0000 0.56490  0.09660  0.96040  Biso   1.000  C
  C314     1.0000 0.59010  0.16360  0.00500  Biso   1.000  C
  C315     1.0000 0.54980  0.18310  0.02670  Biso   1.000  C
  C316     1.0000 0.48480  0.13620  0.00210  Biso   1.000  C
  C317     1.0000 0.45940  0.06830  0.95650  Biso   1.000  C
  C318     1.0000 0.49580  0.89280  0.85050  Biso   1.000  C
  C319     1.0000 0.53250  0.88060  0.81280  Biso   1.000  C
  C320     1.0000 0.58600  0.87110  0.82370  Biso   1.000  C
  C321     1.0000 0.60760  0.86120  0.77690  Biso   1.000  C
  C322     1.0000 0.57320  0.86050  0.71870  Biso   1.000  C
  C323     1.0000 0.51890  0.87070  0.70760  Biso   1.000  C
  C324     1.0000 0.49690  0.88000  0.75420  Biso   1.000  C
  C325     1.0000 0.77600  0.21570  0.85370  Biso   1.000  C
  C326     1.0000 0.73960  0.14100  0.80520  Biso   1.000  C
  C327     1.0000 0.71510  0.09150  0.81890  Biso   1.000  C
  C328     1.0000 0.68190  0.02300  0.77210  Biso   1.000  C
  C329     1.0000 0.67430  0.00650  0.70740  Biso   1.000  C
  C330     1.0000 0.69890  0.05500  0.69310  Biso   1.000  C
  C331     1.0000 0.73160  0.12440  0.74220  Biso   1.000  C
  C332     1.0000 0.78590  0.29970  0.94010  Biso   1.000  C
  C333     1.0000 0.76540  0.31880  0.99010  Biso   1.000  C
  C334     1.0000 0.80340  0.33220  0.05330  Biso   1.000  C
  C335     1.0000 0.78430  0.35060  0.10020  Biso   1.000  C
  C336     1.0000 0.72590  0.35460  0.08380  Biso   1.000  C
  C337     1.0000 0.68750  0.34170  0.01990  Biso   1.000  C
  C338     1.0000 0.70750  0.32360  0.97330  Biso   1.000  C
  C339     1.0000 0.85870  0.27360  0.22610  Biso   1.000  C
  C340     1.0000 0.89680  0.28660  0.18970  Biso   1.000  C
  C341     1.0000 0.88260  0.24300  0.12660  Biso   1.000  C
  C342     1.0000 0.92640  0.26510  0.10450  Biso   1.000  C
  C343     1.0000 0.99050  0.32220  0.15010  Biso   1.000  C
  C344     1.0000 0.00820  0.35930  0.21560  Biso   1.000  C
  C345     1.0000 0.95940  0.34290  0.23460  Biso   1.000  C
  C346     1.0000 0.75450  0.20450  0.21250  Biso   1.000  C
  C347     1.0000 0.70690  0.12950  0.17820  Biso   1.000  C
  C348     1.0000 0.64730  0.08110  0.12060  Biso   1.000  C
  C349     1.0000 0.61810  0.01600  0.10450  Biso   1.000  C
  C350     1.0000 0.64930  0.99760  0.15020  Biso   1.000  C
  C351     1.0000 0.70920  0.04610  0.20800  Biso   1.000  C
  C352     1.0000 0.73820  0.11240  0.22250  Biso   1.000  C
  C353     1.0000 0.80750  0.93170  0.93850  Biso   1.000  C
  C354     1.0000 0.75930  0.92330  0.96570  Biso   1.000  C
  C355     1.0000 0.72340  0.95520  0.97840  Biso   1.000  C
  C356     1.0000 0.68300  0.93430  0.00370  Biso   1.000  C
  C357     1.0000 0.67700  0.88260  0.01760  Biso   1.000  C
  C358     1.0000 0.71280  0.85040  0.00500  Biso   1.000  C
  C359     1.0000 0.75360  0.87140  0.97830  Biso   1.000  C
  C360     1.0000 0.87310  0.01040  0.91810  Biso   1.000  C
  C361     1.0000 0.90990  0.08210  0.93830  Biso   1.000  C
  C362     1.0000 0.87920  0.10580  0.90240  Biso   1.000  C
  C363     1.0000 0.91470  0.17420  0.92210  Biso   1.000  C
  C364     1.0000 0.97850  0.21470  0.97590  Biso   1.000  C
  C365     1.0000 0.00880  0.18950  0.01220  Biso   1.000  C
  C366     1.0000 0.97380  0.12230  0.99290  Biso   1.000  C
  N1       1.0000 0.35260  0.45330  0.99710  Biso   1.000  N
  N2       1.0000 0.38940  0.72910  0.24370  Biso   1.000  N
  N3       1.0000 0.69830  0.70840  0.31070  Biso   1.000  N
  N4       1.0000 0.46530  0.49640  0.35760  Biso   1.000  N
  N5       1.0000 0.51120  0.46450  0.87620  Biso   1.000  N
  N6       1.0000 0.39130  0.25470  0.73610  Biso   1.000  N
  N7       1.0000 0.48720  0.33910  0.94910  Biso   1.000  N
  N8       1.0000 0.20480  0.30560  0.21220  Biso   1.000  N
  N9       1.0000 0.99710  0.35260  0.45330  Biso   1.000  N
  N10      1.0000 0.24370  0.38940  0.72910  Biso   1.000  N
  N11      1.0000 0.31070  0.69830  0.70840  Biso   1.000  N
  N12      1.0000 0.35760  0.46530  0.49640  Biso   1.000  N
  N13      1.0000 0.87620  0.51120  0.46450  Biso   1.000  N
  N14      1.0000 0.73610  0.39130  0.25470  Biso   1.000  N
  N15      1.0000 0.94910  0.48720  0.33910  Biso   1.000  N
  N16      1.0000 0.21220  0.20480  0.30560  Biso   1.000  N
  N17      1.0000 0.45330  0.99710  0.35260  Biso   1.000  N
  N18      1.0000 0.72910  0.24370  0.38940  Biso   1.000  N
  N19      1.0000 0.70840  0.31070  0.69830  Biso   1.000  N
  N20      1.0000 0.49640  0.35760  0.46530  Biso   1.000  N
  N21      1.0000 0.46450  0.87620  0.51120  Biso   1.000  N
  N22      1.0000 0.25470  0.73610  0.39130  Biso   1.000  N
  N23      1.0000 0.33910  0.94910  0.48720  Biso   1.000  N
  N24      1.0000 0.30560  0.21220  0.20480  Biso   1.000  N
  N25      1.0000 0.95330  0.85260  0.49710  Biso   1.000  N
  N26      1.0000 0.22910  0.88940  0.74370  Biso   1.000  N
  N27      1.0000 0.20840  0.19830  0.81070  Biso   1.000  N
  N28      1.0000 0.99640  0.96530  0.85760  Biso   1.000  N
  N29      1.0000 0.96450  0.01120  0.37620  Biso   1.000  N
  N30      1.0000 0.75470  0.89130  0.23610  Biso   1.000  N
  N31      1.0000 0.83910  0.98720  0.44910  Biso   1.000  N
  N32      1.0000 0.80560  0.70480  0.71220  Biso   1.000  N
  N33      1.0000 0.85260  0.49710  0.95330  Biso   1.000  N
  N34      1.0000 0.88940  0.74370  0.22910  Biso   1.000  N
  N35      1.0000 0.19830  0.81070  0.20840  Biso   1.000  N
  N36      1.0000 0.96530  0.85760  0.99640  Biso   1.000  N
  N37      1.0000 0.01120  0.37620  0.96450  Biso   1.000  N
  N38      1.0000 0.89130  0.23610  0.75470  Biso   1.000  N
  N39      1.0000 0.98720  0.44910  0.83910  Biso   1.000  N
  N40      1.0000 0.70480  0.71220  0.80560  Biso   1.000  N
  N41      1.0000 0.49710  0.95330  0.85260  Biso   1.000  N
  N42      1.0000 0.74370  0.22910  0.88940  Biso   1.000  N
  N43      1.0000 0.81070  0.20840  0.19830  Biso   1.000  N
  N44      1.0000 0.85760  0.99640  0.96530  Biso   1.000  N
  N45      1.0000 0.37620  0.96450  0.01120  Biso   1.000  N
  N46      1.0000 0.23610  0.75470  0.89130  Biso   1.000  N
  N47      1.0000 0.44910  0.83910  0.98720  Biso   1.000  N
  N48      1.0000 0.71220  0.80560  0.70480  Biso   1.000  N
  O1       1.0000 0.45850  0.58850  0.11960  Biso   1.000  O
  O2       1.0000 0.38360  0.61330  0.22820  Biso   1.000  O
  O3       1.0000 0.58680  0.69420  0.32210  Biso   1.000  O
  O4       1.0000 0.47910  0.50910  0.24650  Biso   1.000  O
  O5       1.0000 0.38880  0.42650  0.92470  Biso   1.000  O
  O6       1.0000 0.34350  0.76830  0.30710  Biso   1.000  O
  O7       1.0000 0.78040  0.81680  0.35840  Biso   1.000  O
  O8       1.0000 0.39100  0.38850  0.31390  Biso   1.000  O
  O9       1.0000 0.52070  0.43200  0.90430  Biso   1.000  O
  O10      1.0000 0.45170  0.45270  0.84130  Biso   1.000  O
  O11      1.0000 0.55760  0.52400  0.89990  Biso   1.000  O
  O12      1.0000 0.34120  0.23070  0.74240  Biso   1.000  O
  O13      1.0000 0.42650  0.31810  0.76050  Biso   1.000  O
  O14      1.0000 0.39660  0.21290  0.69370  Biso   1.000  O
  O15      1.0000 0.46920  0.30890  0.88900  Biso   1.000  O
  O16      1.0000 0.46210  0.37140  0.97280  Biso   1.000  O
  O17      1.0000 0.52010  0.32240  0.98780  Biso   1.000  O
  O18      1.0000 0.26150  0.35540  0.24670  Biso   1.000  O
  O19      1.0000 0.19000  0.26270  0.23210  Biso   1.000  O
  O20      1.0000 0.15890  0.31560  0.18180  Biso   1.000  O
  O21      1.0000 0.11960  0.45850  0.58850  Biso   1.000  O
  O22      1.0000 0.22820  0.38360  0.61330  Biso   1.000  O
  O23      1.0000 0.32210  0.58680  0.69420  Biso   1.000  O
  O24      1.0000 0.24650  0.47910  0.50910  Biso   1.000  O
  O25      1.0000 0.92470  0.38880  0.42650  Biso   1.000  O
  O26      1.0000 0.30710  0.34350  0.76830  Biso   1.000  O
  O27      1.0000 0.35840  0.78040  0.81680  Biso   1.000  O
  O28      1.0000 0.31390  0.39100  0.38850  Biso   1.000  O
  O29      1.0000 0.90430  0.52070  0.43200  Biso   1.000  O
  O30      1.0000 0.84130  0.45170  0.45270  Biso   1.000  O
  O31      1.0000 0.89990  0.55760  0.52400  Biso   1.000  O
  O32      1.0000 0.74240  0.34120  0.23070  Biso   1.000  O
  O33      1.0000 0.76050  0.42650  0.31810  Biso   1.000  O
  O34      1.0000 0.69370  0.39660  0.21290  Biso   1.000  O
  O35      1.0000 0.88900  0.46920  0.30890  Biso   1.000  O
  O36      1.0000 0.97280  0.46210  0.37140  Biso   1.000  O
  O37      1.0000 0.98780  0.52010  0.32240  Biso   1.000  O
  O38      1.0000 0.24670  0.26150  0.35540  Biso   1.000  O
  O39      1.0000 0.23210  0.19000  0.26270  Biso   1.000  O
  O40      1.0000 0.18180  0.15890  0.31560  Biso   1.000  O
  O41      1.0000 0.58850  0.11960  0.45850  Biso   1.000  O
  O42      1.0000 0.61330  0.22820  0.38360  Biso   1.000  O
  O43      1.0000 0.69420  0.32210  0.58680  Biso   1.000  O
  O44      1.0000 0.50910  0.24650  0.47910  Biso   1.000  O
  O45      1.0000 0.42650  0.92470  0.38880  Biso   1.000  O
  O46      1.0000 0.76830  0.30710  0.34350  Biso   1.000  O
  O47      1.0000 0.81680  0.35840  0.78040  Biso   1.000  O
  O48      1.0000 0.38850  0.31390  0.39100  Biso   1.000  O
  O49      1.0000 0.43200  0.90430  0.52070  Biso   1.000  O
  O50      1.0000 0.45270  0.84130  0.45170  Biso   1.000  O
  O51      1.0000 0.52400  0.89990  0.55760  Biso   1.000  O
  O52      1.0000 0.23070  0.74240  0.34120  Biso   1.000  O
  O53      1.0000 0.31810  0.76050  0.42650  Biso   1.000  O
  O54      1.0000 0.21290  0.69370  0.39660  Biso   1.000  O
  O55      1.0000 0.30890  0.88900  0.46920  Biso   1.000  O
  O56      1.0000 0.37140  0.97280  0.46210  Biso   1.000  O
  O57      1.0000 0.32240  0.98780  0.52010  Biso   1.000  O
  O58      1.0000 0.35540  0.24670  0.26150  Biso   1.000  O
  O59      1.0000 0.26270  0.23210  0.19000  Biso   1.000  O
  O60      1.0000 0.31560  0.18180  0.15890  Biso   1.000  O
  O61      1.0000 0.08850  0.95850  0.61960  Biso   1.000  O
  O62      1.0000 0.11330  0.88360  0.72820  Biso   1.000  O
  O63      1.0000 0.19420  0.08680  0.82210  Biso   1.000  O
  O64      1.0000 0.00910  0.97910  0.74650  Biso   1.000  O
  O65      1.0000 0.92650  0.88880  0.42470  Biso   1.000  O
  O66      1.0000 0.26830  0.84350  0.80710  Biso   1.000  O
  O67      1.0000 0.31680  0.28040  0.85840  Biso   1.000  O
  O68      1.0000 0.88850  0.89100  0.81390  Biso   1.000  O
  O69      1.0000 0.93200  0.02070  0.40430  Biso   1.000  O
  O70      1.0000 0.95270  0.95170  0.34130  Biso   1.000  O
  O71      1.0000 0.02400  0.05760  0.39990  Biso   1.000  O
  O72      1.0000 0.73070  0.84120  0.24240  Biso   1.000  O
  O73      1.0000 0.81810  0.92650  0.26050  Biso   1.000  O
  O74      1.0000 0.71290  0.89660  0.19370  Biso   1.000  O
  O75      1.0000 0.80890  0.96920  0.38900  Biso   1.000  O
  O76      1.0000 0.87140  0.96210  0.47280  Biso   1.000  O
  O77      1.0000 0.82240  0.02010  0.48780  Biso   1.000  O
  O78      1.0000 0.85540  0.76150  0.74670  Biso   1.000  O
  O79      1.0000 0.76270  0.69000  0.73210  Biso   1.000  O
  O80      1.0000 0.81560  0.65890  0.68180  Biso   1.000  O
  O81      1.0000 0.95850  0.61960  0.08850  Biso   1.000  O
  O82      1.0000 0.88360  0.72820  0.11330  Biso   1.000  O
  O83      1.0000 0.08680  0.82210  0.19420  Biso   1.000  O
  O84      1.0000 0.97910  0.74650  0.00910  Biso   1.000  O
  O85      1.0000 0.88880  0.42470  0.92650  Biso   1.000  O
  O86      1.0000 0.84350  0.80710  0.26830  Biso   1.000  O
  O87      1.0000 0.28040  0.85840  0.31680  Biso   1.000  O
  O88      1.0000 0.89100  0.81390  0.88850  Biso   1.000  O
  O89      1.0000 0.02070  0.40430  0.93200  Biso   1.000  O
  O90      1.0000 0.95170  0.34130  0.95270  Biso   1.000  O
  O91      1.0000 0.05760  0.39990  0.02400  Biso   1.000  O
  O92      1.0000 0.84120  0.24240  0.73070  Biso   1.000  O
  O93      1.0000 0.92650  0.26050  0.81810  Biso   1.000  O
  O94      1.0000 0.89660  0.19370  0.71290  Biso   1.000  O
  O95      1.0000 0.96920  0.38900  0.80890  Biso   1.000  O
  O96      1.0000 0.96210  0.47280  0.87140  Biso   1.000  O
  O97      1.0000 0.02010  0.48780  0.82240  Biso   1.000  O
  O98      1.0000 0.76150  0.74670  0.85540  Biso   1.000  O
  O99      1.0000 0.69000  0.73210  0.76270  Biso   1.000  O
  O100     1.0000 0.65890  0.68180  0.81560  Biso   1.000  O
  O101     1.0000 0.61960  0.08850  0.95850  Biso   1.000  O
  O102     1.0000 0.72820  0.11330  0.88360  Biso   1.000  O
  O103     1.0000 0.82210  0.19420  0.08680  Biso   1.000  O
  O104     1.0000 0.74650  0.00910  0.97910  Biso   1.000  O
  O105     1.0000 0.42470  0.92650  0.88880  Biso   1.000  O
  O106     1.0000 0.80710  0.26830  0.84350  Biso   1.000  O
  O107     1.0000 0.85840  0.31680  0.28040  Biso   1.000  O
  O108     1.0000 0.81390  0.88850  0.89100  Biso   1.000  O
  O109     1.0000 0.40430  0.93200  0.02070  Biso   1.000  O
  O110     1.0000 0.34130  0.95270  0.95170  Biso   1.000  O
  O111     1.0000 0.39990  0.02400  0.05760  Biso   1.000  O
  O112     1.0000 0.24240  0.73070  0.84120  Biso   1.000  O
  O113     1.0000 0.26050  0.81810  0.92650  Biso   1.000  O
  O114     1.0000 0.19370  0.71290  0.89660  Biso   1.000  O
  O115     1.0000 0.38900  0.80890  0.96920  Biso   1.000  O
  O116     1.0000 0.47280  0.87140  0.96210  Biso   1.000  O
  O117     1.0000 0.48780  0.82240  0.02010  Biso   1.000  O
  O118     1.0000 0.74670  0.85540  0.76150  Biso   1.000  O
  O119     1.0000 0.73210  0.76270  0.69000  Biso   1.000  O
  O120     1.0000 0.68180  0.81560  0.65890  Biso   1.000  O
