data_image0
_cell_length_a       24.2198
_cell_length_b       24.2248
_cell_length_c       24.2248
_cell_angle_alpha    70.5246
_cell_angle_beta     70.533
_cell_angle_gamma    109.467

_symmetry_space_group_name_H-M    P 1
_symmetry_int_tables_number       1

loop_
  _symmetry_equiv_pos_as_xyz
  'x, y, z'

loop_
  _atom_site_label
  _atom_site_occupancy
  _atom_site_fract_x
  _atom_site_fract_y
  _atom_site_fract_z
  _atom_site_thermal_displace_type
  _atom_site_B_iso_or_equiv
  _atom_site_type_symbol
  Tb1      1.0000 0.64827  0.50008  0.95171  Biso   1.000  Tb
  Tb2      1.0000 0.59998  0.95171  0.54821  Biso   1.000  Tb
  Tb3      1.0000 0.14819  0.54821  0.50008  Biso   1.000  Tb
  Tb4      1.0000 0.09998  0.45179  0.04829  Biso   1.000  Tb
  Tb5      1.0000 0.64819  0.49992  0.45179  Biso   1.000  Tb
  Tb6      1.0000 0.14827  0.04829  0.49992  Biso   1.000  Tb
  Tb7      1.0000 0.69659  0.00000  0.00000  Biso   1.000  Tb
  Tb8      1.0000 0.19659  0.00000  0.00000  Biso   1.000  Tb
  H1       1.0000 0.50820  0.54460  0.13000  Biso   1.000  H
  H2       1.0000 0.27910  0.49950  0.31590  Biso   1.000  H
  H3       1.0000 0.32660  0.64770  0.99070  Biso   1.000  H
  H4       1.0000 0.47460  0.83520  0.03030  Biso   1.000  H
  H5       1.0000 0.32820  0.53780  0.13730  Biso   1.000  H
  H6       1.0000 0.33390  0.52640  0.20270  Biso   1.000  H
  H7       1.0000 0.46490  0.68690  0.14300  Biso   1.000  H
  H8       1.0000 0.46560  0.61870  0.15670  Biso   1.000  H
  H9       1.0000 0.37870  0.70190  0.10970  Biso   1.000  H
  H10      1.0000 0.32570  0.63670  0.18100  Biso   1.000  H
  H11      1.0000 0.41900  0.65640  0.02760  Biso   1.000  H
  H12      1.0000 0.47310  0.64160  0.04160  Biso   1.000  H
  H13      1.0000 0.29420  0.43580  0.16910  Biso   1.000  H
  H14      1.0000 0.26420  0.32170  0.19660  Biso   1.000  H
  H15      1.0000 0.35090  0.30880  0.13570  Biso   1.000  H
  H16      1.0000 0.46170  0.38700  0.08730  Biso   1.000  H
  H17      1.0000 0.62700  0.60660  0.02430  Biso   1.000  H
  H18      1.0000 0.62550  0.56040  0.08850  Biso   1.000  H
  H19      1.0000 0.62360  0.71170  0.01120  Biso   1.000  H
  H20      1.0000 0.64590  0.79450  0.04030  Biso   1.000  H
  H21      1.0000 0.65450  0.77730  0.13410  Biso   1.000  H
  H22      1.0000 0.64540  0.67680  0.20130  Biso   1.000  H
  H23      1.0000 0.61930  0.59180  0.17540  Biso   1.000  H
  H24      1.0000 0.50430  0.67830  0.21030  Biso   1.000  H
  H25      1.0000 0.53070  0.69330  0.29160  Biso   1.000  H
  H26      1.0000 0.44590  0.66230  0.39320  Biso   1.000  H
  H27      1.0000 0.33700  0.59220  0.42840  Biso   1.000  H
  H28      1.0000 0.15530  0.48410  0.38600  Biso   1.000  H
  H29      1.0000 0.16020  0.41970  0.42300  Biso   1.000  H
  H30      1.0000 0.16730  0.51010  0.26230  Biso   1.000  H
  H31      1.0000 0.14890  0.45520  0.20320  Biso   1.000  H
  H32      1.0000 0.14580  0.35360  0.23180  Biso   1.000  H
  H33      1.0000 0.15820  0.30310  0.32230  Biso   1.000  H
  H34      1.0000 0.17790  0.35730  0.38070  Biso   1.000  H
  H35      1.0000 0.25440  0.67020  0.18270  Biso   1.000  H
  H36      1.0000 0.16810  0.69610  0.18610  Biso   1.000  H
  H37      1.0000 0.09030  0.63030  0.16680  Biso   1.000  H
  H38      1.0000 0.12980  0.60220  0.08620  Biso   1.000  H
  H39      1.0000 0.28370  0.51900  0.01350  Biso   1.000  H
  H40      1.0000 0.28870  0.56480  0.94620  Biso   1.000  H
  H41      1.0000 0.37350  0.51280  0.01330  Biso   1.000  H
  H42      1.0000 0.48400  0.54140  0.95940  Biso   1.000  H
  H43      1.0000 0.56030  0.63550  0.85580  Biso   1.000  H
  H44      1.0000 0.52470  0.70320  0.80140  Biso   1.000  H
  H45      1.0000 0.41370  0.67570  0.85520  Biso   1.000  H
  H46      1.0000 0.53480  0.71170  0.93200  Biso   1.000  H
  H47      1.0000 0.63490  0.78730  0.82670  Biso   1.000  H
  H48      1.0000 0.70160  0.89370  0.80650  Biso   1.000  H
  H49      1.0000 0.66940  0.92680  0.88280  Biso   1.000  H
  H50      1.0000 0.50210  0.90860  0.08090  Biso   1.000  H
  H51      1.0000 0.50530  0.84530  0.12050  Biso   1.000  H
  H52      1.0000 0.41440  0.75940  0.22060  Biso   1.000  H
  H53      1.0000 0.30060  0.70460  0.29360  Biso   1.000  H
  H54      1.0000 0.23100  0.73820  0.26420  Biso   1.000  H
  H55      1.0000 0.27770  0.83000  0.15830  Biso   1.000  H
  H56      1.0000 0.39020  0.88400  0.08540  Biso   1.000  H
  H57      1.0000 0.63820  0.13000  0.32540  Biso   1.000  H
  H58      1.0000 0.59500  0.31590  0.18460  Biso   1.000  H
  H59      1.0000 0.31730  0.99070  0.36160  Biso   1.000  H
  H60      1.0000 0.50490  0.03030  0.13450  Biso   1.000  H
  H61      1.0000 0.46550  0.13730  0.32490  Biso   1.000  H
  H62      1.0000 0.53660  0.20270  0.27090  Biso   1.000  H
  H63      1.0000 0.60790  0.14300  0.17010  Biso   1.000  H
  H64      1.0000 0.62230  0.15670  0.22460  Biso   1.000  H
  H65      1.0000 0.48840  0.10970  0.18840  Biso   1.000  H
  H66      1.0000 0.50670  0.18100  0.18230  Biso   1.000  H
  H67      1.0000 0.44660  0.02760  0.31600  Biso   1.000  H
  H68      1.0000 0.51470  0.04160  0.31680  Biso   1.000  H
  H69      1.0000 0.46330  0.16910  0.39510  Biso   1.000  H
  H70      1.0000 0.46080  0.19660  0.48170  Biso   1.000  H
  H71      1.0000 0.48660  0.13570  0.55550  Biso   1.000  H
  H72      1.0000 0.54900  0.08730  0.52570  Biso   1.000  H
  H73      1.0000 0.65130  0.02430  0.36910  Biso   1.000  H
  H74      1.0000 0.71400  0.08850  0.35110  Biso   1.000  H
  H75      1.0000 0.63480  0.01120  0.27710  Biso   1.000  H
  H76      1.0000 0.68620  0.04030  0.16520  Biso   1.000  H
  H77      1.0000 0.78860  0.13410  0.08860  Biso   1.000  H
  H78      1.0000 0.84670  0.20130  0.12190  Biso   1.000  H
  H79      1.0000 0.79470  0.17540  0.23280  Biso   1.000  H
  H80      1.0000 0.71460  0.21030  0.11140  Biso   1.000  H
  H81      1.0000 0.82230  0.29160  0.01510  Biso   1.000  H
  H82      1.0000 0.83910  0.39320  0.94450  Biso   1.000  H
  H83      1.0000 0.76540  0.42840  0.97940  Biso   1.000  H
  H84      1.0000 0.54130  0.38600  0.12990  Biso   1.000  H
  H85      1.0000 0.58320  0.42300  0.15730  Biso   1.000  H
  H86      1.0000 0.42960  0.26230  0.22760  Biso   1.000  H
  H87      1.0000 0.35210  0.20320  0.34160  Biso   1.000  H
  H88      1.0000 0.37760  0.23180  0.41460  Biso   1.000  H
  H89      1.0000 0.48050  0.32230  0.37460  Biso   1.000  H
  H90      1.0000 0.55860  0.38070  0.26200  Biso   1.000  H
  H91      1.0000 0.43710  0.18270  0.14710  Biso   1.000  H
  H92      1.0000 0.35420  0.18610  0.11780  Biso   1.000  H
  H93      1.0000 0.25710  0.16680  0.20290  Biso   1.000  H
  H94      1.0000 0.21600  0.08620  0.31160  Biso   1.000  H
  H95      1.0000 0.29720  0.01350  0.46750  Biso   1.000  H
  H96      1.0000 0.23490  0.94620  0.48900  Biso   1.000  H
  H97      1.0000 0.38680  0.01330  0.47390  Biso   1.000  H
  H98      1.0000 0.44340  0.95940  0.49920  Biso   1.000  H
  H99      1.0000 0.41610  0.85580  0.50870  Biso   1.000  H
  H100     1.0000 0.32610  0.80140  0.49540  Biso   1.000  H
  H101     1.0000 0.26890  0.85520  0.46910  Biso   1.000  H
  H102     1.0000 0.46680  0.93200  0.35630  Biso   1.000  H
  H103     1.0000 0.46160  0.82670  0.38600  Biso   1.000  H
  H104     1.0000 0.50810  0.80650  0.29980  Biso   1.000  H
  H105     1.0000 0.55220  0.88280  0.19040  Biso   1.000  H
  H106     1.0000 0.58300  0.08090  0.01050  Biso   1.000  H
  H107     1.0000 0.62580  0.12050  0.03420  Biso   1.000  H
  H108     1.0000 0.63500  0.22060  0.02000  Biso   1.000  H
  H109     1.0000 0.59420  0.29360  0.00180  Biso   1.000  H
  H110     1.0000 0.49520  0.26420  0.99760  Biso   1.000  H
  H111     1.0000 0.43600  0.15830  0.01170  Biso   1.000  H
  H112     1.0000 0.47560  0.08540  0.03060  Biso   1.000  H
  H113     1.0000 0.96360  0.32540  0.54460  Biso   1.000  H
  H114     1.0000 0.77960  0.18460  0.49950  Biso   1.000  H
  H115     1.0000 0.67890  0.36160  0.64770  Biso   1.000  H
  H116     1.0000 0.63940  0.13450  0.83520  Biso   1.000  H
  H117     1.0000 0.79040  0.32490  0.53780  Biso   1.000  H
  H118     1.0000 0.80750  0.27090  0.52640  Biso   1.000  H
  H119     1.0000 0.77800  0.17010  0.68690  Biso   1.000  H
  H120     1.0000 0.84690  0.22460  0.61870  Biso   1.000  H
  H121     1.0000 0.67680  0.18840  0.70190  Biso   1.000  H
  H122     1.0000 0.68900  0.18230  0.63670  Biso   1.000  H
  H123     1.0000 0.76260  0.31600  0.65640  Biso   1.000  H
  H124     1.0000 0.83150  0.31680  0.64160  Biso   1.000  H
  H125     1.0000 0.85840  0.39510  0.43580  Biso   1.000  H
  H126     1.0000 0.94250  0.48170  0.32170  Biso   1.000  H
  H127     1.0000 0.04210  0.55550  0.30880  Biso   1.000  H
  H128     1.0000 0.07470  0.52570  0.38700  Biso   1.000  H
  H129     1.0000 0.02040  0.36910  0.60660  Biso   1.000  H
  H130     1.0000 0.06510  0.35110  0.56040  Biso   1.000  H
  H131     1.0000 0.91190  0.27710  0.71170  Biso   1.000  H
  H132     1.0000 0.85140  0.16520  0.79450  Biso   1.000  H
  H133     1.0000 0.87720  0.08860  0.77730  Biso   1.000  H
  H134     1.0000 0.96860  0.12190  0.67680  Biso   1.000  H
  H135     1.0000 0.02750  0.23280  0.59180  Biso   1.000  H
  H136     1.0000 0.82600  0.11140  0.67830  Biso   1.000  H
  H137     1.0000 0.83740  0.01510  0.69330  Biso   1.000  H
  H138     1.0000 0.78360  0.94450  0.66230  Biso   1.000  H
  H139     1.0000 0.74480  0.97940  0.59220  Biso   1.000  H
  H140     1.0000 0.67120  0.12990  0.48410  Biso   1.000  H
  H141     1.0000 0.74050  0.15730  0.41970  Biso   1.000  H
  H142     1.0000 0.65720  0.22760  0.51010  Biso   1.000  H
  H143     1.0000 0.69370  0.34160  0.45520  Biso   1.000  H
  H144     1.0000 0.79220  0.41460  0.35360  Biso   1.000  H
  H145     1.0000 0.85510  0.37460  0.30310  Biso   1.000  H
  H146     1.0000 0.82060  0.26200  0.35730  Biso   1.000  H
  H147     1.0000 0.58420  0.14710  0.67020  Biso   1.000  H
  H148     1.0000 0.47200  0.11780  0.69610  Biso   1.000  H
  H149     1.0000 0.46000  0.20290  0.63030  Biso   1.000  H
  H150     1.0000 0.52760  0.31160  0.60220  Biso   1.000  H
  H151     1.0000 0.76470  0.46750  0.51900  Biso   1.000  H
  H152     1.0000 0.72390  0.48900  0.56480  Biso   1.000  H
  H153     1.0000 0.86070  0.47390  0.51280  Biso   1.000  H
  H154     1.0000 0.94260  0.49920  0.54140  Biso   1.000  H
  H155     1.0000 0.92480  0.50870  0.63550  Biso   1.000  H
  H156     1.0000 0.82150  0.49540  0.70320  Biso   1.000  H
  H157     1.0000 0.73800  0.46910  0.67570  Biso   1.000  H
  H158     1.0000 0.82310  0.35630  0.71170  Biso   1.000  H
  H159     1.0000 0.84760  0.38600  0.78730  Biso   1.000  H
  H160     1.0000 0.80790  0.29980  0.89370  Biso   1.000  H
  H161     1.0000 0.74260  0.19040  0.92680  Biso   1.000  H
  H162     1.0000 0.59350  0.01050  0.90860  Biso   1.000  H
  H163     1.0000 0.66000  0.03420  0.84530  Biso   1.000  H
  H164     1.0000 0.65500  0.02000  0.75940  Biso   1.000  H
  H165     1.0000 0.59600  0.00180  0.70460  Biso   1.000  H
  H166     1.0000 0.49280  0.99760  0.73820  Biso   1.000  H
  H167     1.0000 0.44770  0.01170  0.83000  Biso   1.000  H
  H168     1.0000 0.50620  0.03060  0.88400  Biso   1.000  H
  H169     1.0000 0.13820  0.67460  0.87000  Biso   1.000  H
  H170     1.0000 0.09500  0.81540  0.68410  Biso   1.000  H
  H171     1.0000 0.81730  0.63840  0.00930  Biso   1.000  H
  H172     1.0000 0.00490  0.86550  0.96970  Biso   1.000  H
  H173     1.0000 0.96550  0.67510  0.86270  Biso   1.000  H
  H174     1.0000 0.03660  0.72910  0.79730  Biso   1.000  H
  H175     1.0000 0.10790  0.82990  0.85700  Biso   1.000  H
  H176     1.0000 0.12230  0.77540  0.84330  Biso   1.000  H
  H177     1.0000 0.98840  0.81160  0.89030  Biso   1.000  H
  H178     1.0000 0.00670  0.81770  0.81900  Biso   1.000  H
  H179     1.0000 0.94660  0.68400  0.97240  Biso   1.000  H
  H180     1.0000 0.01470  0.68320  0.95840  Biso   1.000  H
  H181     1.0000 0.96330  0.60490  0.83090  Biso   1.000  H
  H182     1.0000 0.96080  0.51830  0.80340  Biso   1.000  H
  H183     1.0000 0.98660  0.44450  0.86430  Biso   1.000  H
  H184     1.0000 0.04900  0.47430  0.91270  Biso   1.000  H
  H185     1.0000 0.15130  0.63090  0.97570  Biso   1.000  H
  H186     1.0000 0.21400  0.64890  0.91150  Biso   1.000  H
  H187     1.0000 0.13480  0.72290  0.98880  Biso   1.000  H
  H188     1.0000 0.18620  0.83480  0.95970  Biso   1.000  H
  H189     1.0000 0.28860  0.91140  0.86590  Biso   1.000  H
  H190     1.0000 0.34670  0.87810  0.79870  Biso   1.000  H
  H191     1.0000 0.29470  0.76720  0.82460  Biso   1.000  H
  H192     1.0000 0.21460  0.88860  0.78970  Biso   1.000  H
  H193     1.0000 0.32230  0.98490  0.70840  Biso   1.000  H
  H194     1.0000 0.33910  0.05550  0.60680  Biso   1.000  H
  H195     1.0000 0.26540  0.02060  0.57160  Biso   1.000  H
  H196     1.0000 0.04130  0.87010  0.61400  Biso   1.000  H
  H197     1.0000 0.08320  0.84270  0.57700  Biso   1.000  H
  H198     1.0000 0.92960  0.77240  0.73770  Biso   1.000  H
  H199     1.0000 0.85210  0.65840  0.79680  Biso   1.000  H
  H200     1.0000 0.87760  0.58540  0.76820  Biso   1.000  H
  H201     1.0000 0.98050  0.62540  0.67770  Biso   1.000  H
  H202     1.0000 0.05860  0.73800  0.61930  Biso   1.000  H
  H203     1.0000 0.93710  0.85290  0.81730  Biso   1.000  H
  H204     1.0000 0.85420  0.88220  0.81390  Biso   1.000  H
  H205     1.0000 0.75710  0.79710  0.83320  Biso   1.000  H
  H206     1.0000 0.71600  0.68840  0.91380  Biso   1.000  H
  H207     1.0000 0.79720  0.53250  0.98650  Biso   1.000  H
  H208     1.0000 0.73490  0.51100  0.05380  Biso   1.000  H
  H209     1.0000 0.88680  0.52610  0.98670  Biso   1.000  H
  H210     1.0000 0.94340  0.50080  0.04060  Biso   1.000  H
  H211     1.0000 0.91610  0.49130  0.14420  Biso   1.000  H
  H212     1.0000 0.82610  0.50460  0.19860  Biso   1.000  H
  H213     1.0000 0.76890  0.53090  0.14480  Biso   1.000  H
  H214     1.0000 0.96680  0.64370  0.06800  Biso   1.000  H
  H215     1.0000 0.96160  0.61400  0.17330  Biso   1.000  H
  H216     1.0000 0.00810  0.70020  0.19350  Biso   1.000  H
  H217     1.0000 0.05220  0.80960  0.11720  Biso   1.000  H
  H218     1.0000 0.08300  0.98950  0.91910  Biso   1.000  H
  H219     1.0000 0.12580  0.96580  0.87950  Biso   1.000  H
  H220     1.0000 0.13500  0.98000  0.77940  Biso   1.000  H
  H221     1.0000 0.09420  0.99820  0.70640  Biso   1.000  H
  H222     1.0000 0.99520  0.00240  0.73580  Biso   1.000  H
  H223     1.0000 0.93600  0.98830  0.84170  Biso   1.000  H
  H224     1.0000 0.97560  0.96940  0.91460  Biso   1.000  H
  H225     1.0000 0.46360  0.45540  0.67460  Biso   1.000  H
  H226     1.0000 0.27960  0.50050  0.81540  Biso   1.000  H
  H227     1.0000 0.17890  0.35230  0.63840  Biso   1.000  H
  H228     1.0000 0.13940  0.16480  0.86550  Biso   1.000  H
  H229     1.0000 0.29040  0.46220  0.67510  Biso   1.000  H
  H230     1.0000 0.30750  0.47360  0.72910  Biso   1.000  H
  H231     1.0000 0.27800  0.31310  0.82990  Biso   1.000  H
  H232     1.0000 0.34690  0.38130  0.77540  Biso   1.000  H
  H233     1.0000 0.17680  0.29810  0.81160  Biso   1.000  H
  H234     1.0000 0.18900  0.36330  0.81770  Biso   1.000  H
  H235     1.0000 0.26260  0.34360  0.68400  Biso   1.000  H
  H236     1.0000 0.33150  0.35840  0.68320  Biso   1.000  H
  H237     1.0000 0.35840  0.56420  0.60490  Biso   1.000  H
  H238     1.0000 0.44250  0.67830  0.51830  Biso   1.000  H
  H239     1.0000 0.54210  0.69120  0.44450  Biso   1.000  H
  H240     1.0000 0.57470  0.61300  0.47430  Biso   1.000  H
  H241     1.0000 0.52040  0.39340  0.63090  Biso   1.000  H
  H242     1.0000 0.56510  0.43960  0.64890  Biso   1.000  H
  H243     1.0000 0.41190  0.28830  0.72290  Biso   1.000  H
  H244     1.0000 0.35140  0.20550  0.83480  Biso   1.000  H
  H245     1.0000 0.37720  0.22270  0.91140  Biso   1.000  H
  H246     1.0000 0.46860  0.32320  0.87810  Biso   1.000  H
  H247     1.0000 0.52750  0.40820  0.76720  Biso   1.000  H
  H248     1.0000 0.32600  0.32170  0.88860  Biso   1.000  H
  H249     1.0000 0.33740  0.30670  0.98490  Biso   1.000  H
  H250     1.0000 0.28360  0.33770  0.05550  Biso   1.000  H
  H251     1.0000 0.24480  0.40780  0.02060  Biso   1.000  H
  H252     1.0000 0.17120  0.51590  0.87010  Biso   1.000  H
  H253     1.0000 0.24050  0.58030  0.84270  Biso   1.000  H
  H254     1.0000 0.15720  0.48990  0.77240  Biso   1.000  H
  H255     1.0000 0.19370  0.54480  0.65840  Biso   1.000  H
  H256     1.0000 0.29220  0.64640  0.58540  Biso   1.000  H
  H257     1.0000 0.35510  0.69690  0.62540  Biso   1.000  H
  H258     1.0000 0.32060  0.64270  0.73800  Biso   1.000  H
  H259     1.0000 0.08420  0.32980  0.85290  Biso   1.000  H
  H260     1.0000 0.97200  0.30390  0.88220  Biso   1.000  H
  H261     1.0000 0.96000  0.36970  0.79710  Biso   1.000  H
  H262     1.0000 0.02760  0.39780  0.68840  Biso   1.000  H
  H263     1.0000 0.26470  0.48100  0.53250  Biso   1.000  H
  H264     1.0000 0.22390  0.43520  0.51100  Biso   1.000  H
  H265     1.0000 0.36070  0.48720  0.52610  Biso   1.000  H
  H266     1.0000 0.44260  0.45860  0.50080  Biso   1.000  H
  H267     1.0000 0.42480  0.36450  0.49130  Biso   1.000  H
  H268     1.0000 0.32150  0.29680  0.50460  Biso   1.000  H
  H269     1.0000 0.23800  0.32430  0.53090  Biso   1.000  H
  H270     1.0000 0.32310  0.28830  0.64370  Biso   1.000  H
  H271     1.0000 0.34760  0.21270  0.61400  Biso   1.000  H
  H272     1.0000 0.30790  0.10630  0.70020  Biso   1.000  H
  H273     1.0000 0.24260  0.07320  0.80960  Biso   1.000  H
  H274     1.0000 0.09350  0.09140  0.98950  Biso   1.000  H
  H275     1.0000 0.16000  0.15470  0.96580  Biso   1.000  H
  H276     1.0000 0.15500  0.24060  0.98000  Biso   1.000  H
  H277     1.0000 0.09600  0.29540  0.99820  Biso   1.000  H
  H278     1.0000 0.99280  0.26180  0.00240  Biso   1.000  H
  H279     1.0000 0.94770  0.17000  0.98830  Biso   1.000  H
  H280     1.0000 0.00620  0.11600  0.96940  Biso   1.000  H
  H281     1.0000 0.00820  0.87000  0.45540  Biso   1.000  H
  H282     1.0000 0.77910  0.68410  0.50050  Biso   1.000  H
  H283     1.0000 0.82660  0.00930  0.35230  Biso   1.000  H
  H284     1.0000 0.97460  0.96970  0.16480  Biso   1.000  H
  H285     1.0000 0.82820  0.86270  0.46220  Biso   1.000  H
  H286     1.0000 0.83390  0.79730  0.47360  Biso   1.000  H
  H287     1.0000 0.96490  0.85700  0.31310  Biso   1.000  H
  H288     1.0000 0.96560  0.84330  0.38130  Biso   1.000  H
  H289     1.0000 0.87870  0.89030  0.29810  Biso   1.000  H
  H290     1.0000 0.82570  0.81900  0.36330  Biso   1.000  H
  H291     1.0000 0.91900  0.97240  0.34360  Biso   1.000  H
  H292     1.0000 0.97310  0.95840  0.35840  Biso   1.000  H
  H293     1.0000 0.79420  0.83090  0.56420  Biso   1.000  H
  H294     1.0000 0.76420  0.80340  0.67830  Biso   1.000  H
  H295     1.0000 0.85090  0.86430  0.69120  Biso   1.000  H
  H296     1.0000 0.96170  0.91270  0.61300  Biso   1.000  H
  H297     1.0000 0.12700  0.97570  0.39340  Biso   1.000  H
  H298     1.0000 0.12550  0.91150  0.43960  Biso   1.000  H
  H299     1.0000 0.12360  0.98880  0.28830  Biso   1.000  H
  H300     1.0000 0.14590  0.95970  0.20550  Biso   1.000  H
  H301     1.0000 0.15450  0.86590  0.22270  Biso   1.000  H
  H302     1.0000 0.14540  0.79870  0.32320  Biso   1.000  H
  H303     1.0000 0.11930  0.82460  0.40820  Biso   1.000  H
  H304     1.0000 0.00430  0.78970  0.32170  Biso   1.000  H
  H305     1.0000 0.03070  0.70840  0.30670  Biso   1.000  H
  H306     1.0000 0.94590  0.60680  0.33770  Biso   1.000  H
  H307     1.0000 0.83700  0.57160  0.40780  Biso   1.000  H
  H308     1.0000 0.65530  0.61400  0.51590  Biso   1.000  H
  H309     1.0000 0.66020  0.57700  0.58030  Biso   1.000  H
  H310     1.0000 0.66730  0.73770  0.48990  Biso   1.000  H
  H311     1.0000 0.64890  0.79680  0.54480  Biso   1.000  H
  H312     1.0000 0.64580  0.76820  0.64640  Biso   1.000  H
  H313     1.0000 0.65820  0.67770  0.69690  Biso   1.000  H
  H314     1.0000 0.67790  0.61930  0.64270  Biso   1.000  H
  H315     1.0000 0.75440  0.81730  0.32980  Biso   1.000  H
  H316     1.0000 0.66810  0.81390  0.30390  Biso   1.000  H
  H317     1.0000 0.59030  0.83320  0.36970  Biso   1.000  H
  H318     1.0000 0.62980  0.91380  0.39780  Biso   1.000  H
  H319     1.0000 0.78370  0.98650  0.48100  Biso   1.000  H
  H320     1.0000 0.78870  0.05380  0.43520  Biso   1.000  H
  H321     1.0000 0.87350  0.98670  0.48720  Biso   1.000  H
  H322     1.0000 0.98400  0.04060  0.45860  Biso   1.000  H
  H323     1.0000 0.06030  0.14420  0.36450  Biso   1.000  H
  H324     1.0000 0.02470  0.19860  0.29680  Biso   1.000  H
  H325     1.0000 0.91370  0.14480  0.32430  Biso   1.000  H
  H326     1.0000 0.03480  0.06800  0.28830  Biso   1.000  H
  H327     1.0000 0.13490  0.17330  0.21270  Biso   1.000  H
  H328     1.0000 0.20160  0.19350  0.10630  Biso   1.000  H
  H329     1.0000 0.16940  0.11720  0.07320  Biso   1.000  H
  H330     1.0000 0.00210  0.91910  0.09140  Biso   1.000  H
  H331     1.0000 0.00530  0.87950  0.15470  Biso   1.000  H
  H332     1.0000 0.91440  0.77940  0.24060  Biso   1.000  H
  H333     1.0000 0.80060  0.70640  0.29540  Biso   1.000  H
  H334     1.0000 0.73100  0.73580  0.26180  Biso   1.000  H
  H335     1.0000 0.77770  0.84170  0.17000  Biso   1.000  H
  H336     1.0000 0.89020  0.91460  0.11600  Biso   1.000  H
  C1       1.0000 0.39807  0.62687  0.12446  Biso   1.000  C
  C2       1.0000 0.35920  0.54980  0.15380  Biso   1.000  C
  C3       1.0000 0.43700  0.63890  0.16100  Biso   1.000  C
  C4       1.0000 0.35320  0.65290  0.13330  Biso   1.000  C
  C5       1.0000 0.44430  0.66080  0.05120  Biso   1.000  C
  C6       1.0000 0.52500  0.50350  0.07870  Biso   1.000  C
  C7       1.0000 0.44740  0.45810  0.10650  Biso   1.000  C
  C8       1.0000 0.39260  0.46720  0.13630  Biso   1.000  C
  C9       1.0000 0.32680  0.42290  0.15980  Biso   1.000  C
  C10      1.0000 0.30890  0.35720  0.16970  Biso   1.000  C
  C11      1.0000 0.36120  0.34860  0.13740  Biso   1.000  C
  C12      1.0000 0.42840  0.39620  0.10730  Biso   1.000  C
  C13      1.0000 0.60540  0.58630  0.07300  Biso   1.000  C
  C14      1.0000 0.62005  0.64259  0.09059  Biso   1.000  C
  C15      1.0000 0.62751  0.70422  0.04968  Biso   1.000  C
  C16      1.0000 0.64066  0.75328  0.06730  Biso   1.000  C
  C17      1.0000 0.64638  0.74338  0.12304  Biso   1.000  C
  C18      1.0000 0.64000  0.68320  0.16390  Biso   1.000  C
  C19      1.0000 0.62555  0.63325  0.14740  Biso   1.000  C
  C20      1.0000 0.27320  0.54340  0.37090  Biso   1.000  C
  C21      1.0000 0.34860  0.59090  0.34190  Biso   1.000  C
  C22      1.0000 0.40340  0.62030  0.27680  Biso   1.000  C
  C23      1.0000 0.47070  0.65990  0.25460  Biso   1.000  C
  C24      1.0000 0.48590  0.67100  0.30230  Biso   1.000  C
  C25      1.0000 0.43550  0.64940  0.36410  Biso   1.000  C
  C26      1.0000 0.36980  0.60900  0.38430  Biso   1.000  C
  C27      1.0000 0.17840  0.45880  0.37990  Biso   1.000  C
  C28      1.0000 0.17413  0.43908  0.32841  Biso   1.000  C
  C29      1.0000 0.16562  0.46862  0.27467  Biso   1.000  C
  C30      1.0000 0.15482  0.43564  0.23938  Biso   1.000  C
  C31      1.0000 0.15261  0.37461  0.25668  Biso   1.000  C
  C32      1.0000 0.16037  0.34477  0.31006  Biso   1.000  C
  C33      1.0000 0.17165  0.37708  0.34483  Biso   1.000  C
  C34      1.0000 0.22920  0.58210  0.04900  Biso   1.000  C
  C35      1.0000 0.21136  0.60612  0.09474  Biso   1.000  C
  C36      1.0000 0.25037  0.63234  0.12123  Biso   1.000  C
  C37      1.0000 0.23096  0.65882  0.16094  Biso   1.000  C
  C38      1.0000 0.17596  0.66872  0.16874  Biso   1.000  C
  C39      1.0000 0.13384  0.63658  0.14986  Biso   1.000  C
  C40      1.0000 0.15420  0.61330  0.10720  Biso   1.000  C
  C41      1.0000 0.30640  0.56500  0.97670  Biso   1.000  C
  C42      1.0000 0.38070  0.59147  0.93987  Biso   1.000  C
  C43      1.0000 0.40349  0.55125  0.97078  Biso   1.000  C
  C44      1.0000 0.46954  0.56862  0.93850  Biso   1.000  C
  C45      1.0000 0.51530  0.62460  0.87640  Biso   1.000  C
  C46      1.0000 0.49430  0.66520  0.84410  Biso   1.000  C
  C47      1.0000 0.42770  0.64818  0.87658  Biso   1.000  C
  C48      1.0000 0.56380  0.87550  0.00850  Biso   1.000  C
  C49      1.0000 0.58210  0.84180  0.95992  Biso   1.000  C
  C50      1.0000 0.54560  0.77725  0.96758  Biso   1.000  C
  C51      1.0000 0.56262  0.75540  0.92140  Biso   1.000  C
  C52      1.0000 0.62220  0.80000  0.85890  Biso   1.000  C
  C53      1.0000 0.66110  0.86330  0.84720  Biso   1.000  C
  C54      1.0000 0.64140  0.88280  0.89460  Biso   1.000  C
  C55      1.0000 0.48360  0.86070  0.09660  Biso   1.000  C
  C56      1.0000 0.41520  0.82879  0.14389  Biso   1.000  C
  C57      1.0000 0.38720  0.77364  0.20784  Biso   1.000  C
  C58      1.0000 0.31925  0.74122  0.25117  Biso   1.000  C
  C59      1.0000 0.27720  0.76120  0.23380  Biso   1.000  C
  C60      1.0000 0.30490  0.81560  0.17090  Biso   1.000  C
  C61      1.0000 0.37210  0.84770  0.12770  Biso   1.000  C
  C62      1.0000 0.52253  0.12446  0.24867  Biso   1.000  C
  C63      1.0000 0.51300  0.15380  0.29640  Biso   1.000  C
  C64      1.0000 0.59800  0.16100  0.20010  Biso   1.000  C
  C65      1.0000 0.48650  0.13330  0.21380  Biso   1.000  C
  C66      1.0000 0.49550  0.05120  0.28800  Biso   1.000  C
  C67      1.0000 0.60370  0.07870  0.41780  Biso   1.000  C
  C68      1.0000 0.55390  0.10650  0.43540  Biso   1.000  C
  C69      1.0000 0.52890  0.13630  0.39650  Biso   1.000  C
  C70      1.0000 0.48660  0.15980  0.41730  Biso   1.000  C
  C71      1.0000 0.47860  0.16970  0.47310  Biso   1.000  C
  C72      1.0000 0.49860  0.13740  0.51400  Biso   1.000  C
  C73      1.0000 0.53570  0.10730  0.49650  Biso   1.000  C
  C74      1.0000 0.67840  0.07300  0.34070  Biso   1.000  C
  C75      1.0000 0.71064  0.09059  0.26682  Biso   1.000  C
  C76      1.0000 0.67719  0.04968  0.24610  Biso   1.000  C
  C77      1.0000 0.70796  0.06730  0.17942  Biso   1.000  C
  C78      1.0000 0.76942  0.12304  0.13358  Biso   1.000  C
  C79      1.0000 0.80390  0.16390  0.15290  Biso   1.000  C
  C80      1.0000 0.77295  0.14740  0.21935  Biso   1.000  C
  C81      1.0000 0.64410  0.37090  0.08570  Biso   1.000  C
  C82      1.0000 0.69050  0.34190  0.06720  Biso   1.000  C
  C83      1.0000 0.68020  0.27680  0.10290  Biso   1.000  C
  C84      1.0000 0.72530  0.25460  0.08550  Biso   1.000  C
  C85      1.0000 0.78820  0.30230  0.02670  Biso   1.000  C
  C86      1.0000 0.79960  0.36410  0.98650  Biso   1.000  C
  C87      1.0000 0.75410  0.38430  0.00670  Biso   1.000  C
  C88      1.0000 0.55830  0.37990  0.16130  Biso   1.000  C
  C89      1.0000 0.50254  0.32841  0.23251  Biso   1.000  C
  C90      1.0000 0.44029  0.27467  0.25671  Biso   1.000  C
  C91      1.0000 0.39420  0.23938  0.32498  Biso   1.000  C
  C92      1.0000 0.40929  0.25668  0.36871  Biso   1.000  C
  C93      1.0000 0.47043  0.31006  0.34517  Biso   1.000  C
  C94      1.0000 0.51648  0.34483  0.27809  Biso   1.000  C
  C95      1.0000 0.27820  0.04900  0.36890  Biso   1.000  C
  C96      1.0000 0.30610  0.09474  0.29914  Biso   1.000  C
  C97      1.0000 0.37160  0.12123  0.24643  Biso   1.000  C
  C98      1.0000 0.39190  0.16094  0.18024  Biso   1.000  C
  C99      1.0000 0.34470  0.16874  0.16254  Biso   1.000  C
  C100     1.0000 0.28370  0.14986  0.21356  Biso   1.000  C
  C101     1.0000 0.26140  0.10720  0.27950  Biso   1.000  C
  C102     1.0000 0.28310  0.97670  0.45830  Biso   1.000  C
  C103     1.0000 0.32057  0.93987  0.46866  Biso   1.000  C
  C104     1.0000 0.37427  0.97078  0.47797  Biso   1.000  C
  C105     1.0000 0.40804  0.93850  0.49288  Biso   1.000  C
  C106     1.0000 0.39170  0.87640  0.49900  Biso   1.000  C
  C107     1.0000 0.33840  0.84410  0.49070  Biso   1.000  C
  C108     1.0000 0.30428  0.87658  0.47524  Biso   1.000  C
  C109     1.0000 0.57230  0.00850  0.11600  Biso   1.000  C
  C110     1.0000 0.54202  0.95992  0.19828  Biso   1.000  C
  C111     1.0000 0.51318  0.96758  0.25517  Biso   1.000  C
  C112     1.0000 0.48402  0.92140  0.32320  Biso   1.000  C
  C113     1.0000 0.48110  0.85890  0.34110  Biso   1.000  C
  C114     1.0000 0.50830  0.84720  0.28950  Biso   1.000  C
  C115     1.0000 0.53600  0.89460  0.22260  Biso   1.000  C
  C116     1.0000 0.58020  0.09660  0.04270  Biso   1.000  C
  C117     1.0000 0.55909  0.14389  0.02732  Biso   1.000  C
  C118     1.0000 0.59504  0.20784  0.01852  Biso   1.000  C
  C119     1.0000 0.57042  0.25117  0.00761  Biso   1.000  C
  C120     1.0000 0.51100  0.23380  0.00500  Biso   1.000  C
  C121     1.0000 0.47580  0.17090  0.01350  Biso   1.000  C
  C122     1.0000 0.49980  0.12770  0.02460  Biso   1.000  C
  C123     1.0000 0.77120  0.24867  0.62687  Biso   1.000  C
  C124     1.0000 0.80940  0.29640  0.54980  Biso   1.000  C
  C125     1.0000 0.79810  0.20010  0.63890  Biso   1.000  C
  C126     1.0000 0.70030  0.21380  0.65290  Biso   1.000  C
  C127     1.0000 0.78350  0.28800  0.66080  Biso   1.000  C
  C128     1.0000 0.02150  0.41780  0.50350  Biso   1.000  C
  C129     1.0000 0.98930  0.43540  0.45810  Biso   1.000  C
  C130     1.0000 0.92540  0.39650  0.46720  Biso   1.000  C
  C131     1.0000 0.90390  0.41730  0.42290  Biso   1.000  C
  C132     1.0000 0.95170  0.47310  0.35720  Biso   1.000  C
  C133     1.0000 0.01260  0.51400  0.34860  Biso   1.000  C
  C134     1.0000 0.03220  0.49650  0.39620  Biso   1.000  C
  C135     1.0000 0.01910  0.34070  0.58630  Biso   1.000  C
  C136     1.0000 0.97746  0.26682  0.64259  Biso   1.000  C
  C137     1.0000 0.92329  0.24610  0.70422  Biso   1.000  C
  C138     1.0000 0.88738  0.17942  0.75328  Biso   1.000  C
  C139     1.0000 0.90300  0.13358  0.74338  Biso   1.000  C
  C140     1.0000 0.95680  0.15290  0.68320  Biso   1.000  C
  C141     1.0000 0.99230  0.21935  0.63325  Biso   1.000  C
  C142     1.0000 0.72980  0.08570  0.54340  Biso   1.000  C
  C143     1.0000 0.75770  0.06720  0.59090  Biso   1.000  C
  C144     1.0000 0.78310  0.10290  0.62030  Biso   1.000  C
  C145     1.0000 0.81080  0.08550  0.65990  Biso   1.000  C
  C146     1.0000 0.81490  0.02670  0.67100  Biso   1.000  C
  C147     1.0000 0.78610  0.98650  0.64940  Biso   1.000  C
  C148     1.0000 0.76080  0.00670  0.60900  Biso   1.000  C
  C149     1.0000 0.71960  0.16130  0.45880  Biso   1.000  C
  C150     1.0000 0.73505  0.23251  0.43908  Biso   1.000  C
  C151     1.0000 0.69700  0.25671  0.46862  Biso   1.000  C
  C152     1.0000 0.71918  0.32498  0.43564  Biso   1.000  C
  C153     1.0000 0.77800  0.36871  0.37461  Biso   1.000  C
  C154     1.0000 0.81560  0.34517  0.34477  Biso   1.000  C
  C155     1.0000 0.79457  0.27809  0.37708  Biso   1.000  C
  C156     1.0000 0.64710  0.36890  0.58210  Biso   1.000  C
  C157     1.0000 0.60524  0.29914  0.60612  Biso   1.000  C
  C158     1.0000 0.61803  0.24643  0.63234  Biso   1.000  C
  C159     1.0000 0.57214  0.18024  0.65882  Biso   1.000  C
  C160     1.0000 0.50724  0.16254  0.66872  Biso   1.000  C
  C161     1.0000 0.49726  0.21356  0.63658  Biso   1.000  C
  C162     1.0000 0.54090  0.27950  0.61330  Biso   1.000  C
  C163     1.0000 0.74140  0.45830  0.56500  Biso   1.000  C
  C164     1.0000 0.78923  0.46866  0.59147  Biso   1.000  C
  C165     1.0000 0.85224  0.47797  0.55125  Biso   1.000  C
  C166     1.0000 0.90092  0.49288  0.56862  Biso   1.000  C
  C167     1.0000 0.89070  0.49900  0.62460  Biso   1.000  C
  C168     1.0000 0.82910  0.49070  0.66520  Biso   1.000  C
  C169     1.0000 0.77952  0.47524  0.64818  Biso   1.000  C
  C170     1.0000 0.68830  0.11600  0.87550  Biso   1.000  C
  C171     1.0000 0.74030  0.19828  0.84180  Biso   1.000  C
  C172     1.0000 0.76835  0.25517  0.77725  Biso   1.000  C
  C173     1.0000 0.80722  0.32320  0.75540  Biso   1.000  C
  C174     1.0000 0.82220  0.34110  0.80000  Biso   1.000  C
  C175     1.0000 0.79780  0.28950  0.86330  Biso   1.000  C
  C176     1.0000 0.75860  0.22260  0.88280  Biso   1.000  C
  C177     1.0000 0.62290  0.04270  0.86070  Biso   1.000  C
  C178     1.0000 0.58641  0.02732  0.82879  Biso   1.000  C
  C179     1.0000 0.61356  0.01852  0.77364  Biso   1.000  C
  C180     1.0000 0.57803  0.00761  0.74122  Biso   1.000  C
  C181     1.0000 0.51600  0.00500  0.76120  Biso   1.000  C
  C182     1.0000 0.48930  0.01350  0.81560  Biso   1.000  C
  C183     1.0000 0.52440  0.02460  0.84770  Biso   1.000  C
  C184     1.0000 0.02253  0.75133  0.87554  Biso   1.000  C
  C185     1.0000 0.01300  0.70360  0.84620  Biso   1.000  C
  C186     1.0000 0.09800  0.79990  0.83900  Biso   1.000  C
  C187     1.0000 0.98650  0.78620  0.86670  Biso   1.000  C
  C188     1.0000 0.99550  0.71200  0.94880  Biso   1.000  C
  C189     1.0000 0.10370  0.58220  0.92130  Biso   1.000  C
  C190     1.0000 0.05390  0.56460  0.89350  Biso   1.000  C
  C191     1.0000 0.02890  0.60350  0.86370  Biso   1.000  C
  C192     1.0000 0.98660  0.58270  0.84020  Biso   1.000  C
  C193     1.0000 0.97860  0.52690  0.83030  Biso   1.000  C
  C194     1.0000 0.99860  0.48600  0.86260  Biso   1.000  C
  C195     1.0000 0.03570  0.50350  0.89270  Biso   1.000  C
  C196     1.0000 0.17840  0.65930  0.92700  Biso   1.000  C
  C197     1.0000 0.21064  0.73318  0.90941  Biso   1.000  C
  C198     1.0000 0.17719  0.75390  0.95032  Biso   1.000  C
  C199     1.0000 0.20796  0.82058  0.93270  Biso   1.000  C
  C200     1.0000 0.26942  0.86642  0.87696  Biso   1.000  C
  C201     1.0000 0.30390  0.84710  0.83610  Biso   1.000  C
  C202     1.0000 0.27295  0.78065  0.85260  Biso   1.000  C
  C203     1.0000 0.14410  0.91430  0.62910  Biso   1.000  C
  C204     1.0000 0.19050  0.93280  0.65810  Biso   1.000  C
  C205     1.0000 0.18020  0.89710  0.72320  Biso   1.000  C
  C206     1.0000 0.22530  0.91450  0.74540  Biso   1.000  C
  C207     1.0000 0.28820  0.97330  0.69770  Biso   1.000  C
  C208     1.0000 0.29960  0.01350  0.63590  Biso   1.000  C
  C209     1.0000 0.25410  0.99330  0.61570  Biso   1.000  C
  C210     1.0000 0.05830  0.83870  0.62010  Biso   1.000  C
  C211     1.0000 0.00254  0.76749  0.67159  Biso   1.000  C
  C212     1.0000 0.94029  0.74329  0.72533  Biso   1.000  C
  C213     1.0000 0.89420  0.67502  0.76062  Biso   1.000  C
  C214     1.0000 0.90929  0.63129  0.74332  Biso   1.000  C
  C215     1.0000 0.97043  0.65483  0.68994  Biso   1.000  C
  C216     1.0000 0.01648  0.72191  0.65517  Biso   1.000  C
  C217     1.0000 0.77820  0.63110  0.95100  Biso   1.000  C
  C218     1.0000 0.80610  0.70086  0.90526  Biso   1.000  C
  C219     1.0000 0.87160  0.75357  0.87877  Biso   1.000  C
  C220     1.0000 0.89190  0.81976  0.83906  Biso   1.000  C
  C221     1.0000 0.84470  0.83746  0.83126  Biso   1.000  C
  C222     1.0000 0.78370  0.78644  0.85014  Biso   1.000  C
  C223     1.0000 0.76140  0.72050  0.89280  Biso   1.000  C
  C224     1.0000 0.78310  0.54170  0.02330  Biso   1.000  C
  C225     1.0000 0.82057  0.53134  0.06013  Biso   1.000  C
  C226     1.0000 0.87427  0.52203  0.02922  Biso   1.000  C
  C227     1.0000 0.90804  0.50712  0.06150  Biso   1.000  C
  C228     1.0000 0.89170  0.50100  0.12360  Biso   1.000  C
  C229     1.0000 0.83840  0.50930  0.15590  Biso   1.000  C
  C230     1.0000 0.80428  0.52476  0.12342  Biso   1.000  C
  C231     1.0000 0.07230  0.88400  0.99150  Biso   1.000  C
  C232     1.0000 0.04202  0.80172  0.04008  Biso   1.000  C
  C233     1.0000 0.01318  0.74483  0.03242  Biso   1.000  C
  C234     1.0000 0.98402  0.67680  0.07860  Biso   1.000  C
  C235     1.0000 0.98110  0.65890  0.14110  Biso   1.000  C
  C236     1.0000 0.00830  0.71050  0.15280  Biso   1.000  C
  C237     1.0000 0.03600  0.77740  0.10540  Biso   1.000  C
  C238     1.0000 0.08020  0.95730  0.90340  Biso   1.000  C
  C239     1.0000 0.05909  0.97268  0.85611  Biso   1.000  C
  C240     1.0000 0.09504  0.98148  0.79216  Biso   1.000  C
  C241     1.0000 0.07042  0.99239  0.74883  Biso   1.000  C
  C242     1.0000 0.01100  0.99500  0.76620  Biso   1.000  C
  C243     1.0000 0.97580  0.98650  0.82910  Biso   1.000  C
  C244     1.0000 0.99980  0.97540  0.87230  Biso   1.000  C
  C245     1.0000 0.27120  0.37313  0.75133  Biso   1.000  C
  C246     1.0000 0.30940  0.45020  0.70360  Biso   1.000  C
  C247     1.0000 0.29810  0.36110  0.79990  Biso   1.000  C
  C248     1.0000 0.20030  0.34710  0.78620  Biso   1.000  C
  C249     1.0000 0.28350  0.33920  0.71200  Biso   1.000  C
  C250     1.0000 0.52150  0.49650  0.58220  Biso   1.000  C
  C251     1.0000 0.48930  0.54190  0.56460  Biso   1.000  C
  C252     1.0000 0.42540  0.53280  0.60350  Biso   1.000  C
  C253     1.0000 0.40390  0.57710  0.58270  Biso   1.000  C
  C254     1.0000 0.45170  0.64280  0.52690  Biso   1.000  C
  C255     1.0000 0.51260  0.65140  0.48600  Biso   1.000  C
  C256     1.0000 0.53220  0.60380  0.50350  Biso   1.000  C
  C257     1.0000 0.51910  0.41370  0.65930  Biso   1.000  C
  C258     1.0000 0.47746  0.35741  0.73318  Biso   1.000  C
  C259     1.0000 0.42329  0.29578  0.75390  Biso   1.000  C
  C260     1.0000 0.38738  0.24672  0.82058  Biso   1.000  C
  C261     1.0000 0.40300  0.25662  0.86642  Biso   1.000  C
  C262     1.0000 0.45680  0.31680  0.84710  Biso   1.000  C
  C263     1.0000 0.49230  0.36675  0.78065  Biso   1.000  C
  C264     1.0000 0.22980  0.45660  0.91430  Biso   1.000  C
  C265     1.0000 0.25770  0.40910  0.93280  Biso   1.000  C
  C266     1.0000 0.28310  0.37970  0.89710  Biso   1.000  C
  C267     1.0000 0.31080  0.34010  0.91450  Biso   1.000  C
  C268     1.0000 0.31490  0.32900  0.97330  Biso   1.000  C
  C269     1.0000 0.28610  0.35060  0.01350  Biso   1.000  C
  C270     1.0000 0.26080  0.39100  0.99330  Biso   1.000  C
  C271     1.0000 0.21960  0.54120  0.83870  Biso   1.000  C
  C272     1.0000 0.23505  0.56092  0.76749  Biso   1.000  C
  C273     1.0000 0.19700  0.53138  0.74329  Biso   1.000  C
  C274     1.0000 0.21918  0.56436  0.67502  Biso   1.000  C
  C275     1.0000 0.27800  0.62539  0.63129  Biso   1.000  C
  C276     1.0000 0.31560  0.65523  0.65483  Biso   1.000  C
  C277     1.0000 0.29457  0.62292  0.72191  Biso   1.000  C
  C278     1.0000 0.14710  0.41790  0.63110  Biso   1.000  C
  C279     1.0000 0.10524  0.39388  0.70086  Biso   1.000  C
  C280     1.0000 0.11803  0.36766  0.75357  Biso   1.000  C
  C281     1.0000 0.07214  0.34118  0.81976  Biso   1.000  C
  C282     1.0000 0.00724  0.33128  0.83746  Biso   1.000  C
  C283     1.0000 0.99726  0.36342  0.78644  Biso   1.000  C
  C284     1.0000 0.04090  0.38670  0.72050  Biso   1.000  C
  C285     1.0000 0.24140  0.43500  0.54170  Biso   1.000  C
  C286     1.0000 0.28923  0.40853  0.53134  Biso   1.000  C
  C287     1.0000 0.35224  0.44875  0.52203  Biso   1.000  C
  C288     1.0000 0.40092  0.43138  0.50712  Biso   1.000  C
  C289     1.0000 0.39070  0.37540  0.50100  Biso   1.000  C
  C290     1.0000 0.32910  0.33480  0.50930  Biso   1.000  C
  C291     1.0000 0.27952  0.35182  0.52476  Biso   1.000  C
  C292     1.0000 0.18830  0.12450  0.88400  Biso   1.000  C
  C293     1.0000 0.24030  0.15820  0.80172  Biso   1.000  C
  C294     1.0000 0.26835  0.22275  0.74483  Biso   1.000  C
  C295     1.0000 0.30722  0.24460  0.67680  Biso   1.000  C
  C296     1.0000 0.32220  0.20000  0.65890  Biso   1.000  C
  C297     1.0000 0.29780  0.13670  0.71050  Biso   1.000  C
  C298     1.0000 0.25860  0.11720  0.77740  Biso   1.000  C
  C299     1.0000 0.12290  0.13930  0.95730  Biso   1.000  C
  C300     1.0000 0.08641  0.17121  0.97268  Biso   1.000  C
  C301     1.0000 0.11356  0.22636  0.98148  Biso   1.000  C
  C302     1.0000 0.07803  0.25878  0.99239  Biso   1.000  C
  C303     1.0000 0.01600  0.23880  0.99500  Biso   1.000  C
  C304     1.0000 0.98930  0.18440  0.98650  Biso   1.000  C
  C305     1.0000 0.02440  0.15230  0.97540  Biso   1.000  C
  C306     1.0000 0.89807  0.87554  0.37313  Biso   1.000  C
  C307     1.0000 0.85920  0.84620  0.45020  Biso   1.000  C
  C308     1.0000 0.93700  0.83900  0.36110  Biso   1.000  C
  C309     1.0000 0.85320  0.86670  0.34710  Biso   1.000  C
  C310     1.0000 0.94430  0.94880  0.33920  Biso   1.000  C
  C311     1.0000 0.02500  0.92130  0.49650  Biso   1.000  C
  C312     1.0000 0.94740  0.89350  0.54190  Biso   1.000  C
  C313     1.0000 0.89260  0.86370  0.53280  Biso   1.000  C
  C314     1.0000 0.82680  0.84020  0.57710  Biso   1.000  C
  C315     1.0000 0.80890  0.83030  0.64280  Biso   1.000  C
  C316     1.0000 0.86120  0.86260  0.65140  Biso   1.000  C
  C317     1.0000 0.92840  0.89270  0.60380  Biso   1.000  C
  C318     1.0000 0.10540  0.92700  0.41370  Biso   1.000  C
  C319     1.0000 0.12005  0.90941  0.35741  Biso   1.000  C
  C320     1.0000 0.12751  0.95032  0.29578  Biso   1.000  C
  C321     1.0000 0.14066  0.93270  0.24672  Biso   1.000  C
  C322     1.0000 0.14638  0.87696  0.25662  Biso   1.000  C
  C323     1.0000 0.14000  0.83610  0.31680  Biso   1.000  C
  C324     1.0000 0.12555  0.85260  0.36675  Biso   1.000  C
  C325     1.0000 0.77320  0.62910  0.45660  Biso   1.000  C
  C326     1.0000 0.84860  0.65810  0.40910  Biso   1.000  C
  C327     1.0000 0.90340  0.72320  0.37970  Biso   1.000  C
  C328     1.0000 0.97070  0.74540  0.34010  Biso   1.000  C
  C329     1.0000 0.98590  0.69770  0.32900  Biso   1.000  C
  C330     1.0000 0.93550  0.63590  0.35060  Biso   1.000  C
  C331     1.0000 0.86980  0.61570  0.39100  Biso   1.000  C
  C332     1.0000 0.67840  0.62010  0.54120  Biso   1.000  C
  C333     1.0000 0.67413  0.67159  0.56092  Biso   1.000  C
  C334     1.0000 0.66562  0.72533  0.53138  Biso   1.000  C
  C335     1.0000 0.65482  0.76062  0.56436  Biso   1.000  C
  C336     1.0000 0.65261  0.74332  0.62539  Biso   1.000  C
  C337     1.0000 0.66037  0.68994  0.65523  Biso   1.000  C
  C338     1.0000 0.67165  0.65517  0.62292  Biso   1.000  C
  C339     1.0000 0.72920  0.95100  0.41790  Biso   1.000  C
  C340     1.0000 0.71136  0.90526  0.39388  Biso   1.000  C
  C341     1.0000 0.75037  0.87877  0.36766  Biso   1.000  C
  C342     1.0000 0.73096  0.83906  0.34118  Biso   1.000  C
  C343     1.0000 0.67596  0.83126  0.33128  Biso   1.000  C
  C344     1.0000 0.63384  0.85014  0.36342  Biso   1.000  C
  C345     1.0000 0.65420  0.89280  0.38670  Biso   1.000  C
  C346     1.0000 0.80640  0.02330  0.43500  Biso   1.000  C
  C347     1.0000 0.88070  0.06013  0.40853  Biso   1.000  C
  C348     1.0000 0.90349  0.02922  0.44875  Biso   1.000  C
  C349     1.0000 0.96954  0.06150  0.43138  Biso   1.000  C
  C350     1.0000 0.01530  0.12360  0.37540  Biso   1.000  C
  C351     1.0000 0.99430  0.15590  0.33480  Biso   1.000  C
  C352     1.0000 0.92770  0.12342  0.35182  Biso   1.000  C
  C353     1.0000 0.06380  0.99150  0.12450  Biso   1.000  C
  C354     1.0000 0.08210  0.04008  0.15820  Biso   1.000  C
  C355     1.0000 0.04560  0.03242  0.22275  Biso   1.000  C
  C356     1.0000 0.06262  0.07860  0.24460  Biso   1.000  C
  C357     1.0000 0.12220  0.14110  0.20000  Biso   1.000  C
  C358     1.0000 0.16110  0.15280  0.13670  Biso   1.000  C
  C359     1.0000 0.14140  0.10540  0.11720  Biso   1.000  C
  C360     1.0000 0.98360  0.90340  0.13930  Biso   1.000  C
  C361     1.0000 0.91520  0.85611  0.17121  Biso   1.000  C
  C362     1.0000 0.88720  0.79216  0.22636  Biso   1.000  C
  C363     1.0000 0.81925  0.74883  0.25878  Biso   1.000  C
  C364     1.0000 0.77720  0.76620  0.23880  Biso   1.000  C
  C365     1.0000 0.80490  0.82910  0.18440  Biso   1.000  C
  C366     1.0000 0.87210  0.87230  0.15230  Biso   1.000  C
  N1       1.0000 0.53910  0.54400  0.10000  Biso   1.000  N
  N2       1.0000 0.25130  0.50110  0.34780  Biso   1.000  N
  N3       1.0000 0.29490  0.60890  0.00320  Biso   1.000  N
  N4       1.0000 0.50280  0.85360  0.04150  Biso   1.000  N
  N5       1.0000 0.53010  0.40600  0.96350  Biso   1.000  N
  N6       1.0000 0.73600  0.47380  0.87080  Biso   1.000  N
  N7       1.0000 0.67201  0.61501  0.84278  Biso   1.000  N
  N8       1.0000 0.69028  0.91006  0.11362  Biso   1.000  N
  N9       1.0000 0.63910  0.10000  0.35600  Biso   1.000  N
  N10      1.0000 0.59910  0.34780  0.15110  Biso   1.000  N
  N11      1.0000 0.29810  0.00320  0.38790  Biso   1.000  N
  N12      1.0000 0.54430  0.04150  0.10490  Biso   1.000  N
  N13      1.0000 0.49360  0.96350  0.63050  Biso   1.000  N
  N14      1.0000 0.60680  0.87080  0.65540  Biso   1.000  N
  N15      1.0000 0.51479  0.84278  0.54221  Biso   1.000  N
  N16      1.0000 0.80390  0.11362  0.97632  Biso   1.000  N
  N17      1.0000 0.99510  0.35600  0.54400  Biso   1.000  N
  N18      1.0000 0.75020  0.15110  0.50110  Biso   1.000  N
  N19      1.0000 0.68600  0.38790  0.60890  Biso   1.000  N
  N20      1.0000 0.64920  0.10490  0.85360  Biso   1.000  N
  N21      1.0000 0.12410  0.63050  0.40600  Biso   1.000  N
  N22      1.0000 0.26220  0.65540  0.47380  Biso   1.000  N
  N23      1.0000 0.05700  0.54221  0.61501  Biso   1.000  N
  N24      1.0000 0.78022  0.97632  0.91006  Biso   1.000  N
  N25      1.0000 0.13910  0.64400  0.90000  Biso   1.000  N
  N26      1.0000 0.09910  0.84890  0.65220  Biso   1.000  N
  N27      1.0000 0.79810  0.61210  0.99680  Biso   1.000  N
  N28      1.0000 0.04430  0.89510  0.95850  Biso   1.000  N
  N29      1.0000 0.99360  0.36950  0.03650  Biso   1.000  N
  N30      1.0000 0.10680  0.34460  0.12920  Biso   1.000  N
  N31      1.0000 0.01479  0.45779  0.15722  Biso   1.000  N
  N32      1.0000 0.30390  0.02368  0.88638  Biso   1.000  N
  N33      1.0000 0.49510  0.45600  0.64400  Biso   1.000  N
  N34      1.0000 0.25020  0.49890  0.84890  Biso   1.000  N
  N35      1.0000 0.18600  0.39110  0.61210  Biso   1.000  N
  N36      1.0000 0.14920  0.14640  0.89510  Biso   1.000  N
  N37      1.0000 0.62410  0.59400  0.36950  Biso   1.000  N
  N38      1.0000 0.76220  0.52620  0.34460  Biso   1.000  N
  N39      1.0000 0.55700  0.38499  0.45779  Biso   1.000  N
  N40      1.0000 0.28022  0.08994  0.02368  Biso   1.000  N
  N41      1.0000 0.03910  0.90000  0.45600  Biso   1.000  N
  N42      1.0000 0.75130  0.65220  0.49890  Biso   1.000  N
  N43      1.0000 0.79490  0.99680  0.39110  Biso   1.000  N
  N44      1.0000 0.00280  0.95850  0.14640  Biso   1.000  N
  N45      1.0000 0.03010  0.03650  0.59400  Biso   1.000  N
  N46      1.0000 0.23600  0.12920  0.52620  Biso   1.000  N
  N47      1.0000 0.17201  0.15722  0.38499  Biso   1.000  N
  N48      1.0000 0.19028  0.88638  0.08994  Biso   1.000  N
  O1       1.0000 0.41530  0.53210  0.12860  Biso   1.000  O
  O2       1.0000 0.38280  0.60497  0.23417  Biso   1.000  O
  O3       1.0000 0.30810  0.62980  0.10510  Biso   1.000  O
  O4       1.0000 0.48697  0.73634  0.02933  Biso   1.000  O
  O5       1.0000 0.56803  0.49665  0.04086  Biso   1.000  O
  O6       1.0000 0.22798  0.53984  0.42440  Biso   1.000  O
  O7       1.0000 0.18596  0.53979  0.04011  Biso   1.000  O
  O8       1.0000 0.61153  0.92072  0.99723  Biso   1.000  O
  O9       1.0000 0.55895  0.46710  0.92035  Biso   1.000  O
  O10      1.0000 0.54978  0.38658  0.00354  Biso   1.000  O
  O11      1.0000 0.47270  0.36490  0.97700  Biso   1.000  O
  O12      1.0000 0.75756  0.51192  0.89194  Biso   1.000  O
  O13      1.0000 0.67490  0.44360  0.88920  Biso   1.000  O
  O14      1.0000 0.77943  0.47543  0.82224  Biso   1.000  O
  O15      1.0000 0.70615  0.58645  0.83150  Biso   1.000  O
  O16      1.0000 0.63502  0.59853  0.90337  Biso   1.000  O
  O17      1.0000 0.68876  0.67116  0.79678  Biso   1.000  O
  O18      1.0000 0.64727  0.88958  0.09707  Biso   1.000  O
  O19      1.0000 0.73144  0.97138  0.08416  Biso   1.000  O
  O20      1.0000 0.69640  0.86900  0.15500  Biso   1.000  O
  O21      1.0000 0.54390  0.12860  0.33930  Biso   1.000  O
  O22      1.0000 0.61697  0.23417  0.16086  Biso   1.000  O
  O23      1.0000 0.41320  0.10510  0.26510  Biso   1.000  O
  O24      1.0000 0.51630  0.02933  0.23433  Biso   1.000  O
  O25      1.0000 0.60889  0.04086  0.46249  Biso   1.000  O
  O26      1.0000 0.65238  0.42440  0.03576  Biso   1.000  O
  O27      1.0000 0.22607  0.04011  0.42010  Biso   1.000  O
  O28      1.0000 0.60876  0.99723  0.08205  Biso   1.000  O
  O29      1.0000 0.47930  0.92035  0.61255  Biso   1.000  O
  O30      1.0000 0.55332  0.00354  0.60988  Biso   1.000  O
  O31      1.0000 0.44970  0.97700  0.65810  Biso   1.000  O
  O32      1.0000 0.64950  0.89194  0.59614  Biso   1.000  O
  O33      1.0000 0.56410  0.88920  0.66720  Biso   1.000  O
  O34      1.0000 0.60167  0.82224  0.70233  Biso   1.000  O
  O35      1.0000 0.53765  0.83150  0.58205  Biso   1.000  O
  O36      1.0000 0.53839  0.90337  0.49810  Biso   1.000  O
  O37      1.0000 0.48554  0.79678  0.53206  Biso   1.000  O
  O38      1.0000 0.74434  0.09707  0.01335  Biso   1.000  O
  O39      1.0000 0.81560  0.08416  0.94446  Biso   1.000  O
  O40      1.0000 0.85140  0.15500  0.97600  Biso   1.000  O
  O41      1.0000 0.88320  0.33930  0.53210  Biso   1.000  O
  O42      1.0000 0.77783  0.16086  0.60497  Biso   1.000  O
  O43      1.0000 0.67830  0.26510  0.62980  Biso   1.000  O
  O44      1.0000 0.75063  0.23433  0.73634  Biso   1.000  O
  O45      1.0000 0.07138  0.46249  0.49665  Biso   1.000  O
  O46      1.0000 0.68814  0.03576  0.53984  Biso   1.000  O
  O47      1.0000 0.64617  0.42010  0.53979  Biso   1.000  O
  O48      1.0000 0.69081  0.08205  0.92072  Biso   1.000  O
  O49      1.0000 0.09185  0.61255  0.46710  Biso   1.000  O
  O50      1.0000 0.16320  0.60988  0.38658  Biso   1.000  O
  O51      1.0000 0.10780  0.65810  0.36490  Biso   1.000  O
  O52      1.0000 0.24564  0.59614  0.51192  Biso   1.000  O
  O53      1.0000 0.23130  0.66720  0.44360  Biso   1.000  O
  O54      1.0000 0.30400  0.70233  0.47543  Biso   1.000  O
  O55      1.0000 0.11970  0.58205  0.58645  Biso   1.000  O
  O56      1.0000 0.03649  0.49810  0.59853  Biso   1.000  O
  O57      1.0000 0.01760  0.53206  0.67116  Biso   1.000  O
  O58      1.0000 0.75769  0.01335  0.88958  Biso   1.000  O
  O59      1.0000 0.76006  0.94446  0.97138  Biso   1.000  O
  O60      1.0000 0.82740  0.97600  0.86900  Biso   1.000  O
  O61      1.0000 0.04390  0.66070  0.87140  Biso   1.000  O
  O62      1.0000 0.11697  0.83914  0.76583  Biso   1.000  O
  O63      1.0000 0.91320  0.73490  0.89490  Biso   1.000  O
  O64      1.0000 0.01630  0.76567  0.97067  Biso   1.000  O
  O65      1.0000 0.10889  0.53751  0.95914  Biso   1.000  O
  O66      1.0000 0.15238  0.96424  0.57560  Biso   1.000  O
  O67      1.0000 0.72607  0.57990  0.95989  Biso   1.000  O
  O68      1.0000 0.10876  0.91795  0.00277  Biso   1.000  O
  O69      1.0000 0.97930  0.38745  0.07965  Biso   1.000  O
  O70      1.0000 0.05332  0.39012  0.99646  Biso   1.000  O
  O71      1.0000 0.94970  0.34190  0.02300  Biso   1.000  O
  O72      1.0000 0.14950  0.40386  0.10806  Biso   1.000  O
  O73      1.0000 0.06410  0.33280  0.11080  Biso   1.000  O
  O74      1.0000 0.10167  0.29767  0.17776  Biso   1.000  O
  O75      1.0000 0.03765  0.41795  0.16850  Biso   1.000  O
  O76      1.0000 0.03839  0.50190  0.09663  Biso   1.000  O
  O77      1.0000 0.98554  0.46794  0.20322  Biso   1.000  O
  O78      1.0000 0.24434  0.98665  0.90293  Biso   1.000  O
  O79      1.0000 0.31560  0.05554  0.91584  Biso   1.000  O
  O80      1.0000 0.35140  0.02400  0.84500  Biso   1.000  O
  O81      1.0000 0.38320  0.46790  0.66070  Biso   1.000  O
  O82      1.0000 0.27783  0.39503  0.83914  Biso   1.000  O
  O83      1.0000 0.17830  0.37020  0.73490  Biso   1.000  O
  O84      1.0000 0.25063  0.26366  0.76567  Biso   1.000  O
  O85      1.0000 0.57138  0.50335  0.53751  Biso   1.000  O
  O86      1.0000 0.18814  0.46016  0.96424  Biso   1.000  O
  O87      1.0000 0.14617  0.46021  0.57990  Biso   1.000  O
  O88      1.0000 0.19081  0.07928  0.91795  Biso   1.000  O
  O89      1.0000 0.59185  0.53290  0.38745  Biso   1.000  O
  O90      1.0000 0.66320  0.61342  0.39012  Biso   1.000  O
  O91      1.0000 0.60780  0.63510  0.34190  Biso   1.000  O
  O92      1.0000 0.74564  0.48808  0.40386  Biso   1.000  O
  O93      1.0000 0.73130  0.55640  0.33280  Biso   1.000  O
  O94      1.0000 0.80400  0.52457  0.29767  Biso   1.000  O
  O95      1.0000 0.61970  0.41355  0.41795  Biso   1.000  O
  O96      1.0000 0.53649  0.40147  0.50190  Biso   1.000  O
  O97      1.0000 0.51760  0.32884  0.46794  Biso   1.000  O
  O98      1.0000 0.25769  0.11042  0.98665  Biso   1.000  O
  O99      1.0000 0.26006  0.02862  0.05554  Biso   1.000  O
  O100     1.0000 0.32740  0.13100  0.02400  Biso   1.000  O
  O101     1.0000 0.91530  0.87140  0.46790  Biso   1.000  O
  O102     1.0000 0.88280  0.76583  0.39503  Biso   1.000  O
  O103     1.0000 0.80810  0.89490  0.37020  Biso   1.000  O
  O104     1.0000 0.98697  0.97067  0.26366  Biso   1.000  O
  O105     1.0000 0.06803  0.95914  0.50335  Biso   1.000  O
  O106     1.0000 0.72798  0.57560  0.46016  Biso   1.000  O
  O107     1.0000 0.68596  0.95989  0.46021  Biso   1.000  O
  O108     1.0000 0.11153  0.00277  0.07928  Biso   1.000  O
  O109     1.0000 0.05895  0.07965  0.53290  Biso   1.000  O
  O110     1.0000 0.04978  0.99646  0.61342  Biso   1.000  O
  O111     1.0000 0.97270  0.02300  0.63510  Biso   1.000  O
  O112     1.0000 0.25756  0.10806  0.48808  Biso   1.000  O
  O113     1.0000 0.17490  0.11080  0.55640  Biso   1.000  O
  O114     1.0000 0.27943  0.17776  0.52457  Biso   1.000  O
  O115     1.0000 0.20615  0.16850  0.41355  Biso   1.000  O
  O116     1.0000 0.13502  0.09663  0.40147  Biso   1.000  O
  O117     1.0000 0.18876  0.20322  0.32884  Biso   1.000  O
  O118     1.0000 0.14727  0.90293  0.11042  Biso   1.000  O
  O119     1.0000 0.23144  0.91584  0.02862  Biso   1.000  O
  O120     1.0000 0.19640  0.84500  0.13100  Biso   1.000  O
