data_image0
_cell_length_a       24.1205
_cell_length_b       24.1205
_cell_length_c       24.1205
_cell_angle_alpha    109.461
_cell_angle_beta     109.461
_cell_angle_gamma    109.461

_symmetry_space_group_name_H-M    P 1
_symmetry_int_tables_number       1

loop_
  _symmetry_equiv_pos_as_xyz
  'x, y, z'

loop_
  _atom_site_label
  _atom_site_occupancy
  _atom_site_fract_x
  _atom_site_fract_y
  _atom_site_fract_z
  _atom_site_thermal_displace_type
  _atom_site_B_iso_or_equiv
  _atom_site_type_symbol
  Er1      1.0000 0.40152  0.35207  0.85207  Biso   1.000  Er
  Er2      1.0000 0.85207  0.40152  0.35207  Biso   1.000  Er
  Er3      1.0000 0.35207  0.85207  0.40152  Biso   1.000  Er
  Er4      1.0000 0.85207  0.90152  0.35207  Biso   1.000  Er
  Er5      1.0000 0.90152  0.35207  0.85207  Biso   1.000  Er
  Er6      1.0000 0.35207  0.85207  0.90152  Biso   1.000  Er
  Er7      1.0000 0.30283  0.30283  0.30283  Biso   1.000  Er
  Er8      1.0000 0.80283  0.80283  0.80283  Biso   1.000  Er
  H1       1.0000 0.34900  0.47680  0.02730  Biso   1.000  H
  H2       1.0000 0.39000  0.71530  0.21220  Biso   1.000  H
  H3       1.0000 0.66850  0.67610  0.30800  Biso   1.000  H
  H4       1.0000 0.48250  0.52620  0.35290  Biso   1.000  H
  H5       1.0000 0.46460  0.66480  0.19200  Biso   1.000  H
  H6       1.0000 0.53450  0.66730  0.20870  Biso   1.000  H
  H7       1.0000 0.37760  0.53640  0.15330  Biso   1.000  H
  H8       1.0000 0.39320  0.53530  0.22160  Biso   1.000  H
  H9       1.0000 0.51370  0.63560  0.33050  Biso   1.000  H
  H10      1.0000 0.50370  0.68920  0.31150  Biso   1.000  H
  H11      1.0000 0.54690  0.57280  0.23530  Biso   1.000  H
  H12      1.0000 0.47730  0.52000  0.16810  Biso   1.000  H
  H13      1.0000 0.52340  0.70400  0.13360  Biso   1.000  H
  H14      1.0000 0.54070  0.73020  0.05740  Biso   1.000  H
  H15      1.0000 0.51680  0.64700  0.95690  Biso   1.000  H
  H16      1.0000 0.43490  0.54510  0.92410  Biso   1.000  H
  H17      1.0000 0.29170  0.36160  0.93400  Biso   1.000  H
  H18      1.0000 0.35810  0.37270  0.98940  Biso   1.000  H
  H19      1.0000 0.35670  0.36450  0.08660  Biso   1.000  H
  H20      1.0000 0.31420  0.37400  0.15980  Biso   1.000  H
  H21      1.0000 0.20530  0.35390  0.12080  Biso   1.000  H
  H22      1.0000 0.14870  0.34770  0.01920  Biso   1.000  H
  H23      1.0000 0.20900  0.38000  0.96920  Biso   1.000  H
  H24      1.0000 0.28360  0.50010  0.17290  Biso   1.000  H
  H25      1.0000 0.17980  0.47050  0.16500  Biso   1.000  H
  H26      1.0000 0.16120  0.55370  0.21890  Biso   1.000  H
  H27      1.0000 0.23310  0.66010  0.24970  Biso   1.000  H
  H28      1.0000 0.42780  0.84510  0.28760  Biso   1.000  H
  H29      1.0000 0.47220  0.82880  0.33750  Biso   1.000  H
  H30      1.0000 0.57200  0.83330  0.33490  Biso   1.000  H
  H31      1.0000 0.63860  0.83660  0.28600  Biso   1.000  H
  H32      1.0000 0.61330  0.85340  0.19460  Biso   1.000  H
  H33      1.0000 0.51450  0.85540  0.14650  Biso   1.000  H
  H34      1.0000 0.43860  0.82990  0.18220  Biso   1.000  H
  H35      1.0000 0.57410  0.73650  0.42630  Biso   1.000  H
  H36      1.0000 0.64570  0.83960  0.52550  Biso   1.000  H
  H37      1.0000 0.74690  0.91110  0.53940  Biso   1.000  H
  H38      1.0000 0.78210  0.87080  0.46680  Biso   1.000  H
  H39      1.0000 0.77220  0.70870  0.28390  Biso   1.000  H
  H40      1.0000 0.71790  0.71770  0.23500  Biso   1.000  H
  H41      1.0000 0.62230  0.62700  0.14050  Biso   1.000  H
  H42      1.0000 0.56160  0.51490  0.06160  Biso   1.000  H
  H43      1.0000 0.57640  0.43740  0.09130  Biso   1.000  H
  H44      1.0000 0.68460  0.47820  0.17870  Biso   1.000  H
  H45      1.0000 0.74030  0.58850  0.26260  Biso   1.000  H
  H46      1.0000 0.53720  0.46640  0.18460  Biso   1.000  H
  H47      1.0000 0.53580  0.36390  0.15380  Biso   1.000  H
  H48      1.0000 0.49450  0.30500  0.19760  Biso   1.000  H
  H49      1.0000 0.44910  0.33110  0.25890  Biso   1.000  H
  H50      1.0000 0.36830  0.48340  0.34850  Biso   1.000  H
  H51      1.0000 0.42400  0.49370  0.41420  Biso   1.000  H
  H52      1.0000 0.36180  0.57810  0.34760  Biso   1.000  H
  H53      1.0000 0.40330  0.69210  0.38830  Biso   1.000  H
  H54      1.0000 0.49820  0.76720  0.49160  Biso   1.000  H
  H55      1.0000 0.54520  0.72710  0.55820  Biso   1.000  H
  H56      1.0000 0.52340  0.61740  0.50400  Biso   1.000  H
  H57      1.0000 0.02730  0.34900  0.47680  Biso   1.000  H
  H58      1.0000 0.21220  0.39000  0.71530  Biso   1.000  H
  H59      1.0000 0.30800  0.66850  0.67610  Biso   1.000  H
  H60      1.0000 0.35290  0.48250  0.52620  Biso   1.000  H
  H61      1.0000 0.19200  0.46460  0.66480  Biso   1.000  H
  H62      1.0000 0.20870  0.53450  0.66730  Biso   1.000  H
  H63      1.0000 0.15330  0.37760  0.53640  Biso   1.000  H
  H64      1.0000 0.22160  0.39320  0.53530  Biso   1.000  H
  H65      1.0000 0.33050  0.51370  0.63560  Biso   1.000  H
  H66      1.0000 0.31150  0.50370  0.68920  Biso   1.000  H
  H67      1.0000 0.23530  0.54690  0.57280  Biso   1.000  H
  H68      1.0000 0.16810  0.47730  0.52000  Biso   1.000  H
  H69      1.0000 0.13360  0.52340  0.70400  Biso   1.000  H
  H70      1.0000 0.05740  0.54070  0.73020  Biso   1.000  H
  H71      1.0000 0.95690  0.51680  0.64700  Biso   1.000  H
  H72      1.0000 0.92410  0.43490  0.54510  Biso   1.000  H
  H73      1.0000 0.93400  0.29170  0.36160  Biso   1.000  H
  H74      1.0000 0.98940  0.35810  0.37270  Biso   1.000  H
  H75      1.0000 0.08660  0.35670  0.36450  Biso   1.000  H
  H76      1.0000 0.15980  0.31420  0.37400  Biso   1.000  H
  H77      1.0000 0.12080  0.20530  0.35390  Biso   1.000  H
  H78      1.0000 0.01920  0.14870  0.34770  Biso   1.000  H
  H79      1.0000 0.96920  0.20900  0.38000  Biso   1.000  H
  H80      1.0000 0.17290  0.28360  0.50010  Biso   1.000  H
  H81      1.0000 0.16500  0.17980  0.47050  Biso   1.000  H
  H82      1.0000 0.21890  0.16120  0.55370  Biso   1.000  H
  H83      1.0000 0.24970  0.23310  0.66010  Biso   1.000  H
  H84      1.0000 0.28760  0.42780  0.84510  Biso   1.000  H
  H85      1.0000 0.33750  0.47220  0.82880  Biso   1.000  H
  H86      1.0000 0.33490  0.57200  0.83330  Biso   1.000  H
  H87      1.0000 0.28600  0.63860  0.83660  Biso   1.000  H
  H88      1.0000 0.19460  0.61330  0.85340  Biso   1.000  H
  H89      1.0000 0.14650  0.51450  0.85540  Biso   1.000  H
  H90      1.0000 0.18220  0.43860  0.82990  Biso   1.000  H
  H91      1.0000 0.42630  0.57410  0.73650  Biso   1.000  H
  H92      1.0000 0.52550  0.64570  0.83960  Biso   1.000  H
  H93      1.0000 0.53940  0.74690  0.91110  Biso   1.000  H
  H94      1.0000 0.46680  0.78210  0.87080  Biso   1.000  H
  H95      1.0000 0.28390  0.77220  0.70870  Biso   1.000  H
  H96      1.0000 0.23500  0.71790  0.71770  Biso   1.000  H
  H97      1.0000 0.14050  0.62230  0.62700  Biso   1.000  H
  H98      1.0000 0.06160  0.56160  0.51490  Biso   1.000  H
  H99      1.0000 0.09130  0.57640  0.43740  Biso   1.000  H
  H100     1.0000 0.17870  0.68460  0.47820  Biso   1.000  H
  H101     1.0000 0.26260  0.74030  0.58850  Biso   1.000  H
  H102     1.0000 0.18460  0.53720  0.46640  Biso   1.000  H
  H103     1.0000 0.15380  0.53580  0.36390  Biso   1.000  H
  H104     1.0000 0.19760  0.49450  0.30500  Biso   1.000  H
  H105     1.0000 0.25890  0.44910  0.33110  Biso   1.000  H
  H106     1.0000 0.34850  0.36830  0.48340  Biso   1.000  H
  H107     1.0000 0.41420  0.42400  0.49370  Biso   1.000  H
  H108     1.0000 0.34760  0.36180  0.57810  Biso   1.000  H
  H109     1.0000 0.38830  0.40330  0.69210  Biso   1.000  H
  H110     1.0000 0.49160  0.49820  0.76720  Biso   1.000  H
  H111     1.0000 0.55820  0.54520  0.72710  Biso   1.000  H
  H112     1.0000 0.50400  0.52340  0.61740  Biso   1.000  H
  H113     1.0000 0.47680  0.02730  0.34900  Biso   1.000  H
  H114     1.0000 0.71530  0.21220  0.39000  Biso   1.000  H
  H115     1.0000 0.67610  0.30800  0.66850  Biso   1.000  H
  H116     1.0000 0.52620  0.35290  0.48250  Biso   1.000  H
  H117     1.0000 0.66480  0.19200  0.46460  Biso   1.000  H
  H118     1.0000 0.66730  0.20870  0.53450  Biso   1.000  H
  H119     1.0000 0.53640  0.15330  0.37760  Biso   1.000  H
  H120     1.0000 0.53530  0.22160  0.39320  Biso   1.000  H
  H121     1.0000 0.63560  0.33050  0.51370  Biso   1.000  H
  H122     1.0000 0.68920  0.31150  0.50370  Biso   1.000  H
  H123     1.0000 0.57280  0.23530  0.54690  Biso   1.000  H
  H124     1.0000 0.52000  0.16810  0.47730  Biso   1.000  H
  H125     1.0000 0.70400  0.13360  0.52340  Biso   1.000  H
  H126     1.0000 0.73020  0.05740  0.54070  Biso   1.000  H
  H127     1.0000 0.64700  0.95690  0.51680  Biso   1.000  H
  H128     1.0000 0.54510  0.92410  0.43490  Biso   1.000  H
  H129     1.0000 0.36160  0.93400  0.29170  Biso   1.000  H
  H130     1.0000 0.37270  0.98940  0.35810  Biso   1.000  H
  H131     1.0000 0.36450  0.08660  0.35670  Biso   1.000  H
  H132     1.0000 0.37400  0.15980  0.31420  Biso   1.000  H
  H133     1.0000 0.35390  0.12080  0.20530  Biso   1.000  H
  H134     1.0000 0.34770  0.01920  0.14870  Biso   1.000  H
  H135     1.0000 0.38000  0.96920  0.20900  Biso   1.000  H
  H136     1.0000 0.50010  0.17290  0.28360  Biso   1.000  H
  H137     1.0000 0.47050  0.16500  0.17980  Biso   1.000  H
  H138     1.0000 0.55370  0.21890  0.16120  Biso   1.000  H
  H139     1.0000 0.66010  0.24970  0.23310  Biso   1.000  H
  H140     1.0000 0.84510  0.28760  0.42780  Biso   1.000  H
  H141     1.0000 0.82880  0.33750  0.47220  Biso   1.000  H
  H142     1.0000 0.83330  0.33490  0.57200  Biso   1.000  H
  H143     1.0000 0.83660  0.28600  0.63860  Biso   1.000  H
  H144     1.0000 0.85340  0.19460  0.61330  Biso   1.000  H
  H145     1.0000 0.85540  0.14650  0.51450  Biso   1.000  H
  H146     1.0000 0.82990  0.18220  0.43860  Biso   1.000  H
  H147     1.0000 0.73650  0.42630  0.57410  Biso   1.000  H
  H148     1.0000 0.83960  0.52550  0.64570  Biso   1.000  H
  H149     1.0000 0.91110  0.53940  0.74690  Biso   1.000  H
  H150     1.0000 0.87080  0.46680  0.78210  Biso   1.000  H
  H151     1.0000 0.70870  0.28390  0.77220  Biso   1.000  H
  H152     1.0000 0.71770  0.23500  0.71790  Biso   1.000  H
  H153     1.0000 0.62700  0.14050  0.62230  Biso   1.000  H
  H154     1.0000 0.51490  0.06160  0.56160  Biso   1.000  H
  H155     1.0000 0.43740  0.09130  0.57640  Biso   1.000  H
  H156     1.0000 0.47820  0.17870  0.68460  Biso   1.000  H
  H157     1.0000 0.58850  0.26260  0.74030  Biso   1.000  H
  H158     1.0000 0.46640  0.18460  0.53720  Biso   1.000  H
  H159     1.0000 0.36390  0.15380  0.53580  Biso   1.000  H
  H160     1.0000 0.30500  0.19760  0.49450  Biso   1.000  H
  H161     1.0000 0.33110  0.25890  0.44910  Biso   1.000  H
  H162     1.0000 0.48340  0.34850  0.36830  Biso   1.000  H
  H163     1.0000 0.49370  0.41420  0.42400  Biso   1.000  H
  H164     1.0000 0.57810  0.34760  0.36180  Biso   1.000  H
  H165     1.0000 0.69210  0.38830  0.40330  Biso   1.000  H
  H166     1.0000 0.76720  0.49160  0.49820  Biso   1.000  H
  H167     1.0000 0.72710  0.55820  0.54520  Biso   1.000  H
  H168     1.0000 0.61740  0.50400  0.52340  Biso   1.000  H
  H169     1.0000 0.97680  0.84900  0.52730  Biso   1.000  H
  H170     1.0000 0.21530  0.89000  0.71220  Biso   1.000  H
  H171     1.0000 0.17610  0.16850  0.80800  Biso   1.000  H
  H172     1.0000 0.02620  0.98250  0.85290  Biso   1.000  H
  H173     1.0000 0.16480  0.96460  0.69200  Biso   1.000  H
  H174     1.0000 0.16730  0.03450  0.70870  Biso   1.000  H
  H175     1.0000 0.03640  0.87760  0.65330  Biso   1.000  H
  H176     1.0000 0.03530  0.89320  0.72160  Biso   1.000  H
  H177     1.0000 0.13560  0.01370  0.83050  Biso   1.000  H
  H178     1.0000 0.18920  0.00370  0.81150  Biso   1.000  H
  H179     1.0000 0.07280  0.04690  0.73530  Biso   1.000  H
  H180     1.0000 0.02000  0.97730  0.66810  Biso   1.000  H
  H181     1.0000 0.20400  0.02340  0.63360  Biso   1.000  H
  H182     1.0000 0.23020  0.04070  0.55740  Biso   1.000  H
  H183     1.0000 0.14700  0.01680  0.45690  Biso   1.000  H
  H184     1.0000 0.04510  0.93490  0.42410  Biso   1.000  H
  H185     1.0000 0.86160  0.79170  0.43400  Biso   1.000  H
  H186     1.0000 0.87270  0.85810  0.48940  Biso   1.000  H
  H187     1.0000 0.86450  0.85670  0.58660  Biso   1.000  H
  H188     1.0000 0.87400  0.81420  0.65980  Biso   1.000  H
  H189     1.0000 0.85390  0.70530  0.62080  Biso   1.000  H
  H190     1.0000 0.84770  0.64870  0.51920  Biso   1.000  H
  H191     1.0000 0.88000  0.70900  0.46920  Biso   1.000  H
  H192     1.0000 0.00010  0.78360  0.67290  Biso   1.000  H
  H193     1.0000 0.97050  0.67980  0.66500  Biso   1.000  H
  H194     1.0000 0.05370  0.66120  0.71890  Biso   1.000  H
  H195     1.0000 0.16010  0.73310  0.74970  Biso   1.000  H
  H196     1.0000 0.34510  0.92780  0.78760  Biso   1.000  H
  H197     1.0000 0.32880  0.97220  0.83750  Biso   1.000  H
  H198     1.0000 0.33330  0.07200  0.83490  Biso   1.000  H
  H199     1.0000 0.33660  0.13860  0.78600  Biso   1.000  H
  H200     1.0000 0.35340  0.11330  0.69460  Biso   1.000  H
  H201     1.0000 0.35540  0.01450  0.64650  Biso   1.000  H
  H202     1.0000 0.32990  0.93860  0.68220  Biso   1.000  H
  H203     1.0000 0.23650  0.07410  0.92630  Biso   1.000  H
  H204     1.0000 0.33960  0.14570  0.02550  Biso   1.000  H
  H205     1.0000 0.41110  0.24690  0.03940  Biso   1.000  H
  H206     1.0000 0.37080  0.28210  0.96680  Biso   1.000  H
  H207     1.0000 0.20870  0.27220  0.78390  Biso   1.000  H
  H208     1.0000 0.21770  0.21790  0.73500  Biso   1.000  H
  H209     1.0000 0.12700  0.12230  0.64050  Biso   1.000  H
  H210     1.0000 0.01490  0.06160  0.56160  Biso   1.000  H
  H211     1.0000 0.93740  0.07640  0.59130  Biso   1.000  H
  H212     1.0000 0.97820  0.18460  0.67870  Biso   1.000  H
  H213     1.0000 0.08850  0.24030  0.76260  Biso   1.000  H
  H214     1.0000 0.96640  0.03720  0.68460  Biso   1.000  H
  H215     1.0000 0.86390  0.03580  0.65380  Biso   1.000  H
  H216     1.0000 0.80500  0.99450  0.69760  Biso   1.000  H
  H217     1.0000 0.83110  0.94910  0.75890  Biso   1.000  H
  H218     1.0000 0.98340  0.86830  0.84850  Biso   1.000  H
  H219     1.0000 0.99370  0.92400  0.91420  Biso   1.000  H
  H220     1.0000 0.07810  0.86180  0.84760  Biso   1.000  H
  H221     1.0000 0.19210  0.90330  0.88830  Biso   1.000  H
  H222     1.0000 0.26720  0.99820  0.99160  Biso   1.000  H
  H223     1.0000 0.22710  0.04520  0.05820  Biso   1.000  H
  H224     1.0000 0.11740  0.02340  0.00400  Biso   1.000  H
  H225     1.0000 0.84900  0.52730  0.97680  Biso   1.000  H
  H226     1.0000 0.89000  0.71220  0.21530  Biso   1.000  H
  H227     1.0000 0.16850  0.80800  0.17610  Biso   1.000  H
  H228     1.0000 0.98250  0.85290  0.02620  Biso   1.000  H
  H229     1.0000 0.96460  0.69200  0.16480  Biso   1.000  H
  H230     1.0000 0.03450  0.70870  0.16730  Biso   1.000  H
  H231     1.0000 0.87760  0.65330  0.03640  Biso   1.000  H
  H232     1.0000 0.89320  0.72160  0.03530  Biso   1.000  H
  H233     1.0000 0.01370  0.83050  0.13560  Biso   1.000  H
  H234     1.0000 0.00370  0.81150  0.18920  Biso   1.000  H
  H235     1.0000 0.04690  0.73530  0.07280  Biso   1.000  H
  H236     1.0000 0.97730  0.66810  0.02000  Biso   1.000  H
  H237     1.0000 0.02340  0.63360  0.20400  Biso   1.000  H
  H238     1.0000 0.04070  0.55740  0.23020  Biso   1.000  H
  H239     1.0000 0.01680  0.45690  0.14700  Biso   1.000  H
  H240     1.0000 0.93490  0.42410  0.04510  Biso   1.000  H
  H241     1.0000 0.79170  0.43400  0.86160  Biso   1.000  H
  H242     1.0000 0.85810  0.48940  0.87270  Biso   1.000  H
  H243     1.0000 0.85670  0.58660  0.86450  Biso   1.000  H
  H244     1.0000 0.81420  0.65980  0.87400  Biso   1.000  H
  H245     1.0000 0.70530  0.62080  0.85390  Biso   1.000  H
  H246     1.0000 0.64870  0.51920  0.84770  Biso   1.000  H
  H247     1.0000 0.70900  0.46920  0.88000  Biso   1.000  H
  H248     1.0000 0.78360  0.67290  0.00010  Biso   1.000  H
  H249     1.0000 0.67980  0.66500  0.97050  Biso   1.000  H
  H250     1.0000 0.66120  0.71890  0.05370  Biso   1.000  H
  H251     1.0000 0.73310  0.74970  0.16010  Biso   1.000  H
  H252     1.0000 0.92780  0.78760  0.34510  Biso   1.000  H
  H253     1.0000 0.97220  0.83750  0.32880  Biso   1.000  H
  H254     1.0000 0.07200  0.83490  0.33330  Biso   1.000  H
  H255     1.0000 0.13860  0.78600  0.33660  Biso   1.000  H
  H256     1.0000 0.11330  0.69460  0.35340  Biso   1.000  H
  H257     1.0000 0.01450  0.64650  0.35540  Biso   1.000  H
  H258     1.0000 0.93860  0.68220  0.32990  Biso   1.000  H
  H259     1.0000 0.07410  0.92630  0.23650  Biso   1.000  H
  H260     1.0000 0.14570  0.02550  0.33960  Biso   1.000  H
  H261     1.0000 0.24690  0.03940  0.41110  Biso   1.000  H
  H262     1.0000 0.28210  0.96680  0.37080  Biso   1.000  H
  H263     1.0000 0.27220  0.78390  0.20870  Biso   1.000  H
  H264     1.0000 0.21790  0.73500  0.21770  Biso   1.000  H
  H265     1.0000 0.12230  0.64050  0.12700  Biso   1.000  H
  H266     1.0000 0.06160  0.56160  0.01490  Biso   1.000  H
  H267     1.0000 0.07640  0.59130  0.93740  Biso   1.000  H
  H268     1.0000 0.18460  0.67870  0.97820  Biso   1.000  H
  H269     1.0000 0.24030  0.76260  0.08850  Biso   1.000  H
  H270     1.0000 0.03720  0.68460  0.96640  Biso   1.000  H
  H271     1.0000 0.03580  0.65380  0.86390  Biso   1.000  H
  H272     1.0000 0.99450  0.69760  0.80500  Biso   1.000  H
  H273     1.0000 0.94910  0.75890  0.83110  Biso   1.000  H
  H274     1.0000 0.86830  0.84850  0.98340  Biso   1.000  H
  H275     1.0000 0.92400  0.91420  0.99370  Biso   1.000  H
  H276     1.0000 0.86180  0.84760  0.07810  Biso   1.000  H
  H277     1.0000 0.90330  0.88830  0.19210  Biso   1.000  H
  H278     1.0000 0.99820  0.99160  0.26720  Biso   1.000  H
  H279     1.0000 0.04520  0.05820  0.22710  Biso   1.000  H
  H280     1.0000 0.02340  0.00400  0.11740  Biso   1.000  H
  H281     1.0000 0.52730  0.97680  0.84900  Biso   1.000  H
  H282     1.0000 0.71220  0.21530  0.89000  Biso   1.000  H
  H283     1.0000 0.80800  0.17610  0.16850  Biso   1.000  H
  H284     1.0000 0.85290  0.02620  0.98250  Biso   1.000  H
  H285     1.0000 0.69200  0.16480  0.96460  Biso   1.000  H
  H286     1.0000 0.70870  0.16730  0.03450  Biso   1.000  H
  H287     1.0000 0.65330  0.03640  0.87760  Biso   1.000  H
  H288     1.0000 0.72160  0.03530  0.89320  Biso   1.000  H
  H289     1.0000 0.83050  0.13560  0.01370  Biso   1.000  H
  H290     1.0000 0.81150  0.18920  0.00370  Biso   1.000  H
  H291     1.0000 0.73530  0.07280  0.04690  Biso   1.000  H
  H292     1.0000 0.66810  0.02000  0.97730  Biso   1.000  H
  H293     1.0000 0.63360  0.20400  0.02340  Biso   1.000  H
  H294     1.0000 0.55740  0.23020  0.04070  Biso   1.000  H
  H295     1.0000 0.45690  0.14700  0.01680  Biso   1.000  H
  H296     1.0000 0.42410  0.04510  0.93490  Biso   1.000  H
  H297     1.0000 0.43400  0.86160  0.79170  Biso   1.000  H
  H298     1.0000 0.48940  0.87270  0.85810  Biso   1.000  H
  H299     1.0000 0.58660  0.86450  0.85670  Biso   1.000  H
  H300     1.0000 0.65980  0.87400  0.81420  Biso   1.000  H
  H301     1.0000 0.62080  0.85390  0.70530  Biso   1.000  H
  H302     1.0000 0.51920  0.84770  0.64870  Biso   1.000  H
  H303     1.0000 0.46920  0.88000  0.70900  Biso   1.000  H
  H304     1.0000 0.67290  0.00010  0.78360  Biso   1.000  H
  H305     1.0000 0.66500  0.97050  0.67980  Biso   1.000  H
  H306     1.0000 0.71890  0.05370  0.66120  Biso   1.000  H
  H307     1.0000 0.74970  0.16010  0.73310  Biso   1.000  H
  H308     1.0000 0.78760  0.34510  0.92780  Biso   1.000  H
  H309     1.0000 0.83750  0.32880  0.97220  Biso   1.000  H
  H310     1.0000 0.83490  0.33330  0.07200  Biso   1.000  H
  H311     1.0000 0.78600  0.33660  0.13860  Biso   1.000  H
  H312     1.0000 0.69460  0.35340  0.11330  Biso   1.000  H
  H313     1.0000 0.64650  0.35540  0.01450  Biso   1.000  H
  H314     1.0000 0.68220  0.32990  0.93860  Biso   1.000  H
  H315     1.0000 0.92630  0.23650  0.07410  Biso   1.000  H
  H316     1.0000 0.02550  0.33960  0.14570  Biso   1.000  H
  H317     1.0000 0.03940  0.41110  0.24690  Biso   1.000  H
  H318     1.0000 0.96680  0.37080  0.28210  Biso   1.000  H
  H319     1.0000 0.78390  0.20870  0.27220  Biso   1.000  H
  H320     1.0000 0.73500  0.21770  0.21790  Biso   1.000  H
  H321     1.0000 0.64050  0.12700  0.12230  Biso   1.000  H
  H322     1.0000 0.56160  0.01490  0.06160  Biso   1.000  H
  H323     1.0000 0.59130  0.93740  0.07640  Biso   1.000  H
  H324     1.0000 0.67870  0.97820  0.18460  Biso   1.000  H
  H325     1.0000 0.76260  0.08850  0.24030  Biso   1.000  H
  H326     1.0000 0.68460  0.96640  0.03720  Biso   1.000  H
  H327     1.0000 0.65380  0.86390  0.03580  Biso   1.000  H
  H328     1.0000 0.69760  0.80500  0.99450  Biso   1.000  H
  H329     1.0000 0.75890  0.83110  0.94910  Biso   1.000  H
  H330     1.0000 0.84850  0.98340  0.86830  Biso   1.000  H
  H331     1.0000 0.91420  0.99370  0.92400  Biso   1.000  H
  H332     1.0000 0.84760  0.07810  0.86180  Biso   1.000  H
  H333     1.0000 0.88830  0.19210  0.90330  Biso   1.000  H
  H334     1.0000 0.99160  0.26720  0.99820  Biso   1.000  H
  H335     1.0000 0.05820  0.22710  0.04520  Biso   1.000  H
  H336     1.0000 0.00400  0.11740  0.02340  Biso   1.000  H
  C1       1.0000 0.47600  0.60160  0.22730  Biso   1.000  C
  C2       1.0000 0.48650  0.63740  0.18940  Biso   1.000  C
  C3       1.0000 0.40280  0.56420  0.20230  Biso   1.000  C
  C4       1.0000 0.51930  0.65660  0.30330  Biso   1.000  C
  C5       1.0000 0.49820  0.55000  0.21650  Biso   1.000  C
  C6       1.0000 0.39550  0.47730  0.97700  Biso   1.000  C
  C7       1.0000 0.44580  0.55070  0.00870  Biso   1.000  C
  C8       1.0000 0.47210  0.60430  0.07100  Biso   1.000  C
  C9       1.0000 0.50750  0.67000  0.09020  Biso   1.000  C
  C10      1.0000 0.51920  0.68480  0.04570  Biso   1.000  C
  C11      1.0000 0.50150  0.63780  0.98530  Biso   1.000  C
  C12      1.0000 0.45970  0.57660  0.97040  Biso   1.000  C
  C13      1.0000 0.32550  0.38820  0.98190  Biso   1.000  C
  C14      1.0000 0.29090  0.37880  0.02410  Biso   1.000  C
  C15      1.0000 0.31870  0.36980  0.07760  Biso   1.000  C
  C16      1.0000 0.29010  0.36850  0.11740  Biso   1.000  C
  C17      1.0000 0.22650  0.35940  0.09560  Biso   1.000  C
  C18      1.0000 0.19390  0.35840  0.03710  Biso   1.000  C
  C19      1.0000 0.22830  0.37320  0.00500  Biso   1.000  C
  C20      1.0000 0.35680  0.73280  0.27800  Biso   1.000  C
  C21      1.0000 0.30870  0.65070  0.24740  Biso   1.000  C
  C22      1.0000 0.31930  0.59910  0.22120  Biso   1.000  C
  C23      1.0000 0.27340  0.53350  0.19110  Biso   1.000  C
  C24      1.0000 0.21280  0.51600  0.18730  Biso   1.000  C
  C25      1.0000 0.20010  0.56370  0.21530  Biso   1.000  C
  C26      1.0000 0.24650  0.62790  0.23850  Biso   1.000  C
  C27      1.0000 0.44770  0.81650  0.29030  Biso   1.000  C
  C28      1.0000 0.49530  0.82400  0.26010  Biso   1.000  C
  C29      1.0000 0.55760  0.83200  0.29330  Biso   1.000  C
  C30      1.0000 0.59920  0.83840  0.26660  Biso   1.000  C
  C31      1.0000 0.58380  0.84710  0.21180  Biso   1.000  C
  C32      1.0000 0.52430  0.84650  0.18220  Biso   1.000  C
  C33      1.0000 0.48030  0.83320  0.20470  Biso   1.000  C
  C34      1.0000 0.72870  0.77380  0.35170  Biso   1.000  C
  C35      1.0000 0.69390  0.78780  0.39440  Biso   1.000  C
  C36      1.0000 0.63030  0.74960  0.38310  Biso   1.000  C
  C37      1.0000 0.61480  0.76650  0.43270  Biso   1.000  C
  C38      1.0000 0.65770  0.82690  0.49230  Biso   1.000  C
  C39      1.0000 0.71840  0.86770  0.50150  Biso   1.000  C
  C40      1.0000 0.73750  0.84560  0.45590  Biso   1.000  C
  C41      1.0000 0.72430  0.69390  0.25990  Biso   1.000  C
  C42      1.0000 0.68370  0.61870  0.21250  Biso   1.000  C
  C43      1.0000 0.63240  0.59640  0.15080  Biso   1.000  C
  C44      1.0000 0.59580  0.52970  0.10440  Biso   1.000  C
  C45      1.0000 0.60790  0.48350  0.11840  Biso   1.000  C
  C46      1.0000 0.66800  0.50700  0.17400  Biso   1.000  C
  C47      1.0000 0.70260  0.57320  0.22200  Biso   1.000  C
  C48      1.0000 0.43450  0.43650  0.31120  Biso   1.000  C
  C49      1.0000 0.45840  0.41520  0.25850  Biso   1.000  C
  C50      1.0000 0.48280  0.44880  0.22930  Biso   1.000  C
  C51      1.0000 0.51600  0.43600  0.19630  Biso   1.000  C
  C52      1.0000 0.51790  0.37840  0.18060  Biso   1.000  C
  C53      1.0000 0.49270  0.34460  0.20630  Biso   1.000  C
  C54      1.0000 0.46480  0.35980  0.24300  Biso   1.000  C
  C55      1.0000 0.41670  0.50760  0.38030  Biso   1.000  C
  C56      1.0000 0.44480  0.58810  0.41600  Biso   1.000  C
  C57      1.0000 0.40420  0.60950  0.38600  Biso   1.000  C
  C58      1.0000 0.42640  0.67640  0.41270  Biso   1.000  C
  C59      1.0000 0.48160  0.72080  0.47450  Biso   1.000  C
  C60      1.0000 0.51360  0.69820  0.51220  Biso   1.000  C
  C61      1.0000 0.49800  0.63240  0.48110  Biso   1.000  C
  C62      1.0000 0.22730  0.47600  0.60160  Biso   1.000  C
  C63      1.0000 0.18940  0.48650  0.63740  Biso   1.000  C
  C64      1.0000 0.20230  0.40280  0.56420  Biso   1.000  C
  C65      1.0000 0.30330  0.51930  0.65660  Biso   1.000  C
  C66      1.0000 0.21650  0.49820  0.55000  Biso   1.000  C
  C67      1.0000 0.97700  0.39550  0.47730  Biso   1.000  C
  C68      1.0000 0.00870  0.44580  0.55070  Biso   1.000  C
  C69      1.0000 0.07100  0.47210  0.60430  Biso   1.000  C
  C70      1.0000 0.09020  0.50750  0.67000  Biso   1.000  C
  C71      1.0000 0.04570  0.51920  0.68480  Biso   1.000  C
  C72      1.0000 0.98530  0.50150  0.63780  Biso   1.000  C
  C73      1.0000 0.97040  0.45970  0.57660  Biso   1.000  C
  C74      1.0000 0.98190  0.32550  0.38820  Biso   1.000  C
  C75      1.0000 0.02410  0.29090  0.37880  Biso   1.000  C
  C76      1.0000 0.07760  0.31870  0.36980  Biso   1.000  C
  C77      1.0000 0.11740  0.29010  0.36850  Biso   1.000  C
  C78      1.0000 0.09560  0.22650  0.35940  Biso   1.000  C
  C79      1.0000 0.03710  0.19390  0.35840  Biso   1.000  C
  C80      1.0000 0.00500  0.22830  0.37320  Biso   1.000  C
  C81      1.0000 0.27800  0.35680  0.73280  Biso   1.000  C
  C82      1.0000 0.24740  0.30870  0.65070  Biso   1.000  C
  C83      1.0000 0.22120  0.31930  0.59910  Biso   1.000  C
  C84      1.0000 0.19110  0.27340  0.53350  Biso   1.000  C
  C85      1.0000 0.18730  0.21280  0.51600  Biso   1.000  C
  C86      1.0000 0.21530  0.20010  0.56370  Biso   1.000  C
  C87      1.0000 0.23850  0.24650  0.62790  Biso   1.000  C
  C88      1.0000 0.29030  0.44770  0.81650  Biso   1.000  C
  C89      1.0000 0.26010  0.49530  0.82400  Biso   1.000  C
  C90      1.0000 0.29330  0.55760  0.83200  Biso   1.000  C
  C91      1.0000 0.26660  0.59920  0.83840  Biso   1.000  C
  C92      1.0000 0.21180  0.58380  0.84710  Biso   1.000  C
  C93      1.0000 0.18220  0.52430  0.84650  Biso   1.000  C
  C94      1.0000 0.20470  0.48030  0.83320  Biso   1.000  C
  C95      1.0000 0.35170  0.72870  0.77380  Biso   1.000  C
  C96      1.0000 0.39440  0.69390  0.78780  Biso   1.000  C
  C97      1.0000 0.38310  0.63030  0.74960  Biso   1.000  C
  C98      1.0000 0.43270  0.61480  0.76650  Biso   1.000  C
  C99      1.0000 0.49230  0.65770  0.82690  Biso   1.000  C
  C100     1.0000 0.50150  0.71840  0.86770  Biso   1.000  C
  C101     1.0000 0.45590  0.73750  0.84560  Biso   1.000  C
  C102     1.0000 0.25990  0.72430  0.69390  Biso   1.000  C
  C103     1.0000 0.21250  0.68370  0.61870  Biso   1.000  C
  C104     1.0000 0.15080  0.63240  0.59640  Biso   1.000  C
  C105     1.0000 0.10440  0.59580  0.52970  Biso   1.000  C
  C106     1.0000 0.11840  0.60790  0.48350  Biso   1.000  C
  C107     1.0000 0.17400  0.66800  0.50700  Biso   1.000  C
  C108     1.0000 0.22200  0.70260  0.57320  Biso   1.000  C
  C109     1.0000 0.31120  0.43450  0.43650  Biso   1.000  C
  C110     1.0000 0.25850  0.45840  0.41520  Biso   1.000  C
  C111     1.0000 0.22930  0.48280  0.44880  Biso   1.000  C
  C112     1.0000 0.19630  0.51600  0.43600  Biso   1.000  C
  C113     1.0000 0.18060  0.51790  0.37840  Biso   1.000  C
  C114     1.0000 0.20630  0.49270  0.34460  Biso   1.000  C
  C115     1.0000 0.24300  0.46480  0.35980  Biso   1.000  C
  C116     1.0000 0.38030  0.41670  0.50760  Biso   1.000  C
  C117     1.0000 0.41600  0.44480  0.58810  Biso   1.000  C
  C118     1.0000 0.38600  0.40420  0.60950  Biso   1.000  C
  C119     1.0000 0.41270  0.42640  0.67640  Biso   1.000  C
  C120     1.0000 0.47450  0.48160  0.72080  Biso   1.000  C
  C121     1.0000 0.51220  0.51360  0.69820  Biso   1.000  C
  C122     1.0000 0.48110  0.49800  0.63240  Biso   1.000  C
  C123     1.0000 0.60160  0.22730  0.47600  Biso   1.000  C
  C124     1.0000 0.63740  0.18940  0.48650  Biso   1.000  C
  C125     1.0000 0.56420  0.20230  0.40280  Biso   1.000  C
  C126     1.0000 0.65660  0.30330  0.51930  Biso   1.000  C
  C127     1.0000 0.55000  0.21650  0.49820  Biso   1.000  C
  C128     1.0000 0.47730  0.97700  0.39550  Biso   1.000  C
  C129     1.0000 0.55070  0.00870  0.44580  Biso   1.000  C
  C130     1.0000 0.60430  0.07100  0.47210  Biso   1.000  C
  C131     1.0000 0.67000  0.09020  0.50750  Biso   1.000  C
  C132     1.0000 0.68480  0.04570  0.51920  Biso   1.000  C
  C133     1.0000 0.63780  0.98530  0.50150  Biso   1.000  C
  C134     1.0000 0.57660  0.97040  0.45970  Biso   1.000  C
  C135     1.0000 0.38820  0.98190  0.32550  Biso   1.000  C
  C136     1.0000 0.37880  0.02410  0.29090  Biso   1.000  C
  C137     1.0000 0.36980  0.07760  0.31870  Biso   1.000  C
  C138     1.0000 0.36850  0.11740  0.29010  Biso   1.000  C
  C139     1.0000 0.35940  0.09560  0.22650  Biso   1.000  C
  C140     1.0000 0.35840  0.03710  0.19390  Biso   1.000  C
  C141     1.0000 0.37320  0.00500  0.22830  Biso   1.000  C
  C142     1.0000 0.73280  0.27800  0.35680  Biso   1.000  C
  C143     1.0000 0.65070  0.24740  0.30870  Biso   1.000  C
  C144     1.0000 0.59910  0.22120  0.31930  Biso   1.000  C
  C145     1.0000 0.53350  0.19110  0.27340  Biso   1.000  C
  C146     1.0000 0.51600  0.18730  0.21280  Biso   1.000  C
  C147     1.0000 0.56370  0.21530  0.20010  Biso   1.000  C
  C148     1.0000 0.62790  0.23850  0.24650  Biso   1.000  C
  C149     1.0000 0.81650  0.29030  0.44770  Biso   1.000  C
  C150     1.0000 0.82400  0.26010  0.49530  Biso   1.000  C
  C151     1.0000 0.83200  0.29330  0.55760  Biso   1.000  C
  C152     1.0000 0.83840  0.26660  0.59920  Biso   1.000  C
  C153     1.0000 0.84710  0.21180  0.58380  Biso   1.000  C
  C154     1.0000 0.84650  0.18220  0.52430  Biso   1.000  C
  C155     1.0000 0.83320  0.20470  0.48030  Biso   1.000  C
  C156     1.0000 0.77380  0.35170  0.72870  Biso   1.000  C
  C157     1.0000 0.78780  0.39440  0.69390  Biso   1.000  C
  C158     1.0000 0.74960  0.38310  0.63030  Biso   1.000  C
  C159     1.0000 0.76650  0.43270  0.61480  Biso   1.000  C
  C160     1.0000 0.82690  0.49230  0.65770  Biso   1.000  C
  C161     1.0000 0.86770  0.50150  0.71840  Biso   1.000  C
  C162     1.0000 0.84560  0.45590  0.73750  Biso   1.000  C
  C163     1.0000 0.69390  0.25990  0.72430  Biso   1.000  C
  C164     1.0000 0.61870  0.21250  0.68370  Biso   1.000  C
  C165     1.0000 0.59640  0.15080  0.63240  Biso   1.000  C
  C166     1.0000 0.52970  0.10440  0.59580  Biso   1.000  C
  C167     1.0000 0.48350  0.11840  0.60790  Biso   1.000  C
  C168     1.0000 0.50700  0.17400  0.66800  Biso   1.000  C
  C169     1.0000 0.57320  0.22200  0.70260  Biso   1.000  C
  C170     1.0000 0.43650  0.31120  0.43450  Biso   1.000  C
  C171     1.0000 0.41520  0.25850  0.45840  Biso   1.000  C
  C172     1.0000 0.44880  0.22930  0.48280  Biso   1.000  C
  C173     1.0000 0.43600  0.19630  0.51600  Biso   1.000  C
  C174     1.0000 0.37840  0.18060  0.51790  Biso   1.000  C
  C175     1.0000 0.34460  0.20630  0.49270  Biso   1.000  C
  C176     1.0000 0.35980  0.24300  0.46480  Biso   1.000  C
  C177     1.0000 0.50760  0.38030  0.41670  Biso   1.000  C
  C178     1.0000 0.58810  0.41600  0.44480  Biso   1.000  C
  C179     1.0000 0.60950  0.38600  0.40420  Biso   1.000  C
  C180     1.0000 0.67640  0.41270  0.42640  Biso   1.000  C
  C181     1.0000 0.72080  0.47450  0.48160  Biso   1.000  C
  C182     1.0000 0.69820  0.51220  0.51360  Biso   1.000  C
  C183     1.0000 0.63240  0.48110  0.49800  Biso   1.000  C
  C184     1.0000 0.10160  0.97600  0.72730  Biso   1.000  C
  C185     1.0000 0.13740  0.98650  0.68940  Biso   1.000  C
  C186     1.0000 0.06420  0.90280  0.70230  Biso   1.000  C
  C187     1.0000 0.15660  0.01930  0.80330  Biso   1.000  C
  C188     1.0000 0.05000  0.99820  0.71650  Biso   1.000  C
  C189     1.0000 0.97730  0.89550  0.47700  Biso   1.000  C
  C190     1.0000 0.05070  0.94580  0.50870  Biso   1.000  C
  C191     1.0000 0.10430  0.97210  0.57100  Biso   1.000  C
  C192     1.0000 0.17000  0.00750  0.59020  Biso   1.000  C
  C193     1.0000 0.18480  0.01920  0.54570  Biso   1.000  C
  C194     1.0000 0.13780  0.00150  0.48530  Biso   1.000  C
  C195     1.0000 0.07660  0.95970  0.47040  Biso   1.000  C
  C196     1.0000 0.88820  0.82550  0.48190  Biso   1.000  C
  C197     1.0000 0.87880  0.79090  0.52410  Biso   1.000  C
  C198     1.0000 0.86980  0.81870  0.57760  Biso   1.000  C
  C199     1.0000 0.86850  0.79010  0.61740  Biso   1.000  C
  C200     1.0000 0.85940  0.72650  0.59560  Biso   1.000  C
  C201     1.0000 0.85840  0.69390  0.53710  Biso   1.000  C
  C202     1.0000 0.87320  0.72830  0.50500  Biso   1.000  C
  C203     1.0000 0.23280  0.85680  0.77800  Biso   1.000  C
  C204     1.0000 0.15070  0.80870  0.74740  Biso   1.000  C
  C205     1.0000 0.09910  0.81930  0.72120  Biso   1.000  C
  C206     1.0000 0.03350  0.77340  0.69110  Biso   1.000  C
  C207     1.0000 0.01600  0.71280  0.68730  Biso   1.000  C
  C208     1.0000 0.06370  0.70010  0.71530  Biso   1.000  C
  C209     1.0000 0.12790  0.74650  0.73850  Biso   1.000  C
  C210     1.0000 0.31650  0.94770  0.79030  Biso   1.000  C
  C211     1.0000 0.32400  0.99530  0.76010  Biso   1.000  C
  C212     1.0000 0.33200  0.05760  0.79330  Biso   1.000  C
  C213     1.0000 0.33840  0.09920  0.76660  Biso   1.000  C
  C214     1.0000 0.34710  0.08380  0.71180  Biso   1.000  C
  C215     1.0000 0.34650  0.02430  0.68220  Biso   1.000  C
  C216     1.0000 0.33320  0.98030  0.70470  Biso   1.000  C
  C217     1.0000 0.27380  0.22870  0.85170  Biso   1.000  C
  C218     1.0000 0.28780  0.19390  0.89440  Biso   1.000  C
  C219     1.0000 0.24960  0.13030  0.88310  Biso   1.000  C
  C220     1.0000 0.26650  0.11480  0.93270  Biso   1.000  C
  C221     1.0000 0.32690  0.15770  0.99230  Biso   1.000  C
  C222     1.0000 0.36770  0.21840  0.00150  Biso   1.000  C
  C223     1.0000 0.34560  0.23750  0.95590  Biso   1.000  C
  C224     1.0000 0.19390  0.22430  0.75990  Biso   1.000  C
  C225     1.0000 0.11870  0.18370  0.71250  Biso   1.000  C
  C226     1.0000 0.09640  0.13240  0.65080  Biso   1.000  C
  C227     1.0000 0.02970  0.09580  0.60440  Biso   1.000  C
  C228     1.0000 0.98350  0.10790  0.61840  Biso   1.000  C
  C229     1.0000 0.00700  0.16800  0.67400  Biso   1.000  C
  C230     1.0000 0.07320  0.20260  0.72200  Biso   1.000  C
  C231     1.0000 0.93650  0.93450  0.81120  Biso   1.000  C
  C232     1.0000 0.91520  0.95840  0.75850  Biso   1.000  C
  C233     1.0000 0.94880  0.98280  0.72930  Biso   1.000  C
  C234     1.0000 0.93600  0.01600  0.69630  Biso   1.000  C
  C235     1.0000 0.87840  0.01790  0.68060  Biso   1.000  C
  C236     1.0000 0.84460  0.99270  0.70630  Biso   1.000  C
  C237     1.0000 0.85980  0.96480  0.74300  Biso   1.000  C
  C238     1.0000 0.00760  0.91670  0.88030  Biso   1.000  C
  C239     1.0000 0.08810  0.94480  0.91600  Biso   1.000  C
  C240     1.0000 0.10950  0.90420  0.88600  Biso   1.000  C
  C241     1.0000 0.17640  0.92640  0.91270  Biso   1.000  C
  C242     1.0000 0.22080  0.98160  0.97450  Biso   1.000  C
  C243     1.0000 0.19820  0.01360  0.01220  Biso   1.000  C
  C244     1.0000 0.13240  0.99800  0.98110  Biso   1.000  C
  C245     1.0000 0.97600  0.72730  0.10160  Biso   1.000  C
  C246     1.0000 0.98650  0.68940  0.13740  Biso   1.000  C
  C247     1.0000 0.90280  0.70230  0.06420  Biso   1.000  C
  C248     1.0000 0.01930  0.80330  0.15660  Biso   1.000  C
  C249     1.0000 0.99820  0.71650  0.05000  Biso   1.000  C
  C250     1.0000 0.89550  0.47700  0.97730  Biso   1.000  C
  C251     1.0000 0.94580  0.50870  0.05070  Biso   1.000  C
  C252     1.0000 0.97210  0.57100  0.10430  Biso   1.000  C
  C253     1.0000 0.00750  0.59020  0.17000  Biso   1.000  C
  C254     1.0000 0.01920  0.54570  0.18480  Biso   1.000  C
  C255     1.0000 0.00150  0.48530  0.13780  Biso   1.000  C
  C256     1.0000 0.95970  0.47040  0.07660  Biso   1.000  C
  C257     1.0000 0.82550  0.48190  0.88820  Biso   1.000  C
  C258     1.0000 0.79090  0.52410  0.87880  Biso   1.000  C
  C259     1.0000 0.81870  0.57760  0.86980  Biso   1.000  C
  C260     1.0000 0.79010  0.61740  0.86850  Biso   1.000  C
  C261     1.0000 0.72650  0.59560  0.85940  Biso   1.000  C
  C262     1.0000 0.69390  0.53710  0.85840  Biso   1.000  C
  C263     1.0000 0.72830  0.50500  0.87320  Biso   1.000  C
  C264     1.0000 0.85680  0.77800  0.23280  Biso   1.000  C
  C265     1.0000 0.80870  0.74740  0.15070  Biso   1.000  C
  C266     1.0000 0.81930  0.72120  0.09910  Biso   1.000  C
  C267     1.0000 0.77340  0.69110  0.03350  Biso   1.000  C
  C268     1.0000 0.71280  0.68730  0.01600  Biso   1.000  C
  C269     1.0000 0.70010  0.71530  0.06370  Biso   1.000  C
  C270     1.0000 0.74650  0.73850  0.12790  Biso   1.000  C
  C271     1.0000 0.94770  0.79030  0.31650  Biso   1.000  C
  C272     1.0000 0.99530  0.76010  0.32400  Biso   1.000  C
  C273     1.0000 0.05760  0.79330  0.33200  Biso   1.000  C
  C274     1.0000 0.09920  0.76660  0.33840  Biso   1.000  C
  C275     1.0000 0.08380  0.71180  0.34710  Biso   1.000  C
  C276     1.0000 0.02430  0.68220  0.34650  Biso   1.000  C
  C277     1.0000 0.98030  0.70470  0.33320  Biso   1.000  C
  C278     1.0000 0.22870  0.85170  0.27380  Biso   1.000  C
  C279     1.0000 0.19390  0.89440  0.28780  Biso   1.000  C
  C280     1.0000 0.13030  0.88310  0.24960  Biso   1.000  C
  C281     1.0000 0.11480  0.93270  0.26650  Biso   1.000  C
  C282     1.0000 0.15770  0.99230  0.32690  Biso   1.000  C
  C283     1.0000 0.21840  0.00150  0.36770  Biso   1.000  C
  C284     1.0000 0.23750  0.95590  0.34560  Biso   1.000  C
  C285     1.0000 0.22430  0.75990  0.19390  Biso   1.000  C
  C286     1.0000 0.18370  0.71250  0.11870  Biso   1.000  C
  C287     1.0000 0.13240  0.65080  0.09640  Biso   1.000  C
  C288     1.0000 0.09580  0.60440  0.02970  Biso   1.000  C
  C289     1.0000 0.10790  0.61840  0.98350  Biso   1.000  C
  C290     1.0000 0.16800  0.67400  0.00700  Biso   1.000  C
  C291     1.0000 0.20260  0.72200  0.07320  Biso   1.000  C
  C292     1.0000 0.93450  0.81120  0.93650  Biso   1.000  C
  C293     1.0000 0.95840  0.75850  0.91520  Biso   1.000  C
  C294     1.0000 0.98280  0.72930  0.94880  Biso   1.000  C
  C295     1.0000 0.01600  0.69630  0.93600  Biso   1.000  C
  C296     1.0000 0.01790  0.68060  0.87840  Biso   1.000  C
  C297     1.0000 0.99270  0.70630  0.84460  Biso   1.000  C
  C298     1.0000 0.96480  0.74300  0.85980  Biso   1.000  C
  C299     1.0000 0.91670  0.88030  0.00760  Biso   1.000  C
  C300     1.0000 0.94480  0.91600  0.08810  Biso   1.000  C
  C301     1.0000 0.90420  0.88600  0.10950  Biso   1.000  C
  C302     1.0000 0.92640  0.91270  0.17640  Biso   1.000  C
  C303     1.0000 0.98160  0.97450  0.22080  Biso   1.000  C
  C304     1.0000 0.01360  0.01220  0.19820  Biso   1.000  C
  C305     1.0000 0.99800  0.98110  0.13240  Biso   1.000  C
  C306     1.0000 0.72730  0.10160  0.97600  Biso   1.000  C
  C307     1.0000 0.68940  0.13740  0.98650  Biso   1.000  C
  C308     1.0000 0.70230  0.06420  0.90280  Biso   1.000  C
  C309     1.0000 0.80330  0.15660  0.01930  Biso   1.000  C
  C310     1.0000 0.71650  0.05000  0.99820  Biso   1.000  C
  C311     1.0000 0.47700  0.97730  0.89550  Biso   1.000  C
  C312     1.0000 0.50870  0.05070  0.94580  Biso   1.000  C
  C313     1.0000 0.57100  0.10430  0.97210  Biso   1.000  C
  C314     1.0000 0.59020  0.17000  0.00750  Biso   1.000  C
  C315     1.0000 0.54570  0.18480  0.01920  Biso   1.000  C
  C316     1.0000 0.48530  0.13780  0.00150  Biso   1.000  C
  C317     1.0000 0.47040  0.07660  0.95970  Biso   1.000  C
  C318     1.0000 0.48190  0.88820  0.82550  Biso   1.000  C
  C319     1.0000 0.52410  0.87880  0.79090  Biso   1.000  C
  C320     1.0000 0.57760  0.86980  0.81870  Biso   1.000  C
  C321     1.0000 0.61740  0.86850  0.79010  Biso   1.000  C
  C322     1.0000 0.59560  0.85940  0.72650  Biso   1.000  C
  C323     1.0000 0.53710  0.85840  0.69390  Biso   1.000  C
  C324     1.0000 0.50500  0.87320  0.72830  Biso   1.000  C
  C325     1.0000 0.77800  0.23280  0.85680  Biso   1.000  C
  C326     1.0000 0.74740  0.15070  0.80870  Biso   1.000  C
  C327     1.0000 0.72120  0.09910  0.81930  Biso   1.000  C
  C328     1.0000 0.69110  0.03350  0.77340  Biso   1.000  C
  C329     1.0000 0.68730  0.01600  0.71280  Biso   1.000  C
  C330     1.0000 0.71530  0.06370  0.70010  Biso   1.000  C
  C331     1.0000 0.73850  0.12790  0.74650  Biso   1.000  C
  C332     1.0000 0.79030  0.31650  0.94770  Biso   1.000  C
  C333     1.0000 0.76010  0.32400  0.99530  Biso   1.000  C
  C334     1.0000 0.79330  0.33200  0.05760  Biso   1.000  C
  C335     1.0000 0.76660  0.33840  0.09920  Biso   1.000  C
  C336     1.0000 0.71180  0.34710  0.08380  Biso   1.000  C
  C337     1.0000 0.68220  0.34650  0.02430  Biso   1.000  C
  C338     1.0000 0.70470  0.33320  0.98030  Biso   1.000  C
  C339     1.0000 0.85170  0.27380  0.22870  Biso   1.000  C
  C340     1.0000 0.89440  0.28780  0.19390  Biso   1.000  C
  C341     1.0000 0.88310  0.24960  0.13030  Biso   1.000  C
  C342     1.0000 0.93270  0.26650  0.11480  Biso   1.000  C
  C343     1.0000 0.99230  0.32690  0.15770  Biso   1.000  C
  C344     1.0000 0.00150  0.36770  0.21840  Biso   1.000  C
  C345     1.0000 0.95590  0.34560  0.23750  Biso   1.000  C
  C346     1.0000 0.75990  0.19390  0.22430  Biso   1.000  C
  C347     1.0000 0.71250  0.11870  0.18370  Biso   1.000  C
  C348     1.0000 0.65080  0.09640  0.13240  Biso   1.000  C
  C349     1.0000 0.60440  0.02970  0.09580  Biso   1.000  C
  C350     1.0000 0.61840  0.98350  0.10790  Biso   1.000  C
  C351     1.0000 0.67400  0.00700  0.16800  Biso   1.000  C
  C352     1.0000 0.72200  0.07320  0.20260  Biso   1.000  C
  C353     1.0000 0.81120  0.93650  0.93450  Biso   1.000  C
  C354     1.0000 0.75850  0.91520  0.95840  Biso   1.000  C
  C355     1.0000 0.72930  0.94880  0.98280  Biso   1.000  C
  C356     1.0000 0.69630  0.93600  0.01600  Biso   1.000  C
  C357     1.0000 0.68060  0.87840  0.01790  Biso   1.000  C
  C358     1.0000 0.70630  0.84460  0.99270  Biso   1.000  C
  C359     1.0000 0.74300  0.85980  0.96480  Biso   1.000  C
  C360     1.0000 0.88030  0.00760  0.91670  Biso   1.000  C
  C361     1.0000 0.91600  0.08810  0.94480  Biso   1.000  C
  C362     1.0000 0.88600  0.10950  0.90420  Biso   1.000  C
  C363     1.0000 0.91270  0.17640  0.92640  Biso   1.000  C
  C364     1.0000 0.97450  0.22080  0.98160  Biso   1.000  C
  C365     1.0000 0.01220  0.19820  0.01360  Biso   1.000  C
  C366     1.0000 0.98110  0.13240  0.99800  Biso   1.000  C
  N1       1.0000 0.35500  0.44980  0.99910  Biso   1.000  N
  N2       1.0000 0.39540  0.74460  0.24860  Biso   1.000  N
  N3       1.0000 0.69900  0.70740  0.30800  Biso   1.000  N
  N4       1.0000 0.44910  0.49300  0.34750  Biso   1.000  N
  N5       1.0000 0.50860  0.46630  0.87310  Biso   1.000  N
  N6       1.0000 0.39270  0.26240  0.73630  Biso   1.000  N
  N7       1.0000 0.48270  0.32780  0.94390  Biso   1.000  N
  N8       1.0000 0.19490  0.31050  0.22140  Biso   1.000  N
  N9       1.0000 0.99910  0.35500  0.44980  Biso   1.000  N
  N10      1.0000 0.24860  0.39540  0.74460  Biso   1.000  N
  N11      1.0000 0.30800  0.69900  0.70740  Biso   1.000  N
  N12      1.0000 0.34750  0.44910  0.49300  Biso   1.000  N
  N13      1.0000 0.87310  0.50860  0.46630  Biso   1.000  N
  N14      1.0000 0.73630  0.39270  0.26240  Biso   1.000  N
  N15      1.0000 0.94390  0.48270  0.32780  Biso   1.000  N
  N16      1.0000 0.22140  0.19490  0.31050  Biso   1.000  N
  N17      1.0000 0.44980  0.99910  0.35500  Biso   1.000  N
  N18      1.0000 0.74460  0.24860  0.39540  Biso   1.000  N
  N19      1.0000 0.70740  0.30800  0.69900  Biso   1.000  N
  N20      1.0000 0.49300  0.34750  0.44910  Biso   1.000  N
  N21      1.0000 0.46630  0.87310  0.50860  Biso   1.000  N
  N22      1.0000 0.26240  0.73630  0.39270  Biso   1.000  N
  N23      1.0000 0.32780  0.94390  0.48270  Biso   1.000  N
  N24      1.0000 0.31050  0.22140  0.19490  Biso   1.000  N
  N25      1.0000 0.94980  0.85500  0.49910  Biso   1.000  N
  N26      1.0000 0.24460  0.89540  0.74860  Biso   1.000  N
  N27      1.0000 0.20740  0.19900  0.80800  Biso   1.000  N
  N28      1.0000 0.99300  0.94910  0.84750  Biso   1.000  N
  N29      1.0000 0.96630  0.00860  0.37310  Biso   1.000  N
  N30      1.0000 0.76240  0.89270  0.23630  Biso   1.000  N
  N31      1.0000 0.82780  0.98270  0.44390  Biso   1.000  N
  N32      1.0000 0.81050  0.69490  0.72140  Biso   1.000  N
  N33      1.0000 0.85500  0.49910  0.94980  Biso   1.000  N
  N34      1.0000 0.89540  0.74860  0.24460  Biso   1.000  N
  N35      1.0000 0.19900  0.80800  0.20740  Biso   1.000  N
  N36      1.0000 0.94910  0.84750  0.99300  Biso   1.000  N
  N37      1.0000 0.00860  0.37310  0.96630  Biso   1.000  N
  N38      1.0000 0.89270  0.23630  0.76240  Biso   1.000  N
  N39      1.0000 0.98270  0.44390  0.82780  Biso   1.000  N
  N40      1.0000 0.69490  0.72140  0.81050  Biso   1.000  N
  N41      1.0000 0.49910  0.94980  0.85500  Biso   1.000  N
  N42      1.0000 0.74860  0.24460  0.89540  Biso   1.000  N
  N43      1.0000 0.80800  0.20740  0.19900  Biso   1.000  N
  N44      1.0000 0.84750  0.99300  0.94910  Biso   1.000  N
  N45      1.0000 0.37310  0.96630  0.00860  Biso   1.000  N
  N46      1.0000 0.23630  0.76240  0.89270  Biso   1.000  N
  N47      1.0000 0.44390  0.82780  0.98270  Biso   1.000  N
  N48      1.0000 0.72140  0.81050  0.69490  Biso   1.000  N
  O1       1.0000 0.45530  0.58360  0.11390  Biso   1.000  O
  O2       1.0000 0.38360  0.61990  0.22580  Biso   1.000  O
  O3       1.0000 0.58920  0.69080  0.32280  Biso   1.000  O
  O4       1.0000 0.48040  0.51170  0.24680  Biso   1.000  O
  O5       1.0000 0.39520  0.43250  0.93000  Biso   1.000  O
  O6       1.0000 0.34820  0.77270  0.31420  Biso   1.000  O
  O7       1.0000 0.77780  0.81880  0.35630  Biso   1.000  O
  O8       1.0000 0.39030  0.38510  0.30720  Biso   1.000  O
  O9       1.0000 0.51970  0.43960  0.90940  Biso   1.000  O
  O10      1.0000 0.44740  0.45020  0.83730  Biso   1.000  O
  O11      1.0000 0.55440  0.51990  0.88620  Biso   1.000  O
  O12      1.0000 0.35250  0.24090  0.75540  Biso   1.000  O
  O13      1.0000 0.43770  0.32480  0.77020  Biso   1.000  O
  O14      1.0000 0.39320  0.22230  0.68740  Biso   1.000  O
  O15      1.0000 0.46190  0.29570  0.88130  Biso   1.000  O
  O16      1.0000 0.46060  0.36640  0.96430  Biso   1.000  O
  O17      1.0000 0.52250  0.31980  0.98470  Biso   1.000  O
  O18      1.0000 0.25520  0.35270  0.24250  Biso   1.000  O
  O19      1.0000 0.18500  0.26770  0.24110  Biso   1.000  O
  O20      1.0000 0.14850  0.32150  0.19440  Biso   1.000  O
  O21      1.0000 0.11390  0.45530  0.58360  Biso   1.000  O
  O22      1.0000 0.22580  0.38360  0.61990  Biso   1.000  O
  O23      1.0000 0.32280  0.58920  0.69080  Biso   1.000  O
  O24      1.0000 0.24680  0.48040  0.51170  Biso   1.000  O
  O25      1.0000 0.93000  0.39520  0.43250  Biso   1.000  O
  O26      1.0000 0.31420  0.34820  0.77270  Biso   1.000  O
  O27      1.0000 0.35630  0.77780  0.81880  Biso   1.000  O
  O28      1.0000 0.30720  0.39030  0.38510  Biso   1.000  O
  O29      1.0000 0.90940  0.51970  0.43960  Biso   1.000  O
  O30      1.0000 0.83730  0.44740  0.45020  Biso   1.000  O
  O31      1.0000 0.88620  0.55440  0.51990  Biso   1.000  O
  O32      1.0000 0.75540  0.35250  0.24090  Biso   1.000  O
  O33      1.0000 0.77020  0.43770  0.32480  Biso   1.000  O
  O34      1.0000 0.68740  0.39320  0.22230  Biso   1.000  O
  O35      1.0000 0.88130  0.46190  0.29570  Biso   1.000  O
  O36      1.0000 0.96430  0.46060  0.36640  Biso   1.000  O
  O37      1.0000 0.98470  0.52250  0.31980  Biso   1.000  O
  O38      1.0000 0.24250  0.25520  0.35270  Biso   1.000  O
  O39      1.0000 0.24110  0.18500  0.26770  Biso   1.000  O
  O40      1.0000 0.19440  0.14850  0.32150  Biso   1.000  O
  O41      1.0000 0.58360  0.11390  0.45530  Biso   1.000  O
  O42      1.0000 0.61990  0.22580  0.38360  Biso   1.000  O
  O43      1.0000 0.69080  0.32280  0.58920  Biso   1.000  O
  O44      1.0000 0.51170  0.24680  0.48040  Biso   1.000  O
  O45      1.0000 0.43250  0.93000  0.39520  Biso   1.000  O
  O46      1.0000 0.77270  0.31420  0.34820  Biso   1.000  O
  O47      1.0000 0.81880  0.35630  0.77780  Biso   1.000  O
  O48      1.0000 0.38510  0.30720  0.39030  Biso   1.000  O
  O49      1.0000 0.43960  0.90940  0.51970  Biso   1.000  O
  O50      1.0000 0.45020  0.83730  0.44740  Biso   1.000  O
  O51      1.0000 0.51990  0.88620  0.55440  Biso   1.000  O
  O52      1.0000 0.24090  0.75540  0.35250  Biso   1.000  O
  O53      1.0000 0.32480  0.77020  0.43770  Biso   1.000  O
  O54      1.0000 0.22230  0.68740  0.39320  Biso   1.000  O
  O55      1.0000 0.29570  0.88130  0.46190  Biso   1.000  O
  O56      1.0000 0.36640  0.96430  0.46060  Biso   1.000  O
  O57      1.0000 0.31980  0.98470  0.52250  Biso   1.000  O
  O58      1.0000 0.35270  0.24250  0.25520  Biso   1.000  O
  O59      1.0000 0.26770  0.24110  0.18500  Biso   1.000  O
  O60      1.0000 0.32150  0.19440  0.14850  Biso   1.000  O
  O61      1.0000 0.08360  0.95530  0.61390  Biso   1.000  O
  O62      1.0000 0.11990  0.88360  0.72580  Biso   1.000  O
  O63      1.0000 0.19080  0.08920  0.82280  Biso   1.000  O
  O64      1.0000 0.01170  0.98040  0.74680  Biso   1.000  O
  O65      1.0000 0.93250  0.89520  0.43000  Biso   1.000  O
  O66      1.0000 0.27270  0.84820  0.81420  Biso   1.000  O
  O67      1.0000 0.31880  0.27780  0.85630  Biso   1.000  O
  O68      1.0000 0.88510  0.89030  0.80720  Biso   1.000  O
  O69      1.0000 0.93960  0.01970  0.40940  Biso   1.000  O
  O70      1.0000 0.95020  0.94740  0.33730  Biso   1.000  O
  O71      1.0000 0.01990  0.05440  0.38620  Biso   1.000  O
  O72      1.0000 0.74090  0.85250  0.25540  Biso   1.000  O
  O73      1.0000 0.82480  0.93770  0.27020  Biso   1.000  O
  O74      1.0000 0.72230  0.89320  0.18740  Biso   1.000  O
  O75      1.0000 0.79570  0.96190  0.38130  Biso   1.000  O
  O76      1.0000 0.86640  0.96060  0.46430  Biso   1.000  O
  O77      1.0000 0.81980  0.02250  0.48470  Biso   1.000  O
  O78      1.0000 0.85270  0.75520  0.74250  Biso   1.000  O
  O79      1.0000 0.76770  0.68500  0.74110  Biso   1.000  O
  O80      1.0000 0.82150  0.64850  0.69440  Biso   1.000  O
  O81      1.0000 0.95530  0.61390  0.08360  Biso   1.000  O
  O82      1.0000 0.88360  0.72580  0.11990  Biso   1.000  O
  O83      1.0000 0.08920  0.82280  0.19080  Biso   1.000  O
  O84      1.0000 0.98040  0.74680  0.01170  Biso   1.000  O
  O85      1.0000 0.89520  0.43000  0.93250  Biso   1.000  O
  O86      1.0000 0.84820  0.81420  0.27270  Biso   1.000  O
  O87      1.0000 0.27780  0.85630  0.31880  Biso   1.000  O
  O88      1.0000 0.89030  0.80720  0.88510  Biso   1.000  O
  O89      1.0000 0.01970  0.40940  0.93960  Biso   1.000  O
  O90      1.0000 0.94740  0.33730  0.95020  Biso   1.000  O
  O91      1.0000 0.05440  0.38620  0.01990  Biso   1.000  O
  O92      1.0000 0.85250  0.25540  0.74090  Biso   1.000  O
  O93      1.0000 0.93770  0.27020  0.82480  Biso   1.000  O
  O94      1.0000 0.89320  0.18740  0.72230  Biso   1.000  O
  O95      1.0000 0.96190  0.38130  0.79570  Biso   1.000  O
  O96      1.0000 0.96060  0.46430  0.86640  Biso   1.000  O
  O97      1.0000 0.02250  0.48470  0.81980  Biso   1.000  O
  O98      1.0000 0.75520  0.74250  0.85270  Biso   1.000  O
  O99      1.0000 0.68500  0.74110  0.76770  Biso   1.000  O
  O100     1.0000 0.64850  0.69440  0.82150  Biso   1.000  O
  O101     1.0000 0.61390  0.08360  0.95530  Biso   1.000  O
  O102     1.0000 0.72580  0.11990  0.88360  Biso   1.000  O
  O103     1.0000 0.82280  0.19080  0.08920  Biso   1.000  O
  O104     1.0000 0.74680  0.01170  0.98040  Biso   1.000  O
  O105     1.0000 0.43000  0.93250  0.89520  Biso   1.000  O
  O106     1.0000 0.81420  0.27270  0.84820  Biso   1.000  O
  O107     1.0000 0.85630  0.31880  0.27780  Biso   1.000  O
  O108     1.0000 0.80720  0.88510  0.89030  Biso   1.000  O
  O109     1.0000 0.40940  0.93960  0.01970  Biso   1.000  O
  O110     1.0000 0.33730  0.95020  0.94740  Biso   1.000  O
  O111     1.0000 0.38620  0.01990  0.05440  Biso   1.000  O
  O112     1.0000 0.25540  0.74090  0.85250  Biso   1.000  O
  O113     1.0000 0.27020  0.82480  0.93770  Biso   1.000  O
  O114     1.0000 0.18740  0.72230  0.89320  Biso   1.000  O
  O115     1.0000 0.38130  0.79570  0.96190  Biso   1.000  O
  O116     1.0000 0.46430  0.86640  0.96060  Biso   1.000  O
  O117     1.0000 0.48470  0.81980  0.02250  Biso   1.000  O
  O118     1.0000 0.74250  0.85270  0.75520  Biso   1.000  O
  O119     1.0000 0.74110  0.76770  0.68500  Biso   1.000  O
  O120     1.0000 0.69440  0.82150  0.64850  Biso   1.000  O
