data_image0
_cell_length_a       26.055
_cell_length_b       26.055
_cell_length_c       35.842
_cell_angle_alpha    90
_cell_angle_beta     90
_cell_angle_gamma    120

_symmetry_space_group_name_H-M    P 1
_symmetry_int_tables_number       1

loop_
  _symmetry_equiv_pos_as_xyz
  'x, y, z'

loop_
  _atom_site_label
  _atom_site_occupancy
  _atom_site_fract_x
  _atom_site_fract_y
  _atom_site_fract_z
  _atom_site_thermal_displace_type
  _atom_site_B_iso_or_equiv
  _atom_site_type_symbol
  Zn1      1.0000 0.86085  0.31515  0.94488  Biso   1.000  Zn
  Zn2      1.0000 0.74485  0.33310  0.96486  Biso   1.000  Zn
  Zn3      1.0000 0.45430  0.13915  0.94488  Biso   1.000  Zn
  Zn4      1.0000 0.58825  0.25515  0.96486  Biso   1.000  Zn
  Zn5      1.0000 0.68485  0.54570  0.94488  Biso   1.000  Zn
  Zn6      1.0000 0.66690  0.41175  0.96486  Biso   1.000  Zn
  Zn7      1.0000 0.13915  0.68485  0.44488  Biso   1.000  Zn
  Zn8      1.0000 0.25515  0.66690  0.46486  Biso   1.000  Zn
  Zn9      1.0000 0.54570  0.86085  0.44488  Biso   1.000  Zn
  Zn10     1.0000 0.41175  0.74485  0.46486  Biso   1.000  Zn
  Zn11     1.0000 0.31515  0.45430  0.44488  Biso   1.000  Zn
  Zn12     1.0000 0.33310  0.58825  0.46486  Biso   1.000  Zn
  Zn13     1.0000 0.54570  0.68485  0.55512  Biso   1.000  Zn
  Zn14     1.0000 0.41175  0.66690  0.53514  Biso   1.000  Zn
  Zn15     1.0000 0.31515  0.86085  0.55512  Biso   1.000  Zn
  Zn16     1.0000 0.33310  0.74485  0.53514  Biso   1.000  Zn
  Zn17     1.0000 0.13915  0.45430  0.55512  Biso   1.000  Zn
  Zn18     1.0000 0.25515  0.58825  0.53514  Biso   1.000  Zn
  Zn19     1.0000 0.45430  0.31515  0.05512  Biso   1.000  Zn
  Zn20     1.0000 0.58825  0.33310  0.03514  Biso   1.000  Zn
  Zn21     1.0000 0.68485  0.13915  0.05512  Biso   1.000  Zn
  Zn22     1.0000 0.66690  0.25515  0.03514  Biso   1.000  Zn
  Zn23     1.0000 0.86085  0.54570  0.05512  Biso   1.000  Zn
  Zn24     1.0000 0.74485  0.41175  0.03514  Biso   1.000  Zn
  Zn25     1.0000 0.13915  0.68485  0.05512  Biso   1.000  Zn
  Zn26     1.0000 0.25515  0.66690  0.03514  Biso   1.000  Zn
  Zn27     1.0000 0.54570  0.86085  0.05512  Biso   1.000  Zn
  Zn28     1.0000 0.41175  0.74485  0.03514  Biso   1.000  Zn
  Zn29     1.0000 0.31515  0.45430  0.05512  Biso   1.000  Zn
  Zn30     1.0000 0.33310  0.58825  0.03514  Biso   1.000  Zn
  Zn31     1.0000 0.86085  0.31515  0.55512  Biso   1.000  Zn
  Zn32     1.0000 0.74485  0.33310  0.53514  Biso   1.000  Zn
  Zn33     1.0000 0.45430  0.13915  0.55512  Biso   1.000  Zn
  Zn34     1.0000 0.58825  0.25515  0.53514  Biso   1.000  Zn
  Zn35     1.0000 0.68485  0.54570  0.55512  Biso   1.000  Zn
  Zn36     1.0000 0.66690  0.41175  0.53514  Biso   1.000  Zn
  Zn37     1.0000 0.45430  0.31515  0.44488  Biso   1.000  Zn
  Zn38     1.0000 0.58825  0.33310  0.46486  Biso   1.000  Zn
  Zn39     1.0000 0.68485  0.13915  0.44488  Biso   1.000  Zn
  Zn40     1.0000 0.66690  0.25515  0.46486  Biso   1.000  Zn
  Zn41     1.0000 0.86085  0.54570  0.44488  Biso   1.000  Zn
  Zn42     1.0000 0.74485  0.41175  0.46486  Biso   1.000  Zn
  Zn43     1.0000 0.54570  0.68485  0.94488  Biso   1.000  Zn
  Zn44     1.0000 0.41175  0.66690  0.96486  Biso   1.000  Zn
  Zn45     1.0000 0.31515  0.86085  0.94488  Biso   1.000  Zn
  Zn46     1.0000 0.33310  0.74485  0.96486  Biso   1.000  Zn
  Zn47     1.0000 0.13915  0.45430  0.94488  Biso   1.000  Zn
  Zn48     1.0000 0.25515  0.58825  0.96486  Biso   1.000  Zn
  Zn49     1.0000 0.00000  0.33990  0.93730  Biso   1.000  Zn
  Zn50     1.0000 0.33990  0.00000  0.93730  Biso   1.000  Zn
  Zn51     1.0000 0.66010  0.66010  0.93730  Biso   1.000  Zn
  Zn52     1.0000 0.00000  0.66010  0.43730  Biso   1.000  Zn
  Zn53     1.0000 0.66010  0.00000  0.43730  Biso   1.000  Zn
  Zn54     1.0000 0.33990  0.33990  0.43730  Biso   1.000  Zn
  Zn55     1.0000 0.66010  0.66010  0.56270  Biso   1.000  Zn
  Zn56     1.0000 0.33990  0.00000  0.56270  Biso   1.000  Zn
  Zn57     1.0000 0.00000  0.33990  0.56270  Biso   1.000  Zn
  Zn58     1.0000 0.33990  0.33990  0.06270  Biso   1.000  Zn
  Zn59     1.0000 0.66010  0.00000  0.06270  Biso   1.000  Zn
  Zn60     1.0000 0.00000  0.66010  0.06270  Biso   1.000  Zn
  H1       1.0000 0.77460  0.12540  0.95700  Biso   1.000  H
  H2       1.0000 0.94350  0.16140  0.94560  Biso   1.000  H
  H3       1.0000 0.91180  0.05940  0.94840  Biso   1.000  H
  H4       1.0000 0.83870  0.31020  0.83080  Biso   1.000  H
  H5       1.0000 0.74150  0.41420  0.78960  Biso   1.000  H
  H6       1.0000 0.74620  0.39440  0.85330  Biso   1.000  H
  H7       1.0000 0.82920  0.29640  0.02230  Biso   1.000  H
  H8       1.0000 0.86590  0.36520  0.02210  Biso   1.000  H
  H9       1.0000 0.81460  0.36890  0.05980  Biso   1.000  H
  H10      1.0000 0.77920  0.29950  0.06110  Biso   1.000  H
  H11      1.0000 0.95570  0.42870  0.98430  Biso   1.000  H
  H12      1.0000 0.95570  0.44590  0.94250  Biso   1.000  H
  H13      1.0000 0.96870  0.30470  0.86400  Biso   1.000  H
  H14      1.0000 0.35080  0.22540  0.95700  Biso   1.000  H
  H15      1.0000 0.21790  0.05650  0.94560  Biso   1.000  H
  H16      1.0000 0.14760  0.08820  0.94840  Biso   1.000  H
  H17      1.0000 0.47150  0.16130  0.83080  Biso   1.000  H
  H18      1.0000 0.67270  0.25850  0.78960  Biso   1.000  H
  H19      1.0000 0.64820  0.25380  0.85330  Biso   1.000  H
  H20      1.0000 0.46720  0.17080  0.02230  Biso   1.000  H
  H21      1.0000 0.49930  0.13410  0.02210  Biso   1.000  H
  H22      1.0000 0.55430  0.18540  0.05980  Biso   1.000  H
  H23      1.0000 0.52030  0.22080  0.06110  Biso   1.000  H
  H24      1.0000 0.47300  0.04430  0.98430  Biso   1.000  H
  H25      1.0000 0.49020  0.04430  0.94250  Biso   1.000  H
  H26      1.0000 0.33600  0.03130  0.86400  Biso   1.000  H
  H27      1.0000 0.87460  0.64920  0.95700  Biso   1.000  H
  H28      1.0000 0.83860  0.78210  0.94560  Biso   1.000  H
  H29      1.0000 0.94060  0.85240  0.94840  Biso   1.000  H
  H30      1.0000 0.68980  0.52850  0.83080  Biso   1.000  H
  H31      1.0000 0.58580  0.32730  0.78960  Biso   1.000  H
  H32      1.0000 0.60560  0.35180  0.85330  Biso   1.000  H
  H33      1.0000 0.70360  0.53280  0.02230  Biso   1.000  H
  H34      1.0000 0.63480  0.50070  0.02210  Biso   1.000  H
  H35      1.0000 0.63110  0.44570  0.05980  Biso   1.000  H
  H36      1.0000 0.70050  0.47970  0.06110  Biso   1.000  H
  H37      1.0000 0.57130  0.52700  0.98430  Biso   1.000  H
  H38      1.0000 0.55410  0.50980  0.94250  Biso   1.000  H
  H39      1.0000 0.69530  0.66400  0.86400  Biso   1.000  H
  H40      1.0000 0.22540  0.87460  0.45700  Biso   1.000  H
  H41      1.0000 0.05650  0.83860  0.44560  Biso   1.000  H
  H42      1.0000 0.08820  0.94060  0.44840  Biso   1.000  H
  H43      1.0000 0.16130  0.68980  0.33080  Biso   1.000  H
  H44      1.0000 0.25850  0.58580  0.28960  Biso   1.000  H
  H45      1.0000 0.25380  0.60560  0.35330  Biso   1.000  H
  H46      1.0000 0.17080  0.70360  0.52230  Biso   1.000  H
  H47      1.0000 0.13410  0.63480  0.52210  Biso   1.000  H
  H48      1.0000 0.18540  0.63110  0.55980  Biso   1.000  H
  H49      1.0000 0.22080  0.70050  0.56110  Biso   1.000  H
  H50      1.0000 0.04430  0.57130  0.48430  Biso   1.000  H
  H51      1.0000 0.04430  0.55410  0.44250  Biso   1.000  H
  H52      1.0000 0.03130  0.69530  0.36400  Biso   1.000  H
  H53      1.0000 0.64920  0.77460  0.45700  Biso   1.000  H
  H54      1.0000 0.78210  0.94350  0.44560  Biso   1.000  H
  H55      1.0000 0.85240  0.91180  0.44840  Biso   1.000  H
  H56      1.0000 0.52850  0.83870  0.33080  Biso   1.000  H
  H57      1.0000 0.32730  0.74150  0.28960  Biso   1.000  H
  H58      1.0000 0.35180  0.74620  0.35330  Biso   1.000  H
  H59      1.0000 0.53280  0.82920  0.52230  Biso   1.000  H
  H60      1.0000 0.50070  0.86590  0.52210  Biso   1.000  H
  H61      1.0000 0.44570  0.81460  0.55980  Biso   1.000  H
  H62      1.0000 0.47970  0.77920  0.56110  Biso   1.000  H
  H63      1.0000 0.52700  0.95570  0.48430  Biso   1.000  H
  H64      1.0000 0.50980  0.95570  0.44250  Biso   1.000  H
  H65      1.0000 0.66400  0.96870  0.36400  Biso   1.000  H
  H66      1.0000 0.12540  0.35080  0.45700  Biso   1.000  H
  H67      1.0000 0.16140  0.21790  0.44560  Biso   1.000  H
  H68      1.0000 0.05940  0.14760  0.44840  Biso   1.000  H
  H69      1.0000 0.31020  0.47150  0.33080  Biso   1.000  H
  H70      1.0000 0.41420  0.67270  0.28960  Biso   1.000  H
  H71      1.0000 0.39440  0.64820  0.35330  Biso   1.000  H
  H72      1.0000 0.29640  0.46720  0.52230  Biso   1.000  H
  H73      1.0000 0.36520  0.49930  0.52210  Biso   1.000  H
  H74      1.0000 0.36890  0.55430  0.55980  Biso   1.000  H
  H75      1.0000 0.29950  0.52030  0.56110  Biso   1.000  H
  H76      1.0000 0.42870  0.47300  0.48430  Biso   1.000  H
  H77      1.0000 0.44590  0.49020  0.44250  Biso   1.000  H
  H78      1.0000 0.30470  0.33600  0.36400  Biso   1.000  H
  H79      1.0000 0.64920  0.87460  0.54300  Biso   1.000  H
  H80      1.0000 0.78210  0.83860  0.55440  Biso   1.000  H
  H81      1.0000 0.85240  0.94060  0.55160  Biso   1.000  H
  H82      1.0000 0.52850  0.68980  0.66920  Biso   1.000  H
  H83      1.0000 0.32730  0.58580  0.71040  Biso   1.000  H
  H84      1.0000 0.35180  0.60560  0.64670  Biso   1.000  H
  H85      1.0000 0.53280  0.70360  0.47770  Biso   1.000  H
  H86      1.0000 0.50070  0.63480  0.47790  Biso   1.000  H
  H87      1.0000 0.44570  0.63110  0.44020  Biso   1.000  H
  H88      1.0000 0.47970  0.70050  0.43890  Biso   1.000  H
  H89      1.0000 0.52700  0.57130  0.51570  Biso   1.000  H
  H90      1.0000 0.50980  0.55410  0.55750  Biso   1.000  H
  H91      1.0000 0.66400  0.69530  0.63600  Biso   1.000  H
  H92      1.0000 0.12540  0.77460  0.54300  Biso   1.000  H
  H93      1.0000 0.16140  0.94350  0.55440  Biso   1.000  H
  H94      1.0000 0.05940  0.91180  0.55160  Biso   1.000  H
  H95      1.0000 0.31020  0.83870  0.66920  Biso   1.000  H
  H96      1.0000 0.41420  0.74150  0.71040  Biso   1.000  H
  H97      1.0000 0.39440  0.74620  0.64670  Biso   1.000  H
  H98      1.0000 0.29640  0.82920  0.47770  Biso   1.000  H
  H99      1.0000 0.36520  0.86590  0.47790  Biso   1.000  H
  H100     1.0000 0.36890  0.81460  0.44020  Biso   1.000  H
  H101     1.0000 0.29950  0.77920  0.43890  Biso   1.000  H
  H102     1.0000 0.42870  0.95570  0.51570  Biso   1.000  H
  H103     1.0000 0.44590  0.95570  0.55750  Biso   1.000  H
  H104     1.0000 0.30470  0.96870  0.63600  Biso   1.000  H
  H105     1.0000 0.22540  0.35080  0.54300  Biso   1.000  H
  H106     1.0000 0.05650  0.21790  0.55440  Biso   1.000  H
  H107     1.0000 0.08820  0.14760  0.55160  Biso   1.000  H
  H108     1.0000 0.16130  0.47150  0.66920  Biso   1.000  H
  H109     1.0000 0.25850  0.67270  0.71040  Biso   1.000  H
  H110     1.0000 0.25380  0.64820  0.64670  Biso   1.000  H
  H111     1.0000 0.17080  0.46720  0.47770  Biso   1.000  H
  H112     1.0000 0.13410  0.49930  0.47790  Biso   1.000  H
  H113     1.0000 0.18540  0.55430  0.44020  Biso   1.000  H
  H114     1.0000 0.22080  0.52030  0.43890  Biso   1.000  H
  H115     1.0000 0.04430  0.47300  0.51570  Biso   1.000  H
  H116     1.0000 0.04430  0.49020  0.55750  Biso   1.000  H
  H117     1.0000 0.03130  0.33600  0.63600  Biso   1.000  H
  H118     1.0000 0.35080  0.12540  0.04300  Biso   1.000  H
  H119     1.0000 0.21790  0.16140  0.05440  Biso   1.000  H
  H120     1.0000 0.14760  0.05940  0.05160  Biso   1.000  H
  H121     1.0000 0.47150  0.31020  0.16920  Biso   1.000  H
  H122     1.0000 0.67270  0.41420  0.21040  Biso   1.000  H
  H123     1.0000 0.64820  0.39440  0.14670  Biso   1.000  H
  H124     1.0000 0.46720  0.29640  0.97770  Biso   1.000  H
  H125     1.0000 0.49930  0.36520  0.97790  Biso   1.000  H
  H126     1.0000 0.55430  0.36890  0.94020  Biso   1.000  H
  H127     1.0000 0.52030  0.29950  0.93890  Biso   1.000  H
  H128     1.0000 0.47300  0.42870  0.01570  Biso   1.000  H
  H129     1.0000 0.49020  0.44590  0.05750  Biso   1.000  H
  H130     1.0000 0.33600  0.30470  0.13600  Biso   1.000  H
  H131     1.0000 0.87460  0.22540  0.04300  Biso   1.000  H
  H132     1.0000 0.83860  0.05650  0.05440  Biso   1.000  H
  H133     1.0000 0.94060  0.08820  0.05160  Biso   1.000  H
  H134     1.0000 0.68980  0.16130  0.16920  Biso   1.000  H
  H135     1.0000 0.58580  0.25850  0.21040  Biso   1.000  H
  H136     1.0000 0.60560  0.25380  0.14670  Biso   1.000  H
  H137     1.0000 0.70360  0.17080  0.97770  Biso   1.000  H
  H138     1.0000 0.63480  0.13410  0.97790  Biso   1.000  H
  H139     1.0000 0.63110  0.18540  0.94020  Biso   1.000  H
  H140     1.0000 0.70050  0.22080  0.93890  Biso   1.000  H
  H141     1.0000 0.57130  0.04430  0.01570  Biso   1.000  H
  H142     1.0000 0.55410  0.04430  0.05750  Biso   1.000  H
  H143     1.0000 0.69530  0.03130  0.13600  Biso   1.000  H
  H144     1.0000 0.77460  0.64920  0.04300  Biso   1.000  H
  H145     1.0000 0.94350  0.78210  0.05440  Biso   1.000  H
  H146     1.0000 0.91180  0.85240  0.05160  Biso   1.000  H
  H147     1.0000 0.83870  0.52850  0.16920  Biso   1.000  H
  H148     1.0000 0.74150  0.32730  0.21040  Biso   1.000  H
  H149     1.0000 0.74620  0.35180  0.14670  Biso   1.000  H
  H150     1.0000 0.82920  0.53280  0.97770  Biso   1.000  H
  H151     1.0000 0.86590  0.50070  0.97790  Biso   1.000  H
  H152     1.0000 0.81460  0.44570  0.94020  Biso   1.000  H
  H153     1.0000 0.77920  0.47970  0.93890  Biso   1.000  H
  H154     1.0000 0.95570  0.52700  0.01570  Biso   1.000  H
  H155     1.0000 0.95570  0.50980  0.05750  Biso   1.000  H
  H156     1.0000 0.96870  0.66400  0.13600  Biso   1.000  H
  H157     1.0000 0.22540  0.87460  0.04300  Biso   1.000  H
  H158     1.0000 0.05650  0.83860  0.05440  Biso   1.000  H
  H159     1.0000 0.08820  0.94060  0.05160  Biso   1.000  H
  H160     1.0000 0.16130  0.68980  0.16920  Biso   1.000  H
  H161     1.0000 0.25850  0.58580  0.21040  Biso   1.000  H
  H162     1.0000 0.25380  0.60560  0.14670  Biso   1.000  H
  H163     1.0000 0.17080  0.70360  0.97770  Biso   1.000  H
  H164     1.0000 0.13410  0.63480  0.97790  Biso   1.000  H
  H165     1.0000 0.18540  0.63110  0.94020  Biso   1.000  H
  H166     1.0000 0.22080  0.70050  0.93890  Biso   1.000  H
  H167     1.0000 0.04430  0.57130  0.01570  Biso   1.000  H
  H168     1.0000 0.04430  0.55410  0.05750  Biso   1.000  H
  H169     1.0000 0.03130  0.69530  0.13600  Biso   1.000  H
  H170     1.0000 0.64920  0.77460  0.04300  Biso   1.000  H
  H171     1.0000 0.78210  0.94350  0.05440  Biso   1.000  H
  H172     1.0000 0.85240  0.91180  0.05160  Biso   1.000  H
  H173     1.0000 0.52850  0.83870  0.16920  Biso   1.000  H
  H174     1.0000 0.32730  0.74150  0.21040  Biso   1.000  H
  H175     1.0000 0.35180  0.74620  0.14670  Biso   1.000  H
  H176     1.0000 0.53280  0.82920  0.97770  Biso   1.000  H
  H177     1.0000 0.50070  0.86590  0.97790  Biso   1.000  H
  H178     1.0000 0.44570  0.81460  0.94020  Biso   1.000  H
  H179     1.0000 0.47970  0.77920  0.93890  Biso   1.000  H
  H180     1.0000 0.52700  0.95570  0.01570  Biso   1.000  H
  H181     1.0000 0.50980  0.95570  0.05750  Biso   1.000  H
  H182     1.0000 0.66400  0.96870  0.13600  Biso   1.000  H
  H183     1.0000 0.12540  0.35080  0.04300  Biso   1.000  H
  H184     1.0000 0.16140  0.21790  0.05440  Biso   1.000  H
  H185     1.0000 0.05940  0.14760  0.05160  Biso   1.000  H
  H186     1.0000 0.31020  0.47150  0.16920  Biso   1.000  H
  H187     1.0000 0.41420  0.67270  0.21040  Biso   1.000  H
  H188     1.0000 0.39440  0.64820  0.14670  Biso   1.000  H
  H189     1.0000 0.29640  0.46720  0.97770  Biso   1.000  H
  H190     1.0000 0.36520  0.49930  0.97790  Biso   1.000  H
  H191     1.0000 0.36890  0.55430  0.94020  Biso   1.000  H
  H192     1.0000 0.29950  0.52030  0.93890  Biso   1.000  H
  H193     1.0000 0.42870  0.47300  0.01570  Biso   1.000  H
  H194     1.0000 0.44590  0.49020  0.05750  Biso   1.000  H
  H195     1.0000 0.30470  0.33600  0.13600  Biso   1.000  H
  H196     1.0000 0.77460  0.12540  0.54300  Biso   1.000  H
  H197     1.0000 0.94350  0.16140  0.55440  Biso   1.000  H
  H198     1.0000 0.91180  0.05940  0.55160  Biso   1.000  H
  H199     1.0000 0.83870  0.31020  0.66920  Biso   1.000  H
  H200     1.0000 0.74150  0.41420  0.71040  Biso   1.000  H
  H201     1.0000 0.74620  0.39440  0.64670  Biso   1.000  H
  H202     1.0000 0.82920  0.29640  0.47770  Biso   1.000  H
  H203     1.0000 0.86590  0.36520  0.47790  Biso   1.000  H
  H204     1.0000 0.81460  0.36890  0.44020  Biso   1.000  H
  H205     1.0000 0.77920  0.29950  0.43890  Biso   1.000  H
  H206     1.0000 0.95570  0.42870  0.51570  Biso   1.000  H
  H207     1.0000 0.95570  0.44590  0.55750  Biso   1.000  H
  H208     1.0000 0.96870  0.30470  0.63600  Biso   1.000  H
  H209     1.0000 0.35080  0.22540  0.54300  Biso   1.000  H
  H210     1.0000 0.21790  0.05650  0.55440  Biso   1.000  H
  H211     1.0000 0.14760  0.08820  0.55160  Biso   1.000  H
  H212     1.0000 0.47150  0.16130  0.66920  Biso   1.000  H
  H213     1.0000 0.67270  0.25850  0.71040  Biso   1.000  H
  H214     1.0000 0.64820  0.25380  0.64670  Biso   1.000  H
  H215     1.0000 0.46720  0.17080  0.47770  Biso   1.000  H
  H216     1.0000 0.49930  0.13410  0.47790  Biso   1.000  H
  H217     1.0000 0.55430  0.18540  0.44020  Biso   1.000  H
  H218     1.0000 0.52030  0.22080  0.43890  Biso   1.000  H
  H219     1.0000 0.47300  0.04430  0.51570  Biso   1.000  H
  H220     1.0000 0.49020  0.04430  0.55750  Biso   1.000  H
  H221     1.0000 0.33600  0.03130  0.63600  Biso   1.000  H
  H222     1.0000 0.87460  0.64920  0.54300  Biso   1.000  H
  H223     1.0000 0.83860  0.78210  0.55440  Biso   1.000  H
  H224     1.0000 0.94060  0.85240  0.55160  Biso   1.000  H
  H225     1.0000 0.68980  0.52850  0.66920  Biso   1.000  H
  H226     1.0000 0.58580  0.32730  0.71040  Biso   1.000  H
  H227     1.0000 0.60560  0.35180  0.64670  Biso   1.000  H
  H228     1.0000 0.70360  0.53280  0.47770  Biso   1.000  H
  H229     1.0000 0.63480  0.50070  0.47790  Biso   1.000  H
  H230     1.0000 0.63110  0.44570  0.44020  Biso   1.000  H
  H231     1.0000 0.70050  0.47970  0.43890  Biso   1.000  H
  H232     1.0000 0.57130  0.52700  0.51570  Biso   1.000  H
  H233     1.0000 0.55410  0.50980  0.55750  Biso   1.000  H
  H234     1.0000 0.69530  0.66400  0.63600  Biso   1.000  H
  H235     1.0000 0.35080  0.12540  0.45700  Biso   1.000  H
  H236     1.0000 0.21790  0.16140  0.44560  Biso   1.000  H
  H237     1.0000 0.14760  0.05940  0.44840  Biso   1.000  H
  H238     1.0000 0.47150  0.31020  0.33080  Biso   1.000  H
  H239     1.0000 0.67270  0.41420  0.28960  Biso   1.000  H
  H240     1.0000 0.64820  0.39440  0.35330  Biso   1.000  H
  H241     1.0000 0.46720  0.29640  0.52230  Biso   1.000  H
  H242     1.0000 0.49930  0.36520  0.52210  Biso   1.000  H
  H243     1.0000 0.55430  0.36890  0.55980  Biso   1.000  H
  H244     1.0000 0.52030  0.29950  0.56110  Biso   1.000  H
  H245     1.0000 0.47300  0.42870  0.48430  Biso   1.000  H
  H246     1.0000 0.49020  0.44590  0.44250  Biso   1.000  H
  H247     1.0000 0.33600  0.30470  0.36400  Biso   1.000  H
  H248     1.0000 0.87460  0.22540  0.45700  Biso   1.000  H
  H249     1.0000 0.83860  0.05650  0.44560  Biso   1.000  H
  H250     1.0000 0.94060  0.08820  0.44840  Biso   1.000  H
  H251     1.0000 0.68980  0.16130  0.33080  Biso   1.000  H
  H252     1.0000 0.58580  0.25850  0.28960  Biso   1.000  H
  H253     1.0000 0.60560  0.25380  0.35330  Biso   1.000  H
  H254     1.0000 0.70360  0.17080  0.52230  Biso   1.000  H
  H255     1.0000 0.63480  0.13410  0.52210  Biso   1.000  H
  H256     1.0000 0.63110  0.18540  0.55980  Biso   1.000  H
  H257     1.0000 0.70050  0.22080  0.56110  Biso   1.000  H
  H258     1.0000 0.57130  0.04430  0.48430  Biso   1.000  H
  H259     1.0000 0.55410  0.04430  0.44250  Biso   1.000  H
  H260     1.0000 0.69530  0.03130  0.36400  Biso   1.000  H
  H261     1.0000 0.77460  0.64920  0.45700  Biso   1.000  H
  H262     1.0000 0.94350  0.78210  0.44560  Biso   1.000  H
  H263     1.0000 0.91180  0.85240  0.44840  Biso   1.000  H
  H264     1.0000 0.83870  0.52850  0.33080  Biso   1.000  H
  H265     1.0000 0.74150  0.32730  0.28960  Biso   1.000  H
  H266     1.0000 0.74620  0.35180  0.35330  Biso   1.000  H
  H267     1.0000 0.82920  0.53280  0.52230  Biso   1.000  H
  H268     1.0000 0.86590  0.50070  0.52210  Biso   1.000  H
  H269     1.0000 0.81460  0.44570  0.55980  Biso   1.000  H
  H270     1.0000 0.77920  0.47970  0.56110  Biso   1.000  H
  H271     1.0000 0.95570  0.52700  0.48430  Biso   1.000  H
  H272     1.0000 0.95570  0.50980  0.44250  Biso   1.000  H
  H273     1.0000 0.96870  0.66400  0.36400  Biso   1.000  H
  H274     1.0000 0.64920  0.87460  0.95700  Biso   1.000  H
  H275     1.0000 0.78210  0.83860  0.94560  Biso   1.000  H
  H276     1.0000 0.85240  0.94060  0.94840  Biso   1.000  H
  H277     1.0000 0.52850  0.68980  0.83080  Biso   1.000  H
  H278     1.0000 0.32730  0.58580  0.78960  Biso   1.000  H
  H279     1.0000 0.35180  0.60560  0.85330  Biso   1.000  H
  H280     1.0000 0.53280  0.70360  0.02230  Biso   1.000  H
  H281     1.0000 0.50070  0.63480  0.02210  Biso   1.000  H
  H282     1.0000 0.44570  0.63110  0.05980  Biso   1.000  H
  H283     1.0000 0.47970  0.70050  0.06110  Biso   1.000  H
  H284     1.0000 0.52700  0.57130  0.98430  Biso   1.000  H
  H285     1.0000 0.50980  0.55410  0.94250  Biso   1.000  H
  H286     1.0000 0.66400  0.69530  0.86400  Biso   1.000  H
  H287     1.0000 0.12540  0.77460  0.95700  Biso   1.000  H
  H288     1.0000 0.16140  0.94350  0.94560  Biso   1.000  H
  H289     1.0000 0.05940  0.91180  0.94840  Biso   1.000  H
  H290     1.0000 0.31020  0.83870  0.83080  Biso   1.000  H
  H291     1.0000 0.41420  0.74150  0.78960  Biso   1.000  H
  H292     1.0000 0.39440  0.74620  0.85330  Biso   1.000  H
  H293     1.0000 0.29640  0.82920  0.02230  Biso   1.000  H
  H294     1.0000 0.36520  0.86590  0.02210  Biso   1.000  H
  H295     1.0000 0.36890  0.81460  0.05980  Biso   1.000  H
  H296     1.0000 0.29950  0.77920  0.06110  Biso   1.000  H
  H297     1.0000 0.42870  0.95570  0.98430  Biso   1.000  H
  H298     1.0000 0.44590  0.95570  0.94250  Biso   1.000  H
  H299     1.0000 0.30470  0.96870  0.86400  Biso   1.000  H
  H300     1.0000 0.22540  0.35080  0.95700  Biso   1.000  H
  H301     1.0000 0.05650  0.21790  0.94560  Biso   1.000  H
  H302     1.0000 0.08820  0.14760  0.94840  Biso   1.000  H
  H303     1.0000 0.16130  0.47150  0.83080  Biso   1.000  H
  H304     1.0000 0.25850  0.67270  0.78960  Biso   1.000  H
  H305     1.0000 0.25380  0.64820  0.85330  Biso   1.000  H
  H306     1.0000 0.17080  0.46720  0.02230  Biso   1.000  H
  H307     1.0000 0.13410  0.49930  0.02210  Biso   1.000  H
  H308     1.0000 0.18540  0.55430  0.05980  Biso   1.000  H
  H309     1.0000 0.22080  0.52030  0.06110  Biso   1.000  H
  H310     1.0000 0.04430  0.47300  0.98430  Biso   1.000  H
  H311     1.0000 0.04430  0.49020  0.94250  Biso   1.000  H
  H312     1.0000 0.03130  0.33600  0.86400  Biso   1.000  H
  C1       1.0000 0.88420  0.21850  0.94865  Biso   1.000  C
  C2       1.0000 0.86240  0.15340  0.95145  Biso   1.000  C
  C3       1.0000 0.80200  0.11260  0.95523  Biso   1.000  C
  C4       1.0000 0.90340  0.13380  0.94840  Biso   1.000  C
  C5       1.0000 0.78370  0.05250  0.95620  Biso   1.000  C
  C6       1.0000 0.88470  0.07270  0.94970  Biso   1.000  C
  C7       1.0000 0.82470  0.03360  0.95300  Biso   1.000  C
  C8       1.0000 0.79660  0.34070  0.88570  Biso   1.000  C
  C9       1.0000 0.79200  0.35200  0.84590  Biso   1.000  C
  C10      1.0000 0.81900  0.32960  0.82260  Biso   1.000  C
  C11      1.0000 0.81230  0.34030  0.78480  Biso   1.000  C
  C12      1.0000 0.78520  0.37030  0.77090  Biso   1.000  C
  C13      1.0000 0.75960  0.39310  0.79740  Biso   1.000  C
  C14      1.0000 0.76320  0.38170  0.83540  Biso   1.000  C
  C15      1.0000 0.82660  0.33180  0.01766  Biso   1.000  C
  C16      1.0000 0.79150  0.33350  0.04495  Biso   1.000  C
  C17      1.0000 0.96930  0.42630  0.95950  Biso   1.000  C
  C18      1.0000 0.33430  0.11580  0.94865  Biso   1.000  C
  C19      1.0000 0.29100  0.13760  0.95145  Biso   1.000  C
  C20      1.0000 0.31060  0.19800  0.95523  Biso   1.000  C
  C21      1.0000 0.23040  0.09660  0.94840  Biso   1.000  C
  C22      1.0000 0.26880  0.21630  0.95620  Biso   1.000  C
  C23      1.0000 0.18800  0.11530  0.94970  Biso   1.000  C
  C24      1.0000 0.20890  0.17530  0.95300  Biso   1.000  C
  C25      1.0000 0.54410  0.20340  0.88570  Biso   1.000  C
  C26      1.0000 0.56000  0.20800  0.84590  Biso   1.000  C
  C27      1.0000 0.51060  0.18100  0.82260  Biso   1.000  C
  C28      1.0000 0.52800  0.18770  0.78480  Biso   1.000  C
  C29      1.0000 0.58510  0.21480  0.77090  Biso   1.000  C
  C30      1.0000 0.63350  0.24040  0.79740  Biso   1.000  C
  C31      1.0000 0.61850  0.23680  0.83540  Biso   1.000  C
  C32      1.0000 0.50520  0.17340  0.01766  Biso   1.000  C
  C33      1.0000 0.54200  0.20850  0.04495  Biso   1.000  C
  C34      1.0000 0.45700  0.03070  0.95950  Biso   1.000  C
  C35      1.0000 0.78150  0.66570  0.94865  Biso   1.000  C
  C36      1.0000 0.84660  0.70900  0.95145  Biso   1.000  C
  C37      1.0000 0.88740  0.68940  0.95523  Biso   1.000  C
  C38      1.0000 0.86620  0.76960  0.94840  Biso   1.000  C
  C39      1.0000 0.94750  0.73120  0.95620  Biso   1.000  C
  C40      1.0000 0.92730  0.81200  0.94970  Biso   1.000  C
  C41      1.0000 0.96640  0.79110  0.95300  Biso   1.000  C
  C42      1.0000 0.65930  0.45590  0.88570  Biso   1.000  C
  C43      1.0000 0.64800  0.44000  0.84590  Biso   1.000  C
  C44      1.0000 0.67040  0.48940  0.82260  Biso   1.000  C
  C45      1.0000 0.65970  0.47200  0.78480  Biso   1.000  C
  C46      1.0000 0.62970  0.41490  0.77090  Biso   1.000  C
  C47      1.0000 0.60690  0.36650  0.79740  Biso   1.000  C
  C48      1.0000 0.61830  0.38150  0.83540  Biso   1.000  C
  C49      1.0000 0.66820  0.49480  0.01766  Biso   1.000  C
  C50      1.0000 0.66650  0.45800  0.04495  Biso   1.000  C
  C51      1.0000 0.57370  0.54300  0.95950  Biso   1.000  C
  C52      1.0000 0.11580  0.78150  0.44865  Biso   1.000  C
  C53      1.0000 0.13760  0.84660  0.45145  Biso   1.000  C
  C54      1.0000 0.19800  0.88740  0.45523  Biso   1.000  C
  C55      1.0000 0.09660  0.86620  0.44840  Biso   1.000  C
  C56      1.0000 0.21630  0.94750  0.45620  Biso   1.000  C
  C57      1.0000 0.11530  0.92730  0.44970  Biso   1.000  C
  C58      1.0000 0.17530  0.96640  0.45300  Biso   1.000  C
  C59      1.0000 0.20340  0.65930  0.38570  Biso   1.000  C
  C60      1.0000 0.20800  0.64800  0.34590  Biso   1.000  C
  C61      1.0000 0.18100  0.67040  0.32260  Biso   1.000  C
  C62      1.0000 0.18770  0.65970  0.28480  Biso   1.000  C
  C63      1.0000 0.21480  0.62970  0.27090  Biso   1.000  C
  C64      1.0000 0.24040  0.60690  0.29740  Biso   1.000  C
  C65      1.0000 0.23680  0.61830  0.33540  Biso   1.000  C
  C66      1.0000 0.17340  0.66820  0.51766  Biso   1.000  C
  C67      1.0000 0.20850  0.66650  0.54495  Biso   1.000  C
  C68      1.0000 0.03070  0.57370  0.45950  Biso   1.000  C
  C69      1.0000 0.66570  0.88420  0.44865  Biso   1.000  C
  C70      1.0000 0.70900  0.86240  0.45145  Biso   1.000  C
  C71      1.0000 0.68940  0.80200  0.45523  Biso   1.000  C
  C72      1.0000 0.76960  0.90340  0.44840  Biso   1.000  C
  C73      1.0000 0.73120  0.78370  0.45620  Biso   1.000  C
  C74      1.0000 0.81200  0.88470  0.44970  Biso   1.000  C
  C75      1.0000 0.79110  0.82470  0.45300  Biso   1.000  C
  C76      1.0000 0.45590  0.79660  0.38570  Biso   1.000  C
  C77      1.0000 0.44000  0.79200  0.34590  Biso   1.000  C
  C78      1.0000 0.48940  0.81900  0.32260  Biso   1.000  C
  C79      1.0000 0.47200  0.81230  0.28480  Biso   1.000  C
  C80      1.0000 0.41490  0.78520  0.27090  Biso   1.000  C
  C81      1.0000 0.36650  0.75960  0.29740  Biso   1.000  C
  C82      1.0000 0.38150  0.76320  0.33540  Biso   1.000  C
  C83      1.0000 0.49480  0.82660  0.51766  Biso   1.000  C
  C84      1.0000 0.45800  0.79150  0.54495  Biso   1.000  C
  C85      1.0000 0.54300  0.96930  0.45950  Biso   1.000  C
  C86      1.0000 0.21850  0.33430  0.44865  Biso   1.000  C
  C87      1.0000 0.15340  0.29100  0.45145  Biso   1.000  C
  C88      1.0000 0.11260  0.31060  0.45523  Biso   1.000  C
  C89      1.0000 0.13380  0.23040  0.44840  Biso   1.000  C
  C90      1.0000 0.05250  0.26880  0.45620  Biso   1.000  C
  C91      1.0000 0.07270  0.18800  0.44970  Biso   1.000  C
  C92      1.0000 0.03360  0.20890  0.45300  Biso   1.000  C
  C93      1.0000 0.34070  0.54410  0.38570  Biso   1.000  C
  C94      1.0000 0.35200  0.56000  0.34590  Biso   1.000  C
  C95      1.0000 0.32960  0.51060  0.32260  Biso   1.000  C
  C96      1.0000 0.34030  0.52800  0.28480  Biso   1.000  C
  C97      1.0000 0.37030  0.58510  0.27090  Biso   1.000  C
  C98      1.0000 0.39310  0.63350  0.29740  Biso   1.000  C
  C99      1.0000 0.38170  0.61850  0.33540  Biso   1.000  C
  C100     1.0000 0.33180  0.50520  0.51766  Biso   1.000  C
  C101     1.0000 0.33350  0.54200  0.54495  Biso   1.000  C
  C102     1.0000 0.42630  0.45700  0.45950  Biso   1.000  C
  C103     1.0000 0.66570  0.78150  0.55135  Biso   1.000  C
  C104     1.0000 0.70900  0.84660  0.54855  Biso   1.000  C
  C105     1.0000 0.68940  0.88740  0.54477  Biso   1.000  C
  C106     1.0000 0.76960  0.86620  0.55160  Biso   1.000  C
  C107     1.0000 0.73120  0.94750  0.54380  Biso   1.000  C
  C108     1.0000 0.81200  0.92730  0.55030  Biso   1.000  C
  C109     1.0000 0.79110  0.96640  0.54700  Biso   1.000  C
  C110     1.0000 0.45590  0.65930  0.61430  Biso   1.000  C
  C111     1.0000 0.44000  0.64800  0.65410  Biso   1.000  C
  C112     1.0000 0.48940  0.67040  0.67740  Biso   1.000  C
  C113     1.0000 0.47200  0.65970  0.71520  Biso   1.000  C
  C114     1.0000 0.41490  0.62970  0.72910  Biso   1.000  C
  C115     1.0000 0.36650  0.60690  0.70260  Biso   1.000  C
  C116     1.0000 0.38150  0.61830  0.66460  Biso   1.000  C
  C117     1.0000 0.49480  0.66820  0.48234  Biso   1.000  C
  C118     1.0000 0.45800  0.66650  0.45505  Biso   1.000  C
  C119     1.0000 0.54300  0.57370  0.54050  Biso   1.000  C
  C120     1.0000 0.21850  0.88420  0.55135  Biso   1.000  C
  C121     1.0000 0.15340  0.86240  0.54855  Biso   1.000  C
  C122     1.0000 0.11260  0.80200  0.54477  Biso   1.000  C
  C123     1.0000 0.13380  0.90340  0.55160  Biso   1.000  C
  C124     1.0000 0.05250  0.78370  0.54380  Biso   1.000  C
  C125     1.0000 0.07270  0.88470  0.55030  Biso   1.000  C
  C126     1.0000 0.03360  0.82470  0.54700  Biso   1.000  C
  C127     1.0000 0.34070  0.79660  0.61430  Biso   1.000  C
  C128     1.0000 0.35200  0.79200  0.65410  Biso   1.000  C
  C129     1.0000 0.32960  0.81900  0.67740  Biso   1.000  C
  C130     1.0000 0.34030  0.81230  0.71520  Biso   1.000  C
  C131     1.0000 0.37030  0.78520  0.72910  Biso   1.000  C
  C132     1.0000 0.39310  0.75960  0.70260  Biso   1.000  C
  C133     1.0000 0.38170  0.76320  0.66460  Biso   1.000  C
  C134     1.0000 0.33180  0.82660  0.48234  Biso   1.000  C
  C135     1.0000 0.33350  0.79150  0.45505  Biso   1.000  C
  C136     1.0000 0.42630  0.96930  0.54050  Biso   1.000  C
  C137     1.0000 0.11580  0.33430  0.55135  Biso   1.000  C
  C138     1.0000 0.13760  0.29100  0.54855  Biso   1.000  C
  C139     1.0000 0.19800  0.31060  0.54477  Biso   1.000  C
  C140     1.0000 0.09660  0.23040  0.55160  Biso   1.000  C
  C141     1.0000 0.21630  0.26880  0.54380  Biso   1.000  C
  C142     1.0000 0.11530  0.18800  0.55030  Biso   1.000  C
  C143     1.0000 0.17530  0.20890  0.54700  Biso   1.000  C
  C144     1.0000 0.20340  0.54410  0.61430  Biso   1.000  C
  C145     1.0000 0.20800  0.56000  0.65410  Biso   1.000  C
  C146     1.0000 0.18100  0.51060  0.67740  Biso   1.000  C
  C147     1.0000 0.18770  0.52800  0.71520  Biso   1.000  C
  C148     1.0000 0.21480  0.58510  0.72910  Biso   1.000  C
  C149     1.0000 0.24040  0.63350  0.70260  Biso   1.000  C
  C150     1.0000 0.23680  0.61850  0.66460  Biso   1.000  C
  C151     1.0000 0.17340  0.50520  0.48234  Biso   1.000  C
  C152     1.0000 0.20850  0.54200  0.45505  Biso   1.000  C
  C153     1.0000 0.03070  0.45700  0.54050  Biso   1.000  C
  C154     1.0000 0.33430  0.21850  0.05135  Biso   1.000  C
  C155     1.0000 0.29100  0.15340  0.04855  Biso   1.000  C
  C156     1.0000 0.31060  0.11260  0.04477  Biso   1.000  C
  C157     1.0000 0.23040  0.13380  0.05160  Biso   1.000  C
  C158     1.0000 0.26880  0.05250  0.04380  Biso   1.000  C
  C159     1.0000 0.18800  0.07270  0.05030  Biso   1.000  C
  C160     1.0000 0.20890  0.03360  0.04700  Biso   1.000  C
  C161     1.0000 0.54410  0.34070  0.11430  Biso   1.000  C
  C162     1.0000 0.56000  0.35200  0.15410  Biso   1.000  C
  C163     1.0000 0.51060  0.32960  0.17740  Biso   1.000  C
  C164     1.0000 0.52800  0.34030  0.21520  Biso   1.000  C
  C165     1.0000 0.58510  0.37030  0.22910  Biso   1.000  C
  C166     1.0000 0.63350  0.39310  0.20260  Biso   1.000  C
  C167     1.0000 0.61850  0.38170  0.16460  Biso   1.000  C
  C168     1.0000 0.50520  0.33180  0.98234  Biso   1.000  C
  C169     1.0000 0.54200  0.33350  0.95505  Biso   1.000  C
  C170     1.0000 0.45700  0.42630  0.04050  Biso   1.000  C
  C171     1.0000 0.78150  0.11580  0.05135  Biso   1.000  C
  C172     1.0000 0.84660  0.13760  0.04855  Biso   1.000  C
  C173     1.0000 0.88740  0.19800  0.04477  Biso   1.000  C
  C174     1.0000 0.86620  0.09660  0.05160  Biso   1.000  C
  C175     1.0000 0.94750  0.21630  0.04380  Biso   1.000  C
  C176     1.0000 0.92730  0.11530  0.05030  Biso   1.000  C
  C177     1.0000 0.96640  0.17530  0.04700  Biso   1.000  C
  C178     1.0000 0.65930  0.20340  0.11430  Biso   1.000  C
  C179     1.0000 0.64800  0.20800  0.15410  Biso   1.000  C
  C180     1.0000 0.67040  0.18100  0.17740  Biso   1.000  C
  C181     1.0000 0.65970  0.18770  0.21520  Biso   1.000  C
  C182     1.0000 0.62970  0.21480  0.22910  Biso   1.000  C
  C183     1.0000 0.60690  0.24040  0.20260  Biso   1.000  C
  C184     1.0000 0.61830  0.23680  0.16460  Biso   1.000  C
  C185     1.0000 0.66820  0.17340  0.98234  Biso   1.000  C
  C186     1.0000 0.66650  0.20850  0.95505  Biso   1.000  C
  C187     1.0000 0.57370  0.03070  0.04050  Biso   1.000  C
  C188     1.0000 0.88420  0.66570  0.05135  Biso   1.000  C
  C189     1.0000 0.86240  0.70900  0.04855  Biso   1.000  C
  C190     1.0000 0.80200  0.68940  0.04477  Biso   1.000  C
  C191     1.0000 0.90340  0.76960  0.05160  Biso   1.000  C
  C192     1.0000 0.78370  0.73120  0.04380  Biso   1.000  C
  C193     1.0000 0.88470  0.81200  0.05030  Biso   1.000  C
  C194     1.0000 0.82470  0.79110  0.04700  Biso   1.000  C
  C195     1.0000 0.79660  0.45590  0.11430  Biso   1.000  C
  C196     1.0000 0.79200  0.44000  0.15410  Biso   1.000  C
  C197     1.0000 0.81900  0.48940  0.17740  Biso   1.000  C
  C198     1.0000 0.81230  0.47200  0.21520  Biso   1.000  C
  C199     1.0000 0.78520  0.41490  0.22910  Biso   1.000  C
  C200     1.0000 0.75960  0.36650  0.20260  Biso   1.000  C
  C201     1.0000 0.76320  0.38150  0.16460  Biso   1.000  C
  C202     1.0000 0.82660  0.49480  0.98234  Biso   1.000  C
  C203     1.0000 0.79150  0.45800  0.95505  Biso   1.000  C
  C204     1.0000 0.96930  0.54300  0.04050  Biso   1.000  C
  C205     1.0000 0.11580  0.78150  0.05135  Biso   1.000  C
  C206     1.0000 0.13760  0.84660  0.04855  Biso   1.000  C
  C207     1.0000 0.19800  0.88740  0.04477  Biso   1.000  C
  C208     1.0000 0.09660  0.86620  0.05160  Biso   1.000  C
  C209     1.0000 0.21630  0.94750  0.04380  Biso   1.000  C
  C210     1.0000 0.11530  0.92730  0.05030  Biso   1.000  C
  C211     1.0000 0.17530  0.96640  0.04700  Biso   1.000  C
  C212     1.0000 0.20340  0.65930  0.11430  Biso   1.000  C
  C213     1.0000 0.20800  0.64800  0.15410  Biso   1.000  C
  C214     1.0000 0.18100  0.67040  0.17740  Biso   1.000  C
  C215     1.0000 0.18770  0.65970  0.21520  Biso   1.000  C
  C216     1.0000 0.21480  0.62970  0.22910  Biso   1.000  C
  C217     1.0000 0.24040  0.60690  0.20260  Biso   1.000  C
  C218     1.0000 0.23680  0.61830  0.16460  Biso   1.000  C
  C219     1.0000 0.17340  0.66820  0.98234  Biso   1.000  C
  C220     1.0000 0.20850  0.66650  0.95505  Biso   1.000  C
  C221     1.0000 0.03070  0.57370  0.04050  Biso   1.000  C
  C222     1.0000 0.66570  0.88420  0.05135  Biso   1.000  C
  C223     1.0000 0.70900  0.86240  0.04855  Biso   1.000  C
  C224     1.0000 0.68940  0.80200  0.04477  Biso   1.000  C
  C225     1.0000 0.76960  0.90340  0.05160  Biso   1.000  C
  C226     1.0000 0.73120  0.78370  0.04380  Biso   1.000  C
  C227     1.0000 0.81200  0.88470  0.05030  Biso   1.000  C
  C228     1.0000 0.79110  0.82470  0.04700  Biso   1.000  C
  C229     1.0000 0.45590  0.79660  0.11430  Biso   1.000  C
  C230     1.0000 0.44000  0.79200  0.15410  Biso   1.000  C
  C231     1.0000 0.48940  0.81900  0.17740  Biso   1.000  C
  C232     1.0000 0.47200  0.81230  0.21520  Biso   1.000  C
  C233     1.0000 0.41490  0.78520  0.22910  Biso   1.000  C
  C234     1.0000 0.36650  0.75960  0.20260  Biso   1.000  C
  C235     1.0000 0.38150  0.76320  0.16460  Biso   1.000  C
  C236     1.0000 0.49480  0.82660  0.98234  Biso   1.000  C
  C237     1.0000 0.45800  0.79150  0.95505  Biso   1.000  C
  C238     1.0000 0.54300  0.96930  0.04050  Biso   1.000  C
  C239     1.0000 0.21850  0.33430  0.05135  Biso   1.000  C
  C240     1.0000 0.15340  0.29100  0.04855  Biso   1.000  C
  C241     1.0000 0.11260  0.31060  0.04477  Biso   1.000  C
  C242     1.0000 0.13380  0.23040  0.05160  Biso   1.000  C
  C243     1.0000 0.05250  0.26880  0.04380  Biso   1.000  C
  C244     1.0000 0.07270  0.18800  0.05030  Biso   1.000  C
  C245     1.0000 0.03360  0.20890  0.04700  Biso   1.000  C
  C246     1.0000 0.34070  0.54410  0.11430  Biso   1.000  C
  C247     1.0000 0.35200  0.56000  0.15410  Biso   1.000  C
  C248     1.0000 0.32960  0.51060  0.17740  Biso   1.000  C
  C249     1.0000 0.34030  0.52800  0.21520  Biso   1.000  C
  C250     1.0000 0.37030  0.58510  0.22910  Biso   1.000  C
  C251     1.0000 0.39310  0.63350  0.20260  Biso   1.000  C
  C252     1.0000 0.38170  0.61850  0.16460  Biso   1.000  C
  C253     1.0000 0.33180  0.50520  0.98234  Biso   1.000  C
  C254     1.0000 0.33350  0.54200  0.95505  Biso   1.000  C
  C255     1.0000 0.42630  0.45700  0.04050  Biso   1.000  C
  C256     1.0000 0.88420  0.21850  0.55135  Biso   1.000  C
  C257     1.0000 0.86240  0.15340  0.54855  Biso   1.000  C
  C258     1.0000 0.80200  0.11260  0.54477  Biso   1.000  C
  C259     1.0000 0.90340  0.13380  0.55160  Biso   1.000  C
  C260     1.0000 0.78370  0.05250  0.54380  Biso   1.000  C
  C261     1.0000 0.88470  0.07270  0.55030  Biso   1.000  C
  C262     1.0000 0.82470  0.03360  0.54700  Biso   1.000  C
  C263     1.0000 0.79660  0.34070  0.61430  Biso   1.000  C
  C264     1.0000 0.79200  0.35200  0.65410  Biso   1.000  C
  C265     1.0000 0.81900  0.32960  0.67740  Biso   1.000  C
  C266     1.0000 0.81230  0.34030  0.71520  Biso   1.000  C
  C267     1.0000 0.78520  0.37030  0.72910  Biso   1.000  C
  C268     1.0000 0.75960  0.39310  0.70260  Biso   1.000  C
  C269     1.0000 0.76320  0.38170  0.66460  Biso   1.000  C
  C270     1.0000 0.82660  0.33180  0.48234  Biso   1.000  C
  C271     1.0000 0.79150  0.33350  0.45505  Biso   1.000  C
  C272     1.0000 0.96930  0.42630  0.54050  Biso   1.000  C
  C273     1.0000 0.33430  0.11580  0.55135  Biso   1.000  C
  C274     1.0000 0.29100  0.13760  0.54855  Biso   1.000  C
  C275     1.0000 0.31060  0.19800  0.54477  Biso   1.000  C
  C276     1.0000 0.23040  0.09660  0.55160  Biso   1.000  C
  C277     1.0000 0.26880  0.21630  0.54380  Biso   1.000  C
  C278     1.0000 0.18800  0.11530  0.55030  Biso   1.000  C
  C279     1.0000 0.20890  0.17530  0.54700  Biso   1.000  C
  C280     1.0000 0.54410  0.20340  0.61430  Biso   1.000  C
  C281     1.0000 0.56000  0.20800  0.65410  Biso   1.000  C
  C282     1.0000 0.51060  0.18100  0.67740  Biso   1.000  C
  C283     1.0000 0.52800  0.18770  0.71520  Biso   1.000  C
  C284     1.0000 0.58510  0.21480  0.72910  Biso   1.000  C
  C285     1.0000 0.63350  0.24040  0.70260  Biso   1.000  C
  C286     1.0000 0.61850  0.23680  0.66460  Biso   1.000  C
  C287     1.0000 0.50520  0.17340  0.48234  Biso   1.000  C
  C288     1.0000 0.54200  0.20850  0.45505  Biso   1.000  C
  C289     1.0000 0.45700  0.03070  0.54050  Biso   1.000  C
  C290     1.0000 0.78150  0.66570  0.55135  Biso   1.000  C
  C291     1.0000 0.84660  0.70900  0.54855  Biso   1.000  C
  C292     1.0000 0.88740  0.68940  0.54477  Biso   1.000  C
  C293     1.0000 0.86620  0.76960  0.55160  Biso   1.000  C
  C294     1.0000 0.94750  0.73120  0.54380  Biso   1.000  C
  C295     1.0000 0.92730  0.81200  0.55030  Biso   1.000  C
  C296     1.0000 0.96640  0.79110  0.54700  Biso   1.000  C
  C297     1.0000 0.65930  0.45590  0.61430  Biso   1.000  C
  C298     1.0000 0.64800  0.44000  0.65410  Biso   1.000  C
  C299     1.0000 0.67040  0.48940  0.67740  Biso   1.000  C
  C300     1.0000 0.65970  0.47200  0.71520  Biso   1.000  C
  C301     1.0000 0.62970  0.41490  0.72910  Biso   1.000  C
  C302     1.0000 0.60690  0.36650  0.70260  Biso   1.000  C
  C303     1.0000 0.61830  0.38150  0.66460  Biso   1.000  C
  C304     1.0000 0.66820  0.49480  0.48234  Biso   1.000  C
  C305     1.0000 0.66650  0.45800  0.45505  Biso   1.000  C
  C306     1.0000 0.57370  0.54300  0.54050  Biso   1.000  C
  C307     1.0000 0.33430  0.21850  0.44865  Biso   1.000  C
  C308     1.0000 0.29100  0.15340  0.45145  Biso   1.000  C
  C309     1.0000 0.31060  0.11260  0.45523  Biso   1.000  C
  C310     1.0000 0.23040  0.13380  0.44840  Biso   1.000  C
  C311     1.0000 0.26880  0.05250  0.45620  Biso   1.000  C
  C312     1.0000 0.18800  0.07270  0.44970  Biso   1.000  C
  C313     1.0000 0.20890  0.03360  0.45300  Biso   1.000  C
  C314     1.0000 0.54410  0.34070  0.38570  Biso   1.000  C
  C315     1.0000 0.56000  0.35200  0.34590  Biso   1.000  C
  C316     1.0000 0.51060  0.32960  0.32260  Biso   1.000  C
  C317     1.0000 0.52800  0.34030  0.28480  Biso   1.000  C
  C318     1.0000 0.58510  0.37030  0.27090  Biso   1.000  C
  C319     1.0000 0.63350  0.39310  0.29740  Biso   1.000  C
  C320     1.0000 0.61850  0.38170  0.33540  Biso   1.000  C
  C321     1.0000 0.50520  0.33180  0.51766  Biso   1.000  C
  C322     1.0000 0.54200  0.33350  0.54495  Biso   1.000  C
  C323     1.0000 0.45700  0.42630  0.45950  Biso   1.000  C
  C324     1.0000 0.78150  0.11580  0.44865  Biso   1.000  C
  C325     1.0000 0.84660  0.13760  0.45145  Biso   1.000  C
  C326     1.0000 0.88740  0.19800  0.45523  Biso   1.000  C
  C327     1.0000 0.86620  0.09660  0.44840  Biso   1.000  C
  C328     1.0000 0.94750  0.21630  0.45620  Biso   1.000  C
  C329     1.0000 0.92730  0.11530  0.44970  Biso   1.000  C
  C330     1.0000 0.96640  0.17530  0.45300  Biso   1.000  C
  C331     1.0000 0.65930  0.20340  0.38570  Biso   1.000  C
  C332     1.0000 0.64800  0.20800  0.34590  Biso   1.000  C
  C333     1.0000 0.67040  0.18100  0.32260  Biso   1.000  C
  C334     1.0000 0.65970  0.18770  0.28480  Biso   1.000  C
  C335     1.0000 0.62970  0.21480  0.27090  Biso   1.000  C
  C336     1.0000 0.60690  0.24040  0.29740  Biso   1.000  C
  C337     1.0000 0.61830  0.23680  0.33540  Biso   1.000  C
  C338     1.0000 0.66820  0.17340  0.51766  Biso   1.000  C
  C339     1.0000 0.66650  0.20850  0.54495  Biso   1.000  C
  C340     1.0000 0.57370  0.03070  0.45950  Biso   1.000  C
  C341     1.0000 0.88420  0.66570  0.44865  Biso   1.000  C
  C342     1.0000 0.86240  0.70900  0.45145  Biso   1.000  C
  C343     1.0000 0.80200  0.68940  0.45523  Biso   1.000  C
  C344     1.0000 0.90340  0.76960  0.44840  Biso   1.000  C
  C345     1.0000 0.78370  0.73120  0.45620  Biso   1.000  C
  C346     1.0000 0.88470  0.81200  0.44970  Biso   1.000  C
  C347     1.0000 0.82470  0.79110  0.45300  Biso   1.000  C
  C348     1.0000 0.79660  0.45590  0.38570  Biso   1.000  C
  C349     1.0000 0.79200  0.44000  0.34590  Biso   1.000  C
  C350     1.0000 0.81900  0.48940  0.32260  Biso   1.000  C
  C351     1.0000 0.81230  0.47200  0.28480  Biso   1.000  C
  C352     1.0000 0.78520  0.41490  0.27090  Biso   1.000  C
  C353     1.0000 0.75960  0.36650  0.29740  Biso   1.000  C
  C354     1.0000 0.76320  0.38150  0.33540  Biso   1.000  C
  C355     1.0000 0.82660  0.49480  0.51766  Biso   1.000  C
  C356     1.0000 0.79150  0.45800  0.54495  Biso   1.000  C
  C357     1.0000 0.96930  0.54300  0.45950  Biso   1.000  C
  C358     1.0000 0.66570  0.78150  0.94865  Biso   1.000  C
  C359     1.0000 0.70900  0.84660  0.95145  Biso   1.000  C
  C360     1.0000 0.68940  0.88740  0.95523  Biso   1.000  C
  C361     1.0000 0.76960  0.86620  0.94840  Biso   1.000  C
  C362     1.0000 0.73120  0.94750  0.95620  Biso   1.000  C
  C363     1.0000 0.81200  0.92730  0.94970  Biso   1.000  C
  C364     1.0000 0.79110  0.96640  0.95300  Biso   1.000  C
  C365     1.0000 0.45590  0.65930  0.88570  Biso   1.000  C
  C366     1.0000 0.44000  0.64800  0.84590  Biso   1.000  C
  C367     1.0000 0.48940  0.67040  0.82260  Biso   1.000  C
  C368     1.0000 0.47200  0.65970  0.78480  Biso   1.000  C
  C369     1.0000 0.41490  0.62970  0.77090  Biso   1.000  C
  C370     1.0000 0.36650  0.60690  0.79740  Biso   1.000  C
  C371     1.0000 0.38150  0.61830  0.83540  Biso   1.000  C
  C372     1.0000 0.49480  0.66820  0.01766  Biso   1.000  C
  C373     1.0000 0.45800  0.66650  0.04495  Biso   1.000  C
  C374     1.0000 0.54300  0.57370  0.95950  Biso   1.000  C
  C375     1.0000 0.21850  0.88420  0.94865  Biso   1.000  C
  C376     1.0000 0.15340  0.86240  0.95145  Biso   1.000  C
  C377     1.0000 0.11260  0.80200  0.95523  Biso   1.000  C
  C378     1.0000 0.13380  0.90340  0.94840  Biso   1.000  C
  C379     1.0000 0.05250  0.78370  0.95620  Biso   1.000  C
  C380     1.0000 0.07270  0.88470  0.94970  Biso   1.000  C
  C381     1.0000 0.03360  0.82470  0.95300  Biso   1.000  C
  C382     1.0000 0.34070  0.79660  0.88570  Biso   1.000  C
  C383     1.0000 0.35200  0.79200  0.84590  Biso   1.000  C
  C384     1.0000 0.32960  0.81900  0.82260  Biso   1.000  C
  C385     1.0000 0.34030  0.81230  0.78480  Biso   1.000  C
  C386     1.0000 0.37030  0.78520  0.77090  Biso   1.000  C
  C387     1.0000 0.39310  0.75960  0.79740  Biso   1.000  C
  C388     1.0000 0.38170  0.76320  0.83540  Biso   1.000  C
  C389     1.0000 0.33180  0.82660  0.01766  Biso   1.000  C
  C390     1.0000 0.33350  0.79150  0.04495  Biso   1.000  C
  C391     1.0000 0.42630  0.96930  0.95950  Biso   1.000  C
  C392     1.0000 0.11580  0.33430  0.94865  Biso   1.000  C
  C393     1.0000 0.13760  0.29100  0.95145  Biso   1.000  C
  C394     1.0000 0.19800  0.31060  0.95523  Biso   1.000  C
  C395     1.0000 0.09660  0.23040  0.94840  Biso   1.000  C
  C396     1.0000 0.21630  0.26880  0.95620  Biso   1.000  C
  C397     1.0000 0.11530  0.18800  0.94970  Biso   1.000  C
  C398     1.0000 0.17530  0.20890  0.95300  Biso   1.000  C
  C399     1.0000 0.20340  0.54410  0.88570  Biso   1.000  C
  C400     1.0000 0.20800  0.56000  0.84590  Biso   1.000  C
  C401     1.0000 0.18100  0.51060  0.82260  Biso   1.000  C
  C402     1.0000 0.18770  0.52800  0.78480  Biso   1.000  C
  C403     1.0000 0.21480  0.58510  0.77090  Biso   1.000  C
  C404     1.0000 0.24040  0.63350  0.79740  Biso   1.000  C
  C405     1.0000 0.23680  0.61850  0.83540  Biso   1.000  C
  C406     1.0000 0.17340  0.50520  0.01766  Biso   1.000  C
  C407     1.0000 0.20850  0.54200  0.04495  Biso   1.000  C
  C408     1.0000 0.03070  0.45700  0.95950  Biso   1.000  C
  C409     1.0000 0.72230  0.00000  0.95830  Biso   1.000  C
  C410     1.0000 0.27770  0.27770  0.95830  Biso   1.000  C
  C411     1.0000 0.00000  0.72230  0.95830  Biso   1.000  C
  C412     1.0000 0.27770  0.00000  0.45830  Biso   1.000  C
  C413     1.0000 0.72230  0.72230  0.45830  Biso   1.000  C
  C414     1.0000 0.00000  0.27770  0.45830  Biso   1.000  C
  C415     1.0000 0.72230  0.00000  0.54170  Biso   1.000  C
  C416     1.0000 0.00000  0.72230  0.54170  Biso   1.000  C
  C417     1.0000 0.27770  0.27770  0.54170  Biso   1.000  C
  C418     1.0000 0.27770  0.00000  0.04170  Biso   1.000  C
  C419     1.0000 0.00000  0.27770  0.04170  Biso   1.000  C
  C420     1.0000 0.72230  0.72230  0.04170  Biso   1.000  C
  C421     1.0000 0.83640  0.32380  0.75000  Biso   1.000  C
  C422     1.0000 0.48740  0.16360  0.75000  Biso   1.000  C
  C423     1.0000 0.67620  0.51260  0.75000  Biso   1.000  C
  C424     1.0000 0.16360  0.67620  0.25000  Biso   1.000  C
  C425     1.0000 0.51260  0.83640  0.25000  Biso   1.000  C
  C426     1.0000 0.32380  0.48740  0.25000  Biso   1.000  C
  C427     1.0000 0.51260  0.67620  0.75000  Biso   1.000  C
  C428     1.0000 0.32380  0.83640  0.75000  Biso   1.000  C
  C429     1.0000 0.16360  0.48740  0.75000  Biso   1.000  C
  C430     1.0000 0.48740  0.32380  0.25000  Biso   1.000  C
  C431     1.0000 0.67620  0.16360  0.25000  Biso   1.000  C
  C432     1.0000 0.83640  0.51260  0.25000  Biso   1.000  C
  O1       1.0000 0.93890  0.25300  0.94688  Biso   1.000  O
  O2       1.0000 0.84506  0.23367  0.94859  Biso   1.000  O
  O3       1.0000 0.76850  0.35340  0.90940  Biso   1.000  O
  O4       1.0000 0.83130  0.32050  0.89591  Biso   1.000  O
  O5       1.0000 0.81614  0.33196  0.98032  Biso   1.000  O
  O6       1.0000 0.73873  0.33363  0.03112  Biso   1.000  O
  O7       1.0000 0.94322  0.36746  0.94952  Biso   1.000  O
  O8       1.0000 0.31410  0.06110  0.94688  Biso   1.000  O
  O9       1.0000 0.38861  0.15494  0.94859  Biso   1.000  O
  O10      1.0000 0.58490  0.23150  0.90940  Biso   1.000  O
  O11      1.0000 0.48920  0.16870  0.89591  Biso   1.000  O
  O12      1.0000 0.51582  0.18386  0.98032  Biso   1.000  O
  O13      1.0000 0.59490  0.26127  0.03112  Biso   1.000  O
  O14      1.0000 0.42424  0.05678  0.94952  Biso   1.000  O
  O15      1.0000 0.74700  0.68590  0.94688  Biso   1.000  O
  O16      1.0000 0.76633  0.61139  0.94859  Biso   1.000  O
  O17      1.0000 0.64660  0.41510  0.90940  Biso   1.000  O
  O18      1.0000 0.67950  0.51080  0.89591  Biso   1.000  O
  O19      1.0000 0.66804  0.48418  0.98032  Biso   1.000  O
  O20      1.0000 0.66637  0.40510  0.03112  Biso   1.000  O
  O21      1.0000 0.63254  0.57576  0.94952  Biso   1.000  O
  O22      1.0000 0.06110  0.74700  0.44688  Biso   1.000  O
  O23      1.0000 0.15494  0.76633  0.44859  Biso   1.000  O
  O24      1.0000 0.23150  0.64660  0.40940  Biso   1.000  O
  O25      1.0000 0.16870  0.67950  0.39591  Biso   1.000  O
  O26      1.0000 0.18386  0.66804  0.48032  Biso   1.000  O
  O27      1.0000 0.26127  0.66637  0.53112  Biso   1.000  O
  O28      1.0000 0.05678  0.63254  0.44952  Biso   1.000  O
  O29      1.0000 0.68590  0.93890  0.44688  Biso   1.000  O
  O30      1.0000 0.61139  0.84506  0.44859  Biso   1.000  O
  O31      1.0000 0.41510  0.76850  0.40940  Biso   1.000  O
  O32      1.0000 0.51080  0.83130  0.39591  Biso   1.000  O
  O33      1.0000 0.48418  0.81614  0.48032  Biso   1.000  O
  O34      1.0000 0.40510  0.73873  0.53112  Biso   1.000  O
  O35      1.0000 0.57576  0.94322  0.44952  Biso   1.000  O
  O36      1.0000 0.25300  0.31410  0.44688  Biso   1.000  O
  O37      1.0000 0.23367  0.38861  0.44859  Biso   1.000  O
  O38      1.0000 0.35340  0.58490  0.40940  Biso   1.000  O
  O39      1.0000 0.32050  0.48920  0.39591  Biso   1.000  O
  O40      1.0000 0.33196  0.51582  0.48032  Biso   1.000  O
  O41      1.0000 0.33363  0.59490  0.53112  Biso   1.000  O
  O42      1.0000 0.36746  0.42424  0.44952  Biso   1.000  O
  O43      1.0000 0.68590  0.74700  0.55312  Biso   1.000  O
  O44      1.0000 0.61139  0.76633  0.55141  Biso   1.000  O
  O45      1.0000 0.41510  0.64660  0.59060  Biso   1.000  O
  O46      1.0000 0.51080  0.67950  0.60409  Biso   1.000  O
  O47      1.0000 0.48418  0.66804  0.51968  Biso   1.000  O
  O48      1.0000 0.40510  0.66637  0.46888  Biso   1.000  O
  O49      1.0000 0.57576  0.63254  0.55048  Biso   1.000  O
  O50      1.0000 0.25300  0.93890  0.55312  Biso   1.000  O
  O51      1.0000 0.23367  0.84506  0.55141  Biso   1.000  O
  O52      1.0000 0.35340  0.76850  0.59060  Biso   1.000  O
  O53      1.0000 0.32050  0.83130  0.60409  Biso   1.000  O
  O54      1.0000 0.33196  0.81614  0.51968  Biso   1.000  O
  O55      1.0000 0.33363  0.73873  0.46888  Biso   1.000  O
  O56      1.0000 0.36746  0.94322  0.55048  Biso   1.000  O
  O57      1.0000 0.06110  0.31410  0.55312  Biso   1.000  O
  O58      1.0000 0.15494  0.38861  0.55141  Biso   1.000  O
  O59      1.0000 0.23150  0.58490  0.59060  Biso   1.000  O
  O60      1.0000 0.16870  0.48920  0.60409  Biso   1.000  O
  O61      1.0000 0.18386  0.51582  0.51968  Biso   1.000  O
  O62      1.0000 0.26127  0.59490  0.46888  Biso   1.000  O
  O63      1.0000 0.05678  0.42424  0.55048  Biso   1.000  O
  O64      1.0000 0.31410  0.25300  0.05312  Biso   1.000  O
  O65      1.0000 0.38861  0.23367  0.05141  Biso   1.000  O
  O66      1.0000 0.58490  0.35340  0.09060  Biso   1.000  O
  O67      1.0000 0.48920  0.32050  0.10409  Biso   1.000  O
  O68      1.0000 0.51582  0.33196  0.01968  Biso   1.000  O
  O69      1.0000 0.59490  0.33363  0.96888  Biso   1.000  O
  O70      1.0000 0.42424  0.36746  0.05048  Biso   1.000  O
  O71      1.0000 0.74700  0.06110  0.05312  Biso   1.000  O
  O72      1.0000 0.76633  0.15494  0.05141  Biso   1.000  O
  O73      1.0000 0.64660  0.23150  0.09060  Biso   1.000  O
  O74      1.0000 0.67950  0.16870  0.10409  Biso   1.000  O
  O75      1.0000 0.66804  0.18386  0.01968  Biso   1.000  O
  O76      1.0000 0.66637  0.26127  0.96888  Biso   1.000  O
  O77      1.0000 0.63254  0.05678  0.05048  Biso   1.000  O
  O78      1.0000 0.93890  0.68590  0.05312  Biso   1.000  O
  O79      1.0000 0.84506  0.61139  0.05141  Biso   1.000  O
  O80      1.0000 0.76850  0.41510  0.09060  Biso   1.000  O
  O81      1.0000 0.83130  0.51080  0.10409  Biso   1.000  O
  O82      1.0000 0.81614  0.48418  0.01968  Biso   1.000  O
  O83      1.0000 0.73873  0.40510  0.96888  Biso   1.000  O
  O84      1.0000 0.94322  0.57576  0.05048  Biso   1.000  O
  O85      1.0000 0.06110  0.74700  0.05312  Biso   1.000  O
  O86      1.0000 0.15494  0.76633  0.05141  Biso   1.000  O
  O87      1.0000 0.23150  0.64660  0.09060  Biso   1.000  O
  O88      1.0000 0.16870  0.67950  0.10409  Biso   1.000  O
  O89      1.0000 0.18386  0.66804  0.01968  Biso   1.000  O
  O90      1.0000 0.26127  0.66637  0.96888  Biso   1.000  O
  O91      1.0000 0.05678  0.63254  0.05048  Biso   1.000  O
  O92      1.0000 0.68590  0.93890  0.05312  Biso   1.000  O
  O93      1.0000 0.61139  0.84506  0.05141  Biso   1.000  O
  O94      1.0000 0.41510  0.76850  0.09060  Biso   1.000  O
  O95      1.0000 0.51080  0.83130  0.10409  Biso   1.000  O
  O96      1.0000 0.48418  0.81614  0.01968  Biso   1.000  O
  O97      1.0000 0.40510  0.73873  0.96888  Biso   1.000  O
  O98      1.0000 0.57576  0.94322  0.05048  Biso   1.000  O
  O99      1.0000 0.25300  0.31410  0.05312  Biso   1.000  O
  O100     1.0000 0.23367  0.38861  0.05141  Biso   1.000  O
  O101     1.0000 0.35340  0.58490  0.09060  Biso   1.000  O
  O102     1.0000 0.32050  0.48920  0.10409  Biso   1.000  O
  O103     1.0000 0.33196  0.51582  0.01968  Biso   1.000  O
  O104     1.0000 0.33363  0.59490  0.96888  Biso   1.000  O
  O105     1.0000 0.36746  0.42424  0.05048  Biso   1.000  O
  O106     1.0000 0.93890  0.25300  0.55312  Biso   1.000  O
  O107     1.0000 0.84506  0.23367  0.55141  Biso   1.000  O
  O108     1.0000 0.76850  0.35340  0.59060  Biso   1.000  O
  O109     1.0000 0.83130  0.32050  0.60409  Biso   1.000  O
  O110     1.0000 0.81614  0.33196  0.51968  Biso   1.000  O
  O111     1.0000 0.73873  0.33363  0.46888  Biso   1.000  O
  O112     1.0000 0.94322  0.36746  0.55048  Biso   1.000  O
  O113     1.0000 0.31410  0.06110  0.55312  Biso   1.000  O
  O114     1.0000 0.38861  0.15494  0.55141  Biso   1.000  O
  O115     1.0000 0.58490  0.23150  0.59060  Biso   1.000  O
  O116     1.0000 0.48920  0.16870  0.60409  Biso   1.000  O
  O117     1.0000 0.51582  0.18386  0.51968  Biso   1.000  O
  O118     1.0000 0.59490  0.26127  0.46888  Biso   1.000  O
  O119     1.0000 0.42424  0.05678  0.55048  Biso   1.000  O
  O120     1.0000 0.74700  0.68590  0.55312  Biso   1.000  O
  O121     1.0000 0.76633  0.61139  0.55141  Biso   1.000  O
  O122     1.0000 0.64660  0.41510  0.59060  Biso   1.000  O
  O123     1.0000 0.67950  0.51080  0.60409  Biso   1.000  O
  O124     1.0000 0.66804  0.48418  0.51968  Biso   1.000  O
  O125     1.0000 0.66637  0.40510  0.46888  Biso   1.000  O
  O126     1.0000 0.63254  0.57576  0.55048  Biso   1.000  O
  O127     1.0000 0.31410  0.25300  0.44688  Biso   1.000  O
  O128     1.0000 0.38861  0.23367  0.44859  Biso   1.000  O
  O129     1.0000 0.58490  0.35340  0.40940  Biso   1.000  O
  O130     1.0000 0.48920  0.32050  0.39591  Biso   1.000  O
  O131     1.0000 0.51582  0.33196  0.48032  Biso   1.000  O
  O132     1.0000 0.59490  0.33363  0.53112  Biso   1.000  O
  O133     1.0000 0.42424  0.36746  0.44952  Biso   1.000  O
  O134     1.0000 0.74700  0.06110  0.44688  Biso   1.000  O
  O135     1.0000 0.76633  0.15494  0.44859  Biso   1.000  O
  O136     1.0000 0.64660  0.23150  0.40940  Biso   1.000  O
  O137     1.0000 0.67950  0.16870  0.39591  Biso   1.000  O
  O138     1.0000 0.66804  0.18386  0.48032  Biso   1.000  O
  O139     1.0000 0.66637  0.26127  0.53112  Biso   1.000  O
  O140     1.0000 0.63254  0.05678  0.44952  Biso   1.000  O
  O141     1.0000 0.93890  0.68590  0.44688  Biso   1.000  O
  O142     1.0000 0.84506  0.61139  0.44859  Biso   1.000  O
  O143     1.0000 0.76850  0.41510  0.40940  Biso   1.000  O
  O144     1.0000 0.83130  0.51080  0.39591  Biso   1.000  O
  O145     1.0000 0.81614  0.48418  0.48032  Biso   1.000  O
  O146     1.0000 0.73873  0.40510  0.53112  Biso   1.000  O
  O147     1.0000 0.94322  0.57576  0.44952  Biso   1.000  O
  O148     1.0000 0.68590  0.74700  0.94688  Biso   1.000  O
  O149     1.0000 0.61139  0.76633  0.94859  Biso   1.000  O
  O150     1.0000 0.41510  0.64660  0.90940  Biso   1.000  O
  O151     1.0000 0.51080  0.67950  0.89591  Biso   1.000  O
  O152     1.0000 0.48418  0.66804  0.98032  Biso   1.000  O
  O153     1.0000 0.40510  0.66637  0.03112  Biso   1.000  O
  O154     1.0000 0.57576  0.63254  0.94952  Biso   1.000  O
  O155     1.0000 0.25300  0.93890  0.94688  Biso   1.000  O
  O156     1.0000 0.23367  0.84506  0.94859  Biso   1.000  O
  O157     1.0000 0.35340  0.76850  0.90940  Biso   1.000  O
  O158     1.0000 0.32050  0.83130  0.89591  Biso   1.000  O
  O159     1.0000 0.33196  0.81614  0.98032  Biso   1.000  O
  O160     1.0000 0.33363  0.73873  0.03112  Biso   1.000  O
  O161     1.0000 0.36746  0.94322  0.94952  Biso   1.000  O
  O162     1.0000 0.06110  0.31410  0.94688  Biso   1.000  O
  O163     1.0000 0.15494  0.38861  0.94859  Biso   1.000  O
  O164     1.0000 0.23150  0.58490  0.90940  Biso   1.000  O
  O165     1.0000 0.16870  0.48920  0.89591  Biso   1.000  O
  O166     1.0000 0.18386  0.51582  0.98032  Biso   1.000  O
  O167     1.0000 0.26127  0.59490  0.03112  Biso   1.000  O
  O168     1.0000 0.05678  0.42424  0.94952  Biso   1.000  O
  O169     1.0000 0.00000  0.33480  0.87720  Biso   1.000  O
  O170     1.0000 0.33480  0.00000  0.87720  Biso   1.000  O
  O171     1.0000 0.66520  0.66520  0.87720  Biso   1.000  O
  O172     1.0000 0.00000  0.66520  0.37720  Biso   1.000  O
  O173     1.0000 0.66520  0.00000  0.37720  Biso   1.000  O
  O174     1.0000 0.33480  0.33480  0.37720  Biso   1.000  O
  O175     1.0000 0.66520  0.66520  0.62280  Biso   1.000  O
  O176     1.0000 0.33480  0.00000  0.62280  Biso   1.000  O
  O177     1.0000 0.00000  0.33480  0.62280  Biso   1.000  O
  O178     1.0000 0.33480  0.33480  0.12280  Biso   1.000  O
  O179     1.0000 0.66520  0.00000  0.12280  Biso   1.000  O
  O180     1.0000 0.00000  0.66520  0.12280  Biso   1.000  O
  O181     1.0000 0.67660  0.00000  0.96180  Biso   1.000  O
  O182     1.0000 0.32340  0.32340  0.96180  Biso   1.000  O
  O183     1.0000 1.00000  0.67660  0.96180  Biso   1.000  O
  O184     1.0000 0.32340  1.00000  0.46180  Biso   1.000  O
  O185     1.0000 0.67660  0.67660  0.46180  Biso   1.000  O
  O186     1.0000 0.00000  0.32340  0.46180  Biso   1.000  O
  O187     1.0000 0.67660  0.00000  0.53820  Biso   1.000  O
  O188     1.0000 1.00000  0.67660  0.53820  Biso   1.000  O
  O189     1.0000 0.32340  0.32340  0.53820  Biso   1.000  O
  O190     1.0000 0.32340  1.00000  0.03820  Biso   1.000  O
  O191     1.0000 0.00000  0.32340  0.03820  Biso   1.000  O
  O192     1.0000 0.67660  0.67660  0.03820  Biso   1.000  O
  O193     1.0000 0.86070  0.29170  0.75000  Biso   1.000  O
  O194     1.0000 0.43100  0.13930  0.75000  Biso   1.000  O
  O195     1.0000 0.70830  0.56900  0.75000  Biso   1.000  O
  O196     1.0000 0.13930  0.70830  0.25000  Biso   1.000  O
  O197     1.0000 0.56900  0.86070  0.25000  Biso   1.000  O
  O198     1.0000 0.29170  0.43100  0.25000  Biso   1.000  O
  O199     1.0000 0.56900  0.70830  0.75000  Biso   1.000  O
  O200     1.0000 0.29170  0.86070  0.75000  Biso   1.000  O
  O201     1.0000 0.13930  0.43100  0.75000  Biso   1.000  O
  O202     1.0000 0.43100  0.29170  0.25000  Biso   1.000  O
  O203     1.0000 0.70830  0.13930  0.25000  Biso   1.000  O
  O204     1.0000 0.86070  0.56900  0.25000  Biso   1.000  O
