data_MANLIX_charged
_audit_creation_date              2014-07-02
_audit_creation_method            'Materials Studio'
_symmetry_space_group_name_H-M    'P1'
_symmetry_Int_Tables_number       1
_symmetry_cell_setting            triclinic
loop_
_symmetry_equiv_pos_as_xyz
  x,y,z
_cell_length_a                    27.8843
_cell_length_b                    27.8843
_cell_length_c                    27.8843
_cell_angle_alpha                 109.4710
_cell_angle_beta                  109.4710
_cell_angle_gamma                 109.4710
loop_
_atom_site_label
_atom_site_type_symbol
_atom_site_fract_x
_atom_site_fract_y
_atom_site_fract_z
_atom_site_U_iso_or_equiv
_atom_site_adp_type
_atom_site_occupancy
Zn1    Zn    0.00000   0.00000   0.00000   0.01267  Uiso   1.00
Zn2    Zn    0.50000   0.00000   0.50000   0.01267  Uiso   1.00
Zn3    Zn    0.00000   0.50000   0.50000   0.01267  Uiso   1.00
Zn4    Zn    0.50000   0.50000  -0.00000   0.01267  Uiso   1.00
Zn5    Zn    0.50000   0.50000   0.50000   0.01267  Uiso   1.00
Zn6    Zn    0.50000   0.00000  -0.00000   0.01267  Uiso   1.00
Zn7    Zn    0.00000   0.50000   0.00000   0.01267  Uiso   1.00
Zn8    Zn    0.00000   1.00000   0.50000   0.01267  Uiso   1.00
H1     H     0.07280   0.04750   0.13230   0.01267  Uiso   1.00
H2     H     0.17110   0.09060   0.20770   0.01267  Uiso   1.00
H3     H     0.22050   0.12590   0.10100   0.01267  Uiso   1.00
H4     H     0.13070   0.08760   0.03690   0.01267  Uiso   1.00
H5     H     0.22620   0.03280   0.14240   0.01267  Uiso   1.00
H6     H     0.27030   0.02650   0.18880   0.01267  Uiso   1.00
H7     H     0.28420   0.03860   0.14260   0.01267  Uiso   1.00
H8     H     0.41520   0.94050   0.36770   0.01267  Uiso   1.00
H9     H     0.38290   0.96340   0.29230   0.01267  Uiso   1.00
H10    H     0.52490   0.11950   0.39900   0.01267  Uiso   1.00
H11    H     0.55070   0.09380   0.46310   0.01267  Uiso   1.00
H12    H     0.39040   0.08380   0.35760   0.01267  Uiso   1.00
H13    H     0.33770   0.08150   0.31120   0.01267  Uiso   1.00
H14    H     0.39600   0.14160   0.35740   0.01267  Uiso   1.00
H15    H     0.08480   0.45250   0.52530   0.01267  Uiso   1.00
H16    H     0.11710   0.40940   0.58050   0.01267  Uiso   1.00
H17    H     0.97510   0.37410   0.59460   0.01267  Uiso   1.00
H18    H     0.94930   0.41240   0.54310   0.01267  Uiso   1.00
H19    H     0.10960   0.46720   0.69340   0.01267  Uiso   1.00
H20    H     0.16230   0.47350   0.74380   0.01267  Uiso   1.00
H21    H     0.10400   0.46140   0.74560   0.01267  Uiso   1.00
H22    H     0.42720   0.55950   0.97470   0.01267  Uiso   1.00
H23    H     0.32890   0.53660   0.91950   0.01267  Uiso   1.00
H24    H     0.27950   0.38050   0.90540   0.01267  Uiso   1.00
H25    H     0.36930   0.40620   0.95690   0.01267  Uiso   1.00
H26    H     0.27380   0.41620   0.80660   0.01267  Uiso   1.00
H27    H     0.22970   0.41850   0.75620   0.01267  Uiso   1.00
H28    H     0.21580   0.35840   0.75440   0.01267  Uiso   1.00
H29    H     0.02530   0.08480   0.95250   0.01267  Uiso   1.00
H30    H     0.08050   0.11710   0.90940   0.01267  Uiso   1.00
H31    H     0.09460   0.97510   0.87410   0.01267  Uiso   1.00
H32    H     0.04310   0.94930   0.91240   0.01267  Uiso   1.00
H33    H     0.19340   0.10960   0.96720   0.01267  Uiso   1.00
H34    H     0.24380   0.16230   0.97350   0.01267  Uiso   1.00
H35    H     0.24560   0.10400   0.96140   0.01267  Uiso   1.00
H36    H     0.47470   0.42720   0.05950   0.01267  Uiso   1.00
H37    H     0.41950   0.32890   0.03660   0.01267  Uiso   1.00
H38    H     0.40540   0.27950   0.88050   0.01267  Uiso   1.00
H39    H     0.45690   0.36930   0.90620   0.01267  Uiso   1.00
H40    H     0.30660   0.27380   0.91620   0.01267  Uiso   1.00
H41    H     0.25620   0.22970   0.91850   0.01267  Uiso   1.00
H42    H     0.25440   0.21580   0.85840   0.01267  Uiso   1.00
H43    H     0.63230   0.07280   0.54750   0.01267  Uiso   1.00
H44    H     0.70770   0.17110   0.59060   0.01267  Uiso   1.00
H45    H     0.60100   0.22050   0.62590   0.01267  Uiso   1.00
H46    H     0.53690   0.13070   0.58760   0.01267  Uiso   1.00
H47    H     0.64240   0.22620   0.53280   0.01267  Uiso   1.00
H48    H     0.68880   0.27030   0.52650   0.01267  Uiso   1.00
H49    H     0.64260   0.28420   0.53860   0.01267  Uiso   1.00
H50    H     0.86770   0.41520   0.44050   0.01267  Uiso   1.00
H51    H     0.79230   0.38290   0.46340   0.01267  Uiso   1.00
H52    H     0.89900   0.52490   0.61950   0.01267  Uiso   1.00
H53    H     0.96310   0.55070   0.59380   0.01267  Uiso   1.00
H54    H     0.85760   0.39040   0.58380   0.01267  Uiso   1.00
H55    H     0.81120   0.33770   0.58150   0.01267  Uiso   1.00
H56    H     0.85740   0.39600   0.64160   0.01267  Uiso   1.00
H57    H     0.94050   0.86770   0.91520   0.01267  Uiso   1.00
H58    H     0.96340   0.79230   0.88290   0.01267  Uiso   1.00
H59    H     0.11950   0.89900   0.02490   0.01267  Uiso   1.00
H60    H     0.09380   0.96310   0.05070   0.01267  Uiso   1.00
H61    H     0.08380   0.85760   0.89040   0.01267  Uiso   1.00
H62    H     0.08150   0.81120   0.83770   0.01267  Uiso   1.00
H63    H     0.14160   0.85740   0.89600   0.01267  Uiso   1.00
H64    H     0.04750   0.63230   0.57280   0.01267  Uiso   1.00
H65    H     0.09060   0.70770   0.67110   0.01267  Uiso   1.00
H66    H     0.12590   0.60100   0.72050   0.01267  Uiso   1.00
H67    H     0.08760   0.53690   0.63070   0.01267  Uiso   1.00
H68    H     0.03280   0.64240   0.72620   0.01267  Uiso   1.00
H69    H     0.02650   0.68880   0.77030   0.01267  Uiso   1.00
H70    H     0.03860   0.64260   0.78420   0.01267  Uiso   1.00
H71    H     0.55950   0.47470   0.92720   0.01267  Uiso   1.00
H72    H     0.53660   0.41950   0.82890   0.01267  Uiso   1.00
H73    H     0.38050   0.40540   0.77950   0.01267  Uiso   1.00
H74    H     0.40620   0.45690   0.86930   0.01267  Uiso   1.00
H75    H     0.41620   0.30660   0.77380   0.01267  Uiso   1.00
H76    H     0.41850   0.25620   0.72970   0.01267  Uiso   1.00
H77    H     0.35840   0.25440   0.71580   0.01267  Uiso   1.00
H78    H     0.45250   0.02530   0.58480   0.01267  Uiso   1.00
H79    H     0.40940   0.08050   0.61710   0.01267  Uiso   1.00
H80    H     0.37410   0.09460   0.47510   0.01267  Uiso   1.00
H81    H     0.41240   0.04310   0.44930   0.01267  Uiso   1.00
H82    H     0.46720   0.19340   0.60960   0.01267  Uiso   1.00
H83    H     0.47350   0.24380   0.66230   0.01267  Uiso   1.00
H84    H     0.46140   0.24560   0.60400   0.01267  Uiso   1.00
H85    H     0.45250   0.42720   0.36770   0.01267  Uiso   1.00
H86    H     0.40940   0.32890   0.29230   0.01267  Uiso   1.00
H87    H     0.37410   0.27950   0.39900   0.01267  Uiso   1.00
H88    H     0.41240   0.36930   0.46310   0.01267  Uiso   1.00
H89    H     0.46720   0.27380   0.35760   0.01267  Uiso   1.00
H90    H     0.47350   0.22970   0.31120   0.01267  Uiso   1.00
H91    H     0.46140   0.21580   0.35740   0.01267  Uiso   1.00
H92    H     0.55950   0.08480   0.13230   0.01267  Uiso   1.00
H93    H     0.53660   0.11710   0.20770   0.01267  Uiso   1.00
H94    H     0.38050   0.97510   0.10100   0.01267  Uiso   1.00
H95    H     0.40620   0.94930   0.03690   0.01267  Uiso   1.00
H96    H     0.41620   0.10960   0.14240   0.01267  Uiso   1.00
H97    H     0.41850   0.16230   0.18880   0.01267  Uiso   1.00
H98    H     0.35840   0.10400   0.14260   0.01267  Uiso   1.00
H99    H     0.04750   0.41520   0.97470   0.01267  Uiso   1.00
H100   H     0.09060   0.38290   0.91950   0.01267  Uiso   1.00
H101   H     0.12590   0.52490   0.90540   0.01267  Uiso   1.00
H102   H     0.08760   0.55070   0.95690   0.01267  Uiso   1.00
H103   H     0.03280   0.39040   0.80660   0.01267  Uiso   1.00
H104   H     0.02650   0.33770   0.75620   0.01267  Uiso   1.00
H105   H     0.03860   0.39600   0.75440   0.01267  Uiso   1.00
H106   H     0.94050   0.07280   0.52530   0.01267  Uiso   1.00
H107   H     0.96340   0.17110   0.58050   0.01267  Uiso   1.00
H108   H     0.11950   0.22050   0.59460   0.01267  Uiso   1.00
H109   H     0.09380   0.13070   0.54310   0.01267  Uiso   1.00
H110   H     0.08380   0.22620   0.69340   0.01267  Uiso   1.00
H111   H     0.08150   0.27030   0.74380   0.01267  Uiso   1.00
H112   H     0.14160   0.28420   0.74560   0.01267  Uiso   1.00
H113   H     0.41520   0.47470   0.54750   0.01267  Uiso   1.00
H114   H     0.38290   0.41950   0.59060   0.01267  Uiso   1.00
H115   H     0.52490   0.40540   0.62590   0.01267  Uiso   1.00
H116   H     0.55070   0.45690   0.58760   0.01267  Uiso   1.00
H117   H     0.39040   0.30660   0.53280   0.01267  Uiso   1.00
H118   H     0.33770   0.25620   0.52650   0.01267  Uiso   1.00
H119   H     0.39600   0.25440   0.53860   0.01267  Uiso   1.00
H120   H     0.07280   0.02530   0.44050   0.01267  Uiso   1.00
H121   H     0.17110   0.08050   0.46340   0.01267  Uiso   1.00
H122   H     0.22050   0.09460   0.61950   0.01267  Uiso   1.00
H123   H     0.13070   0.04310   0.59380   0.01267  Uiso   1.00
H124   H     0.22620   0.19340   0.58380   0.01267  Uiso   1.00
H125   H     0.27030   0.24380   0.58150   0.01267  Uiso   1.00
H126   H     0.28420   0.24560   0.64160   0.01267  Uiso   1.00
H127   H     0.42720   0.86770   0.95250   0.01267  Uiso   1.00
H128   H     0.32890   0.79230   0.90940   0.01267  Uiso   1.00
H129   H     0.27950   0.89900   0.87410   0.01267  Uiso   1.00
H130   H     0.36930   0.96310   0.91240   0.01267  Uiso   1.00
H131   H     0.27380   0.85760   0.96720   0.01267  Uiso   1.00
H132   H     0.22970   0.81120   0.97350   0.01267  Uiso   1.00
H133   H     0.21580   0.85740   0.96140   0.01267  Uiso   1.00
H134   H     0.08480   0.63230   0.05950   0.01267  Uiso   1.00
H135   H     0.11710   0.70770   0.03660   0.01267  Uiso   1.00
H136   H     0.97510   0.60100   0.88050   0.01267  Uiso   1.00
H137   H     0.94930   0.53690   0.90620   0.01267  Uiso   1.00
H138   H     0.10960   0.64240   0.91620   0.01267  Uiso   1.00
H139   H     0.16230   0.68880   0.91850   0.01267  Uiso   1.00
H140   H     0.10400   0.64260   0.85840   0.01267  Uiso   1.00
H141   H     0.63230   0.55950   0.58480   0.01267  Uiso   1.00
H142   H     0.70770   0.53660   0.61710   0.01267  Uiso   1.00
H143   H     0.60100   0.38050   0.47510   0.01267  Uiso   1.00
H144   H     0.53690   0.40620   0.44930   0.01267  Uiso   1.00
H145   H     0.64240   0.41620   0.60960   0.01267  Uiso   1.00
H146   H     0.68880   0.41850   0.66230   0.01267  Uiso   1.00
H147   H     0.64260   0.35840   0.60400   0.01267  Uiso   1.00
H148   H     0.86770   0.45250   0.92720   0.01267  Uiso   1.00
H149   H     0.79230   0.40940   0.82890   0.01267  Uiso   1.00
H150   H     0.89900   0.37410   0.77950   0.01267  Uiso   1.00
H151   H     0.96310   0.41240   0.86930   0.01267  Uiso   1.00
H152   H     0.85760   0.46720   0.77380   0.01267  Uiso   1.00
H153   H     0.81120   0.47350   0.72970   0.01267  Uiso   1.00
H154   H     0.85740   0.46140   0.71580   0.01267  Uiso   1.00
H155   H     0.02530   0.94050   0.57280   0.01267  Uiso   1.00
H156   H     0.08050   0.96340   0.67110   0.01267  Uiso   1.00
H157   H     0.09460   0.11950   0.72050   0.01267  Uiso   1.00
H158   H     0.04310   0.09380   0.63070   0.01267  Uiso   1.00
H159   H     0.19340   0.08380   0.72620   0.01267  Uiso   1.00
H160   H     0.24380   0.08150   0.77030   0.01267  Uiso   1.00
H161   H     0.24560   0.14160   0.78420   0.01267  Uiso   1.00
H162   H     0.47470   0.04750   0.91520   0.01267  Uiso   1.00
H163   H     0.41950   0.09060   0.88290   0.01267  Uiso   1.00
H164   H     0.40540   0.12590   0.02490   0.01267  Uiso   1.00
H165   H     0.45690   0.08760   0.05070   0.01267  Uiso   1.00
H166   H     0.30660   0.03280   0.89040   0.01267  Uiso   1.00
H167   H     0.25620   0.02650   0.83770   0.01267  Uiso   1.00
H168   H     0.25440   0.03860   0.89600   0.01267  Uiso   1.00
H169   H     0.92720   0.95250   0.86770   0.01267  Uiso   1.00
H170   H     0.82890   0.90940   0.79230   0.01267  Uiso   1.00
H171   H     0.77950   0.87410   0.89900   0.01267  Uiso   1.00
H172   H     0.86930   0.91240   0.96310   0.01267  Uiso   1.00
H173   H     0.77380   0.96720   0.85760   0.01267  Uiso   1.00
H174   H     0.72970   0.97350   0.81120   0.01267  Uiso   1.00
H175   H     0.71580   0.96140   0.85740   0.01267  Uiso   1.00
H176   H     0.58480   0.05950   0.63230   0.01267  Uiso   1.00
H177   H     0.61710   0.03660   0.70770   0.01267  Uiso   1.00
H178   H     0.47510   0.88050   0.60100   0.01267  Uiso   1.00
H179   H     0.44930   0.90620   0.53690   0.01267  Uiso   1.00
H180   H     0.60960   0.91620   0.64240   0.01267  Uiso   1.00
H181   H     0.66230   0.91850   0.68880   0.01267  Uiso   1.00
H182   H     0.60400   0.85840   0.64260   0.01267  Uiso   1.00
H183   H     0.91520   0.54750   0.47470   0.01267  Uiso   1.00
H184   H     0.88290   0.59060   0.41950   0.01267  Uiso   1.00
H185   H     0.02490   0.62590   0.40540   0.01267  Uiso   1.00
H186   H     0.05070   0.58760   0.45690   0.01267  Uiso   1.00
H187   H     0.89040   0.53280   0.30660   0.01267  Uiso   1.00
H188   H     0.83770   0.52650   0.25620   0.01267  Uiso   1.00
H189   H     0.89600   0.53860   0.25440   0.01267  Uiso   1.00
H190   H     0.57280   0.44050   0.02530   0.01267  Uiso   1.00
H191   H     0.67110   0.46340   0.08050   0.01267  Uiso   1.00
H192   H     0.72050   0.61950   0.09460   0.01267  Uiso   1.00
H193   H     0.63070   0.59380   0.04310   0.01267  Uiso   1.00
H194   H     0.72620   0.58380   0.19340   0.01267  Uiso   1.00
H195   H     0.77030   0.58150   0.24380   0.01267  Uiso   1.00
H196   H     0.78420   0.64160   0.24560   0.01267  Uiso   1.00
H197   H     0.97470   0.91520   0.04750   0.01267  Uiso   1.00
H198   H     0.91950   0.88290   0.09060   0.01267  Uiso   1.00
H199   H     0.90540   0.02490   0.12590   0.01267  Uiso   1.00
H200   H     0.95690   0.05070   0.08760   0.01267  Uiso   1.00
H201   H     0.80660   0.89040   0.03280   0.01267  Uiso   1.00
H202   H     0.75620   0.83770   0.02650   0.01267  Uiso   1.00
H203   H     0.75440   0.89600   0.03860   0.01267  Uiso   1.00
H204   H     0.52530   0.57280   0.94050   0.01267  Uiso   1.00
H205   H     0.58050   0.67110   0.96340   0.01267  Uiso   1.00
H206   H     0.59460   0.72050   0.11950   0.01267  Uiso   1.00
H207   H     0.54310   0.63070   0.09380   0.01267  Uiso   1.00
H208   H     0.69340   0.72620   0.08380   0.01267  Uiso   1.00
H209   H     0.74380   0.77030   0.08150   0.01267  Uiso   1.00
H210   H     0.74560   0.78420   0.14160   0.01267  Uiso   1.00
H211   H     0.36770   0.92720   0.45250   0.01267  Uiso   1.00
H212   H     0.29230   0.82890   0.40940   0.01267  Uiso   1.00
H213   H     0.39900   0.77950   0.37410   0.01267  Uiso   1.00
H214   H     0.46310   0.86930   0.41240   0.01267  Uiso   1.00
H215   H     0.35760   0.77380   0.46720   0.01267  Uiso   1.00
H216   H     0.31120   0.72970   0.47350   0.01267  Uiso   1.00
H217   H     0.35740   0.71580   0.46140   0.01267  Uiso   1.00
H218   H     0.13230   0.58480   0.55950   0.01267  Uiso   1.00
H219   H     0.20770   0.61710   0.53660   0.01267  Uiso   1.00
H220   H     0.10100   0.47510   0.38050   0.01267  Uiso   1.00
H221   H     0.03690   0.44930   0.40620   0.01267  Uiso   1.00
H222   H     0.14240   0.60960   0.41620   0.01267  Uiso   1.00
H223   H     0.18880   0.66230   0.41850   0.01267  Uiso   1.00
H224   H     0.14260   0.60400   0.35840   0.01267  Uiso   1.00
H225   H     0.05950   0.13230   0.08480   0.01267  Uiso   1.00
H226   H     0.03660   0.20770   0.11710   0.01267  Uiso   1.00
H227   H     0.88050   0.10100   0.97510   0.01267  Uiso   1.00
H228   H     0.90620   0.03690   0.94930   0.01267  Uiso   1.00
H229   H     0.91620   0.14240   0.10960   0.01267  Uiso   1.00
H230   H     0.91850   0.18880   0.16230   0.01267  Uiso   1.00
H231   H     0.85840   0.14260   0.10400   0.01267  Uiso   1.00
H232   H     0.95250   0.36770   0.42720   0.01267  Uiso   1.00
H233   H     0.90940   0.29230   0.32890   0.01267  Uiso   1.00
H234   H     0.87410   0.39900   0.27950   0.01267  Uiso   1.00
H235   H     0.91240   0.46310   0.36930   0.01267  Uiso   1.00
H236   H     0.96720   0.35760   0.27380   0.01267  Uiso   1.00
H237   H     0.97350   0.31120   0.22970   0.01267  Uiso   1.00
H238   H     0.96140   0.35740   0.21580   0.01267  Uiso   1.00
H239   H     0.44050   0.52530   0.07280   0.01267  Uiso   1.00
H240   H     0.46340   0.58050   0.17110   0.01267  Uiso   1.00
H241   H     0.61950   0.59460   0.22050   0.01267  Uiso   1.00
H242   H     0.59380   0.54310   0.13070   0.01267  Uiso   1.00
H243   H     0.58380   0.69340   0.22620   0.01267  Uiso   1.00
H244   H     0.58150   0.74380   0.27030   0.01267  Uiso   1.00
H245   H     0.64160   0.74560   0.28420   0.01267  Uiso   1.00
H246   H     0.54750   0.97470   0.41520   0.01267  Uiso   1.00
H247   H     0.59060   0.91950   0.38290   0.01267  Uiso   1.00
H248   H     0.62590   0.90540   0.52490   0.01267  Uiso   1.00
H249   H     0.58760   0.95690   0.55070   0.01267  Uiso   1.00
H250   H     0.53280   0.80660   0.39040   0.01267  Uiso   1.00
H251   H     0.52650   0.75620   0.33770   0.01267  Uiso   1.00
H252   H     0.53860   0.75440   0.39600   0.01267  Uiso   1.00
H253   H     0.54750   0.57280   0.63230   0.01267  Uiso   1.00
H254   H     0.59060   0.67110   0.70770   0.01267  Uiso   1.00
H255   H     0.62590   0.72050   0.60100   0.01267  Uiso   1.00
H256   H     0.58760   0.63070   0.53690   0.01267  Uiso   1.00
H257   H     0.53280   0.72620   0.64240   0.01267  Uiso   1.00
H258   H     0.52650   0.77030   0.68880   0.01267  Uiso   1.00
H259   H     0.53860   0.78420   0.64260   0.01267  Uiso   1.00
H260   H     0.44050   0.91520   0.86770   0.01267  Uiso   1.00
H261   H     0.46340   0.88290   0.79230   0.01267  Uiso   1.00
H262   H     0.61950   0.02490   0.89900   0.01267  Uiso   1.00
H263   H     0.59380   0.05070   0.96310   0.01267  Uiso   1.00
H264   H     0.58380   0.89040   0.85760   0.01267  Uiso   1.00
H265   H     0.58150   0.83770   0.81120   0.01267  Uiso   1.00
H266   H     0.64160   0.89600   0.85740   0.01267  Uiso   1.00
H267   H     0.95250   0.58480   0.02530   0.01267  Uiso   1.00
H268   H     0.90940   0.61710   0.08050   0.01267  Uiso   1.00
H269   H     0.87410   0.47510   0.09460   0.01267  Uiso   1.00
H270   H     0.91240   0.44930   0.04310   0.01267  Uiso   1.00
H271   H     0.96720   0.60960   0.19340   0.01267  Uiso   1.00
H272   H     0.97350   0.66230   0.24380   0.01267  Uiso   1.00
H273   H     0.96140   0.60400   0.24560   0.01267  Uiso   1.00
H274   H     0.05950   0.92720   0.47470   0.01267  Uiso   1.00
H275   H     0.03660   0.82890   0.41950   0.01267  Uiso   1.00
H276   H     0.88050   0.77950   0.40540   0.01267  Uiso   1.00
H277   H     0.90620   0.86930   0.45690   0.01267  Uiso   1.00
H278   H     0.91620   0.77380   0.30660   0.01267  Uiso   1.00
H279   H     0.91850   0.72970   0.25620   0.01267  Uiso   1.00
H280   H     0.85840   0.71580   0.25440   0.01267  Uiso   1.00
H281   H     0.58480   0.52530   0.45250   0.01267  Uiso   1.00
H282   H     0.61710   0.58050   0.40940   0.01267  Uiso   1.00
H283   H     0.47510   0.59460   0.37410   0.01267  Uiso   1.00
H284   H     0.44930   0.54310   0.41240   0.01267  Uiso   1.00
H285   H     0.60960   0.69340   0.46720   0.01267  Uiso   1.00
H286   H     0.66230   0.74380   0.47350   0.01267  Uiso   1.00
H287   H     0.60400   0.74560   0.46140   0.01267  Uiso   1.00
H288   H     0.92720   0.97470   0.55950   0.01267  Uiso   1.00
H289   H     0.82890   0.91950   0.53660   0.01267  Uiso   1.00
H290   H     0.77950   0.90540   0.38050   0.01267  Uiso   1.00
H291   H     0.86930   0.95690   0.40620   0.01267  Uiso   1.00
H292   H     0.77380   0.80660   0.41620   0.01267  Uiso   1.00
H293   H     0.72970   0.75620   0.41850   0.01267  Uiso   1.00
H294   H     0.71580   0.75440   0.35840   0.01267  Uiso   1.00
H295   H     0.57280   0.13230   0.04750   0.01267  Uiso   1.00
H296   H     0.67110   0.20770   0.09060   0.01267  Uiso   1.00
H297   H     0.72050   0.10100   0.12590   0.01267  Uiso   1.00
H298   H     0.63070   0.03690   0.08760   0.01267  Uiso   1.00
H299   H     0.72620   0.14240   0.03280   0.01267  Uiso   1.00
H300   H     0.77030   0.18880   0.02650   0.01267  Uiso   1.00
H301   H     0.78420   0.14260   0.03860   0.01267  Uiso   1.00
H302   H     0.91520   0.36770   0.94050   0.01267  Uiso   1.00
H303   H     0.88290   0.29230   0.96340   0.01267  Uiso   1.00
H304   H     0.02490   0.39900   0.11950   0.01267  Uiso   1.00
H305   H     0.05070   0.46310   0.09380   0.01267  Uiso   1.00
H306   H     0.89040   0.35760   0.08380   0.01267  Uiso   1.00
H307   H     0.83770   0.31120   0.08150   0.01267  Uiso   1.00
H308   H     0.89600   0.35740   0.14160   0.01267  Uiso   1.00
H309   H     0.36770   0.44050   0.41520   0.01267  Uiso   1.00
H310   H     0.29230   0.46340   0.38290   0.01267  Uiso   1.00
H311   H     0.39900   0.61950   0.52490   0.01267  Uiso   1.00
H312   H     0.46310   0.59380   0.55070   0.01267  Uiso   1.00
H313   H     0.35760   0.58380   0.39040   0.01267  Uiso   1.00
H314   H     0.31120   0.58150   0.33770   0.01267  Uiso   1.00
H315   H     0.35740   0.64160   0.39600   0.01267  Uiso   1.00
H316   H     0.13230   0.54750   0.07280   0.01267  Uiso   1.00
H317   H     0.20770   0.59060   0.17110   0.01267  Uiso   1.00
H318   H     0.10100   0.62590   0.22050   0.01267  Uiso   1.00
H319   H     0.03690   0.58760   0.13070   0.01267  Uiso   1.00
H320   H     0.14240   0.53280   0.22620   0.01267  Uiso   1.00
H321   H     0.18880   0.52650   0.27030   0.01267  Uiso   1.00
H322   H     0.14260   0.53860   0.28420   0.01267  Uiso   1.00
H323   H     0.97470   0.05950   0.42720   0.01267  Uiso   1.00
H324   H     0.91950   0.03660   0.32890   0.01267  Uiso   1.00
H325   H     0.90540   0.88050   0.27950   0.01267  Uiso   1.00
H326   H     0.95690   0.90620   0.36930   0.01267  Uiso   1.00
H327   H     0.80660   0.91620   0.27380   0.01267  Uiso   1.00
H328   H     0.75620   0.91850   0.22970   0.01267  Uiso   1.00
H329   H     0.75440   0.85840   0.21580   0.01267  Uiso   1.00
H330   H     0.52530   0.95250   0.08480   0.01267  Uiso   1.00
H331   H     0.58050   0.90940   0.11710   0.01267  Uiso   1.00
H332   H     0.59460   0.87410   0.97510   0.01267  Uiso   1.00
H333   H     0.54310   0.91240   0.94930   0.01267  Uiso   1.00
H334   H     0.69340   0.96720   0.10960   0.01267  Uiso   1.00
H335   H     0.74380   0.97350   0.16230   0.01267  Uiso   1.00
H336   H     0.74560   0.96140   0.10400   0.01267  Uiso   1.00
C1     C     0.10312   0.06241   0.12505   0.01267  Uiso   1.00
C2     C     0.16310   0.09001   0.17231   0.01267  Uiso   1.00
C3     C     0.20693   0.11486   0.16211   0.01267  Uiso   1.00
C4     C     0.19148   0.11058   0.10970   0.01267  Uiso   1.00
C5     C     0.13785   0.08594   0.07117   0.01267  Uiso   1.00
C6     C     0.26827   0.14354   0.20805   0.01267  Uiso   1.00
C7     C     0.29890   0.11266   0.20916   0.01267  Uiso   1.00
C8     C     0.26691   0.04649   0.16680   0.01267  Uiso   1.00
C9     C     0.43736   0.97807   0.37495   0.01267  Uiso   1.00
C10    C     0.41770   0.99079   0.32769   0.01267  Uiso   1.00
C11    C     0.45275   0.04482   0.33789   0.01267  Uiso   1.00
C12    C     0.50088   0.08178   0.39030   0.01267  Uiso   1.00
C13    C     0.51477   0.06668   0.42883   0.01267  Uiso   1.00
C14    C     0.43549   0.06022   0.29195   0.01267  Uiso   1.00
C15    C     0.40350   0.08974   0.29084   0.01267  Uiso   1.00
C16    C     0.37969   0.10011   0.33320   0.01267  Uiso   1.00
C17    C     0.06264   0.43759   0.54071   0.01267  Uiso   1.00
C18    C     0.08230   0.40999   0.57309   0.01267  Uiso   1.00
C19    C     0.04725   0.38514   0.59207   0.01267  Uiso   1.00
C20    C     0.99912   0.38942   0.58090   0.01267  Uiso   1.00
C21    C     0.98523   0.41406   0.55191   0.01267  Uiso   1.00
C22    C     0.06451   0.35646   0.62473   0.01267  Uiso   1.00
C23    C     0.09650   0.38734   0.68624   0.01267  Uiso   1.00
C24    C     0.12031   0.45351   0.72042   0.01267  Uiso   1.00
C25    C     0.39688   0.52193   0.95929   0.01267  Uiso   1.00
C26    C     0.33690   0.50921   0.92691   0.01267  Uiso   1.00
C27    C     0.29307   0.45518   0.90793   0.01267  Uiso   1.00
C28    C     0.30852   0.41822   0.91910   0.01267  Uiso   1.00
C29    C     0.36215   0.43332   0.94809   0.01267  Uiso   1.00
C30    C     0.23173   0.43978   0.87527   0.01267  Uiso   1.00
C31    C     0.20110   0.41026   0.81376   0.01267  Uiso   1.00
C32    C     0.23309   0.39989   0.77958   0.01267  Uiso   1.00
C33    C     0.04071   0.06264   0.93759   0.01267  Uiso   1.00
C34    C     0.07309   0.08230   0.90999   0.01267  Uiso   1.00
C35    C     0.09207   0.04725   0.88514   0.01267  Uiso   1.00
C36    C     0.08090   0.99912   0.88942   0.01267  Uiso   1.00
C37    C     0.05191   0.98523   0.91406   0.01267  Uiso   1.00
C38    C     0.12473   0.06451   0.85646   0.01267  Uiso   1.00
C39    C     0.18624   0.09650   0.88734   0.01267  Uiso   1.00
C40    C     0.22042   0.12031   0.95351   0.01267  Uiso   1.00
C41    C     0.45929   0.39688   0.02193   0.01267  Uiso   1.00
C42    C     0.42691   0.33690   0.00921   0.01267  Uiso   1.00
C43    C     0.40793   0.29307   0.95518   0.01267  Uiso   1.00
C44    C     0.41910   0.30852   0.91822   0.01267  Uiso   1.00
C45    C     0.44809   0.36215   0.93332   0.01267  Uiso   1.00
C46    C     0.37527   0.23173   0.93978   0.01267  Uiso   1.00
C47    C     0.31376   0.20110   0.91026   0.01267  Uiso   1.00
C48    C     0.27958   0.23309   0.89989   0.01267  Uiso   1.00
C49    C     0.62505   0.10312   0.56241   0.01267  Uiso   1.00
C50    C     0.67231   0.16310   0.59001   0.01267  Uiso   1.00
C51    C     0.66211   0.20693   0.61486   0.01267  Uiso   1.00
C52    C     0.60970   0.19148   0.61058   0.01267  Uiso   1.00
C53    C     0.57117   0.13785   0.58594   0.01267  Uiso   1.00
C54    C     0.70805   0.26827   0.64354   0.01267  Uiso   1.00
C55    C     0.70916   0.29890   0.61266   0.01267  Uiso   1.00
C56    C     0.66680   0.26691   0.54649   0.01267  Uiso   1.00
C57    C     0.87495   0.43736   0.47807   0.01267  Uiso   1.00
C58    C     0.82769   0.41770   0.49079   0.01267  Uiso   1.00
C59    C     0.83789   0.45275   0.54482   0.01267  Uiso   1.00
C60    C     0.89030   0.50088   0.58178   0.01267  Uiso   1.00
C61    C     0.92883   0.51477   0.56668   0.01267  Uiso   1.00
C62    C     0.79195   0.43549   0.56022   0.01267  Uiso   1.00
C63    C     0.79084   0.40350   0.58974   0.01267  Uiso   1.00
C64    C     0.83320   0.37969   0.60011   0.01267  Uiso   1.00
C65    C     0.97807   0.87495   0.93736   0.01267  Uiso   1.00
C66    C     0.99079   0.82769   0.91770   0.01267  Uiso   1.00
C67    C     0.04482   0.83789   0.95275   0.01267  Uiso   1.00
C68    C     0.08178   0.89030   0.00088   0.01267  Uiso   1.00
C69    C     0.06668   0.92883   0.01477   0.01267  Uiso   1.00
C70    C     0.06022   0.79195   0.93549   0.01267  Uiso   1.00
C71    C     0.08974   0.79084   0.90350   0.01267  Uiso   1.00
C72    C     0.10011   0.83320   0.87969   0.01267  Uiso   1.00
C73    C     0.06241   0.62505   0.60312   0.01267  Uiso   1.00
C74    C     0.09001   0.67231   0.66310   0.01267  Uiso   1.00
C75    C     0.11486   0.66211   0.70693   0.01267  Uiso   1.00
C76    C     0.11058   0.60970   0.69148   0.01267  Uiso   1.00
C77    C     0.08594   0.57117   0.63785   0.01267  Uiso   1.00
C78    C     0.14354   0.70805   0.76827   0.01267  Uiso   1.00
C79    C     0.11266   0.70916   0.79890   0.01267  Uiso   1.00
C80    C     0.04649   0.66680   0.76691   0.01267  Uiso   1.00
C81    C     0.52193   0.45929   0.89688   0.01267  Uiso   1.00
C82    C     0.50921   0.42691   0.83690   0.01267  Uiso   1.00
C83    C     0.45518   0.40793   0.79307   0.01267  Uiso   1.00
C84    C     0.41822   0.41910   0.80852   0.01267  Uiso   1.00
C85    C     0.43332   0.44809   0.86215   0.01267  Uiso   1.00
C86    C     0.43978   0.37527   0.73173   0.01267  Uiso   1.00
C87    C     0.41026   0.31376   0.70110   0.01267  Uiso   1.00
C88    C     0.39989   0.27958   0.73309   0.01267  Uiso   1.00
C89    C     0.43759   0.04071   0.56264   0.01267  Uiso   1.00
C90    C     0.40999   0.07309   0.58230   0.01267  Uiso   1.00
C91    C     0.38514   0.09207   0.54725   0.01267  Uiso   1.00
C92    C     0.38942   0.08090   0.49912   0.01267  Uiso   1.00
C93    C     0.41406   0.05191   0.48523   0.01267  Uiso   1.00
C94    C     0.35646   0.12473   0.56451   0.01267  Uiso   1.00
C95    C     0.38734   0.18624   0.59650   0.01267  Uiso   1.00
C96    C     0.45351   0.22042   0.62031   0.01267  Uiso   1.00
C97    C     0.43759   0.39688   0.37495   0.01267  Uiso   1.00
C98    C     0.40999   0.33690   0.32769   0.01267  Uiso   1.00
C99    C     0.38514   0.29307   0.33789   0.01267  Uiso   1.00
C100   C     0.38942   0.30852   0.39030   0.01267  Uiso   1.00
C101   C     0.41406   0.36215   0.42883   0.01267  Uiso   1.00
C102   C     0.35646   0.23173   0.29195   0.01267  Uiso   1.00
C103   C     0.38734   0.20110   0.29084   0.01267  Uiso   1.00
C104   C     0.45351   0.23309   0.33320   0.01267  Uiso   1.00
C105   C     0.52193   0.06264   0.12505   0.01267  Uiso   1.00
C106   C     0.50921   0.08230   0.17231   0.01267  Uiso   1.00
C107   C     0.45518   0.04725   0.16211   0.01267  Uiso   1.00
C108   C     0.41822   0.99912   0.10970   0.01267  Uiso   1.00
C109   C     0.43332   0.98523   0.07117   0.01267  Uiso   1.00
C110   C     0.43978   0.06451   0.20805   0.01267  Uiso   1.00
C111   C     0.41026   0.09650   0.20916   0.01267  Uiso   1.00
C112   C     0.39989   0.12031   0.16680   0.01267  Uiso   1.00
C113   C     0.06241   0.43736   0.95929   0.01267  Uiso   1.00
C114   C     0.09001   0.41770   0.92691   0.01267  Uiso   1.00
C115   C     0.11486   0.45275   0.90793   0.01267  Uiso   1.00
C116   C     0.11058   0.50088   0.91910   0.01267  Uiso   1.00
C117   C     0.08594   0.51477   0.94809   0.01267  Uiso   1.00
C118   C     0.14354   0.43549   0.87527   0.01267  Uiso   1.00
C119   C     0.11266   0.40350   0.81376   0.01267  Uiso   1.00
C120   C     0.04649   0.37969   0.77958   0.01267  Uiso   1.00
C121   C     0.97807   0.10312   0.54071   0.01267  Uiso   1.00
C122   C     0.99079   0.16310   0.57309   0.01267  Uiso   1.00
C123   C     0.04482   0.20693   0.59207   0.01267  Uiso   1.00
C124   C     0.08178   0.19148   0.58090   0.01267  Uiso   1.00
C125   C     0.06668   0.13785   0.55191   0.01267  Uiso   1.00
C126   C     0.06022   0.26827   0.62473   0.01267  Uiso   1.00
C127   C     0.08974   0.29890   0.68624   0.01267  Uiso   1.00
C128   C     0.10011   0.26691   0.72042   0.01267  Uiso   1.00
C129   C     0.43736   0.45929   0.56241   0.01267  Uiso   1.00
C130   C     0.41770   0.42691   0.59001   0.01267  Uiso   1.00
C131   C     0.45275   0.40793   0.61486   0.01267  Uiso   1.00
C132   C     0.50088   0.41910   0.61058   0.01267  Uiso   1.00
C133   C     0.51477   0.44809   0.58594   0.01267  Uiso   1.00
C134   C     0.43549   0.37527   0.64354   0.01267  Uiso   1.00
C135   C     0.40350   0.31376   0.61266   0.01267  Uiso   1.00
C136   C     0.37969   0.27958   0.54649   0.01267  Uiso   1.00
C137   C     0.10312   0.04071   0.47807   0.01267  Uiso   1.00
C138   C     0.16310   0.07309   0.49079   0.01267  Uiso   1.00
C139   C     0.20693   0.09207   0.54482   0.01267  Uiso   1.00
C140   C     0.19148   0.08090   0.58178   0.01267  Uiso   1.00
C141   C     0.13785   0.05191   0.56668   0.01267  Uiso   1.00
C142   C     0.26827   0.12473   0.56022   0.01267  Uiso   1.00
C143   C     0.29890   0.18624   0.58974   0.01267  Uiso   1.00
C144   C     0.26691   0.22042   0.60011   0.01267  Uiso   1.00
C145   C     0.39688   0.87495   0.93759   0.01267  Uiso   1.00
C146   C     0.33690   0.82769   0.90999   0.01267  Uiso   1.00
C147   C     0.29307   0.83789   0.88514   0.01267  Uiso   1.00
C148   C     0.30852   0.89030   0.88942   0.01267  Uiso   1.00
C149   C     0.36215   0.92883   0.91406   0.01267  Uiso   1.00
C150   C     0.23173   0.79195   0.85646   0.01267  Uiso   1.00
C151   C     0.20110   0.79084   0.88734   0.01267  Uiso   1.00
C152   C     0.23309   0.83320   0.95351   0.01267  Uiso   1.00
C153   C     0.06264   0.62505   0.02193   0.01267  Uiso   1.00
C154   C     0.08230   0.67231   0.00921   0.01267  Uiso   1.00
C155   C     0.04725   0.66211   0.95518   0.01267  Uiso   1.00
C156   C     0.99912   0.60970   0.91822   0.01267  Uiso   1.00
C157   C     0.98523   0.57117   0.93332   0.01267  Uiso   1.00
C158   C     0.06451   0.70805   0.93978   0.01267  Uiso   1.00
C159   C     0.09650   0.70916   0.91026   0.01267  Uiso   1.00
C160   C     0.12031   0.66680   0.89989   0.01267  Uiso   1.00
C161   C     0.62505   0.52193   0.56264   0.01267  Uiso   1.00
C162   C     0.67231   0.50921   0.58230   0.01267  Uiso   1.00
C163   C     0.66211   0.45518   0.54725   0.01267  Uiso   1.00
C164   C     0.60970   0.41822   0.49912   0.01267  Uiso   1.00
C165   C     0.57117   0.43332   0.48523   0.01267  Uiso   1.00
C166   C     0.70805   0.43978   0.56451   0.01267  Uiso   1.00
C167   C     0.70916   0.41026   0.59650   0.01267  Uiso   1.00
C168   C     0.66680   0.39989   0.62031   0.01267  Uiso   1.00
C169   C     0.87495   0.43759   0.89688   0.01267  Uiso   1.00
C170   C     0.82769   0.40999   0.83690   0.01267  Uiso   1.00
C171   C     0.83789   0.38514   0.79307   0.01267  Uiso   1.00
C172   C     0.89030   0.38942   0.80852   0.01267  Uiso   1.00
C173   C     0.92883   0.41406   0.86215   0.01267  Uiso   1.00
C174   C     0.79195   0.35646   0.73173   0.01267  Uiso   1.00
C175   C     0.79084   0.38734   0.70110   0.01267  Uiso   1.00
C176   C     0.83320   0.45351   0.73309   0.01267  Uiso   1.00
C177   C     0.04071   0.97807   0.60312   0.01267  Uiso   1.00
C178   C     0.07309   0.99079   0.66310   0.01267  Uiso   1.00
C179   C     0.09207   0.04482   0.70693   0.01267  Uiso   1.00
C180   C     0.08090   0.08178   0.69148   0.01267  Uiso   1.00
C181   C     0.05191   0.06668   0.63785   0.01267  Uiso   1.00
C182   C     0.12473   0.06022   0.76827   0.01267  Uiso   1.00
C183   C     0.18624   0.08974   0.79890   0.01267  Uiso   1.00
C184   C     0.22042   0.10011   0.76691   0.01267  Uiso   1.00
C185   C     0.45929   0.06241   0.93736   0.01267  Uiso   1.00
C186   C     0.42691   0.09001   0.91770   0.01267  Uiso   1.00
C187   C     0.40793   0.11486   0.95275   0.01267  Uiso   1.00
C188   C     0.41910   0.11058   0.00088   0.01267  Uiso   1.00
C189   C     0.44809   0.08594   0.01477   0.01267  Uiso   1.00
C190   C     0.37527   0.14354   0.93549   0.01267  Uiso   1.00
C191   C     0.31376   0.11266   0.90350   0.01267  Uiso   1.00
C192   C     0.27958   0.04649   0.87969   0.01267  Uiso   1.00
C193   C     0.89688   0.93759   0.87495   0.01267  Uiso   1.00
C194   C     0.83690   0.90999   0.82769   0.01267  Uiso   1.00
C195   C     0.79307   0.88514   0.83789   0.01267  Uiso   1.00
C196   C     0.80852   0.88942   0.89030   0.01267  Uiso   1.00
C197   C     0.86215   0.91406   0.92883   0.01267  Uiso   1.00
C198   C     0.73173   0.85646   0.79195   0.01267  Uiso   1.00
C199   C     0.70110   0.88734   0.79084   0.01267  Uiso   1.00
C200   C     0.73309   0.95351   0.83320   0.01267  Uiso   1.00
C201   C     0.56264   0.02193   0.62505   0.01267  Uiso   1.00
C202   C     0.58230   0.00921   0.67231   0.01267  Uiso   1.00
C203   C     0.54725   0.95518   0.66211   0.01267  Uiso   1.00
C204   C     0.49912   0.91822   0.60970   0.01267  Uiso   1.00
C205   C     0.48523   0.93332   0.57117   0.01267  Uiso   1.00
C206   C     0.56451   0.93978   0.70805   0.01267  Uiso   1.00
C207   C     0.59650   0.91026   0.70916   0.01267  Uiso   1.00
C208   C     0.62031   0.89989   0.66680   0.01267  Uiso   1.00
C209   C     0.93736   0.56241   0.45929   0.01267  Uiso   1.00
C210   C     0.91770   0.59001   0.42691   0.01267  Uiso   1.00
C211   C     0.95275   0.61486   0.40793   0.01267  Uiso   1.00
C212   C     0.00088   0.61058   0.41910   0.01267  Uiso   1.00
C213   C     0.01477   0.58594   0.44809   0.01267  Uiso   1.00
C214   C     0.93549   0.64354   0.37527   0.01267  Uiso   1.00
C215   C     0.90350   0.61266   0.31376   0.01267  Uiso   1.00
C216   C     0.87969   0.54649   0.27958   0.01267  Uiso   1.00
C217   C     0.60312   0.47807   0.04071   0.01267  Uiso   1.00
C218   C     0.66310   0.49079   0.07309   0.01267  Uiso   1.00
C219   C     0.70693   0.54482   0.09207   0.01267  Uiso   1.00
C220   C     0.69148   0.58178   0.08090   0.01267  Uiso   1.00
C221   C     0.63785   0.56668   0.05191   0.01267  Uiso   1.00
C222   C     0.76827   0.56022   0.12473   0.01267  Uiso   1.00
C223   C     0.79890   0.58974   0.18624   0.01267  Uiso   1.00
C224   C     0.76691   0.60011   0.22042   0.01267  Uiso   1.00
C225   C     0.95929   0.93736   0.06241   0.01267  Uiso   1.00
C226   C     0.92691   0.91770   0.09001   0.01267  Uiso   1.00
C227   C     0.90793   0.95275   0.11486   0.01267  Uiso   1.00
C228   C     0.91910   0.00088   0.11058   0.01267  Uiso   1.00
C229   C     0.94809   0.01477   0.08594   0.01267  Uiso   1.00
C230   C     0.87527   0.93549   0.14354   0.01267  Uiso   1.00
C231   C     0.81376   0.90350   0.11266   0.01267  Uiso   1.00
C232   C     0.77958   0.87969   0.04649   0.01267  Uiso   1.00
C233   C     0.54071   0.60312   0.97807   0.01267  Uiso   1.00
C234   C     0.57309   0.66310   0.99079   0.01267  Uiso   1.00
C235   C     0.59207   0.70693   0.04482   0.01267  Uiso   1.00
C236   C     0.58090   0.69148   0.08178   0.01267  Uiso   1.00
C237   C     0.55191   0.63785   0.06668   0.01267  Uiso   1.00
C238   C     0.62473   0.76827   0.06022   0.01267  Uiso   1.00
C239   C     0.68624   0.79890   0.08974   0.01267  Uiso   1.00
C240   C     0.72042   0.76691   0.10011   0.01267  Uiso   1.00
C241   C     0.37495   0.89688   0.43759   0.01267  Uiso   1.00
C242   C     0.32769   0.83690   0.40999   0.01267  Uiso   1.00
C243   C     0.33789   0.79307   0.38514   0.01267  Uiso   1.00
C244   C     0.39030   0.80852   0.38942   0.01267  Uiso   1.00
C245   C     0.42883   0.86215   0.41406   0.01267  Uiso   1.00
C246   C     0.29195   0.73173   0.35646   0.01267  Uiso   1.00
C247   C     0.29084   0.70110   0.38734   0.01267  Uiso   1.00
C248   C     0.33320   0.73309   0.45351   0.01267  Uiso   1.00
C249   C     0.12505   0.56264   0.52193   0.01267  Uiso   1.00
C250   C     0.17231   0.58230   0.50921   0.01267  Uiso   1.00
C251   C     0.16211   0.54725   0.45518   0.01267  Uiso   1.00
C252   C     0.10970   0.49912   0.41822   0.01267  Uiso   1.00
C253   C     0.07117   0.48523   0.43332   0.01267  Uiso   1.00
C254   C     0.20805   0.56451   0.43978   0.01267  Uiso   1.00
C255   C     0.20916   0.59650   0.41026   0.01267  Uiso   1.00
C256   C     0.16680   0.62031   0.39989   0.01267  Uiso   1.00
C257   C     0.02193   0.12505   0.06264   0.01267  Uiso   1.00
C258   C     0.00921   0.17231   0.08230   0.01267  Uiso   1.00
C259   C     0.95518   0.16211   0.04725   0.01267  Uiso   1.00
C260   C     0.91822   0.10970   0.99912   0.01267  Uiso   1.00
C261   C     0.93332   0.07117   0.98523   0.01267  Uiso   1.00
C262   C     0.93978   0.20805   0.06451   0.01267  Uiso   1.00
C263   C     0.91026   0.20916   0.09650   0.01267  Uiso   1.00
C264   C     0.89989   0.16680   0.12031   0.01267  Uiso   1.00
C265   C     0.93759   0.37495   0.39688   0.01267  Uiso   1.00
C266   C     0.90999   0.32769   0.33690   0.01267  Uiso   1.00
C267   C     0.88514   0.33789   0.29307   0.01267  Uiso   1.00
C268   C     0.88942   0.39030   0.30852   0.01267  Uiso   1.00
C269   C     0.91406   0.42883   0.36215   0.01267  Uiso   1.00
C270   C     0.85646   0.29195   0.23173   0.01267  Uiso   1.00
C271   C     0.88734   0.29084   0.20110   0.01267  Uiso   1.00
C272   C     0.95351   0.33320   0.23309   0.01267  Uiso   1.00
C273   C     0.47807   0.54071   0.10312   0.01267  Uiso   1.00
C274   C     0.49079   0.57309   0.16310   0.01267  Uiso   1.00
C275   C     0.54482   0.59207   0.20693   0.01267  Uiso   1.00
C276   C     0.58178   0.58090   0.19148   0.01267  Uiso   1.00
C277   C     0.56668   0.55191   0.13785   0.01267  Uiso   1.00
C278   C     0.56022   0.62473   0.26827   0.01267  Uiso   1.00
C279   C     0.58974   0.68624   0.29890   0.01267  Uiso   1.00
C280   C     0.60011   0.72042   0.26691   0.01267  Uiso   1.00
C281   C     0.56241   0.95929   0.43736   0.01267  Uiso   1.00
C282   C     0.59001   0.92691   0.41770   0.01267  Uiso   1.00
C283   C     0.61486   0.90793   0.45275   0.01267  Uiso   1.00
C284   C     0.61058   0.91910   0.50088   0.01267  Uiso   1.00
C285   C     0.58594   0.94809   0.51477   0.01267  Uiso   1.00
C286   C     0.64354   0.87527   0.43549   0.01267  Uiso   1.00
C287   C     0.61266   0.81376   0.40350   0.01267  Uiso   1.00
C288   C     0.54649   0.77958   0.37969   0.01267  Uiso   1.00
C289   C     0.56241   0.60312   0.62505   0.01267  Uiso   1.00
C290   C     0.59001   0.66310   0.67231   0.01267  Uiso   1.00
C291   C     0.61486   0.70693   0.66211   0.01267  Uiso   1.00
C292   C     0.61058   0.69148   0.60970   0.01267  Uiso   1.00
C293   C     0.58594   0.63785   0.57117   0.01267  Uiso   1.00
C294   C     0.64354   0.76827   0.70805   0.01267  Uiso   1.00
C295   C     0.61266   0.79890   0.70916   0.01267  Uiso   1.00
C296   C     0.54649   0.76691   0.66680   0.01267  Uiso   1.00
C297   C     0.47807   0.93736   0.87495   0.01267  Uiso   1.00
C298   C     0.49079   0.91770   0.82769   0.01267  Uiso   1.00
C299   C     0.54482   0.95275   0.83789   0.01267  Uiso   1.00
C300   C     0.58178   0.00088   0.89030   0.01267  Uiso   1.00
C301   C     0.56668   0.01477   0.92883   0.01267  Uiso   1.00
C302   C     0.56022   0.93549   0.79195   0.01267  Uiso   1.00
C303   C     0.58974   0.90350   0.79084   0.01267  Uiso   1.00
C304   C     0.60011   0.87969   0.83320   0.01267  Uiso   1.00
C305   C     0.93759   0.56264   0.04071   0.01267  Uiso   1.00
C306   C     0.90999   0.58230   0.07309   0.01267  Uiso   1.00
C307   C     0.88514   0.54725   0.09207   0.01267  Uiso   1.00
C308   C     0.88942   0.49912   0.08090   0.01267  Uiso   1.00
C309   C     0.91406   0.48523   0.05191   0.01267  Uiso   1.00
C310   C     0.85646   0.56451   0.12473   0.01267  Uiso   1.00
C311   C     0.88734   0.59650   0.18624   0.01267  Uiso   1.00
C312   C     0.95351   0.62031   0.22042   0.01267  Uiso   1.00
C313   C     0.02193   0.89688   0.45929   0.01267  Uiso   1.00
C314   C     0.00921   0.83690   0.42691   0.01267  Uiso   1.00
C315   C     0.95518   0.79307   0.40793   0.01267  Uiso   1.00
C316   C     0.91822   0.80852   0.41910   0.01267  Uiso   1.00
C317   C     0.93332   0.86215   0.44809   0.01267  Uiso   1.00
C318   C     0.93978   0.73173   0.37527   0.01267  Uiso   1.00
C319   C     0.91026   0.70110   0.31376   0.01267  Uiso   1.00
C320   C     0.89989   0.73309   0.27958   0.01267  Uiso   1.00
C321   C     0.56264   0.54071   0.43759   0.01267  Uiso   1.00
C322   C     0.58230   0.57309   0.40999   0.01267  Uiso   1.00
C323   C     0.54725   0.59207   0.38514   0.01267  Uiso   1.00
C324   C     0.49912   0.58090   0.38942   0.01267  Uiso   1.00
C325   C     0.48523   0.55191   0.41406   0.01267  Uiso   1.00
C326   C     0.56451   0.62473   0.35646   0.01267  Uiso   1.00
C327   C     0.59650   0.68624   0.38734   0.01267  Uiso   1.00
C328   C     0.62031   0.72042   0.45351   0.01267  Uiso   1.00
C329   C     0.89688   0.95929   0.52193   0.01267  Uiso   1.00
C330   C     0.83690   0.92691   0.50921   0.01267  Uiso   1.00
C331   C     0.79307   0.90793   0.45518   0.01267  Uiso   1.00
C332   C     0.80852   0.91910   0.41822   0.01267  Uiso   1.00
C333   C     0.86215   0.94809   0.43332   0.01267  Uiso   1.00
C334   C     0.73173   0.87527   0.43978   0.01267  Uiso   1.00
C335   C     0.70110   0.81376   0.41026   0.01267  Uiso   1.00
C336   C     0.73309   0.77958   0.39989   0.01267  Uiso   1.00
C337   C     0.60312   0.12505   0.06241   0.01267  Uiso   1.00
C338   C     0.66310   0.17231   0.09001   0.01267  Uiso   1.00
C339   C     0.70693   0.16211   0.11486   0.01267  Uiso   1.00
C340   C     0.69148   0.10970   0.11058   0.01267  Uiso   1.00
C341   C     0.63785   0.07117   0.08594   0.01267  Uiso   1.00
C342   C     0.76827   0.20805   0.14354   0.01267  Uiso   1.00
C343   C     0.79890   0.20916   0.11266   0.01267  Uiso   1.00
C344   C     0.76691   0.16680   0.04649   0.01267  Uiso   1.00
C345   C     0.93736   0.37495   0.97807   0.01267  Uiso   1.00
C346   C     0.91770   0.32769   0.99079   0.01267  Uiso   1.00
C347   C     0.95275   0.33789   0.04482   0.01267  Uiso   1.00
C348   C     0.00088   0.39030   0.08178   0.01267  Uiso   1.00
C349   C     0.01477   0.42883   0.06668   0.01267  Uiso   1.00
C350   C     0.93549   0.29195   0.06022   0.01267  Uiso   1.00
C351   C     0.90350   0.29084   0.08974   0.01267  Uiso   1.00
C352   C     0.87969   0.33320   0.10011   0.01267  Uiso   1.00
C353   C     0.37495   0.47807   0.43736   0.01267  Uiso   1.00
C354   C     0.32769   0.49079   0.41770   0.01267  Uiso   1.00
C355   C     0.33789   0.54482   0.45275   0.01267  Uiso   1.00
C356   C     0.39030   0.58178   0.50088   0.01267  Uiso   1.00
C357   C     0.42883   0.56668   0.51477   0.01267  Uiso   1.00
C358   C     0.29195   0.56022   0.43549   0.01267  Uiso   1.00
C359   C     0.29084   0.58974   0.40350   0.01267  Uiso   1.00
C360   C     0.33320   0.60011   0.37969   0.01267  Uiso   1.00
C361   C     0.12505   0.56241   0.10312   0.01267  Uiso   1.00
C362   C     0.17231   0.59001   0.16310   0.01267  Uiso   1.00
C363   C     0.16211   0.61486   0.20693   0.01267  Uiso   1.00
C364   C     0.10970   0.61058   0.19148   0.01267  Uiso   1.00
C365   C     0.07117   0.58594   0.13785   0.01267  Uiso   1.00
C366   C     0.20805   0.64354   0.26827   0.01267  Uiso   1.00
C367   C     0.20916   0.61266   0.29890   0.01267  Uiso   1.00
C368   C     0.16680   0.54649   0.26691   0.01267  Uiso   1.00
C369   C     0.95929   0.02193   0.39688   0.01267  Uiso   1.00
C370   C     0.92691   0.00921   0.33690   0.01267  Uiso   1.00
C371   C     0.90793   0.95518   0.29307   0.01267  Uiso   1.00
C372   C     0.91910   0.91822   0.30852   0.01267  Uiso   1.00
C373   C     0.94809   0.93332   0.36215   0.01267  Uiso   1.00
C374   C     0.87527   0.93978   0.23173   0.01267  Uiso   1.00
C375   C     0.81376   0.91026   0.20110   0.01267  Uiso   1.00
C376   C     0.77958   0.89989   0.23309   0.01267  Uiso   1.00
C377   C     0.54071   0.93759   0.06264   0.01267  Uiso   1.00
C378   C     0.57309   0.90999   0.08230   0.01267  Uiso   1.00
C379   C     0.59207   0.88514   0.04725   0.01267  Uiso   1.00
C380   C     0.58090   0.88942   0.99912   0.01267  Uiso   1.00
C381   C     0.55191   0.91406   0.98523   0.01267  Uiso   1.00
C382   C     0.62473   0.85646   0.06451   0.01267  Uiso   1.00
C383   C     0.68624   0.88734   0.09650   0.01267  Uiso   1.00
C384   C     0.72042   0.95351   0.12031   0.01267  Uiso   1.00
C385   C     0.26286   0.23714   0.25000   0.01267  Uiso   1.00
C386   C     0.29799   0.20201   0.25000   0.01267  Uiso   1.00
C387   C     0.35876   0.14124   0.25000   0.01267  Uiso   1.00
C388   C     0.48714   0.01286   0.25000   0.01267  Uiso   1.00
C389   C     0.45201   0.04799   0.25000   0.01267  Uiso   1.00
C390   C     0.39124   0.10876   0.25000   0.01267  Uiso   1.00
C391   C     0.01286   0.26286   0.52572   0.01267  Uiso   1.00
C392   C     0.04799   0.29799   0.59598   0.01267  Uiso   1.00
C393   C     0.10876   0.35876   0.71752   0.01267  Uiso   1.00
C394   C     0.23714   0.48714   0.97428   0.01267  Uiso   1.00
C395   C     0.20201   0.45201   0.90402   0.01267  Uiso   1.00
C396   C     0.14124   0.39124   0.78248   0.01267  Uiso   1.00
C397   C     0.02572   0.01286   0.76286   0.01267  Uiso   1.00
C398   C     0.09598   0.04799   0.79799   0.01267  Uiso   1.00
C399   C     0.21752   0.10876   0.85876   0.01267  Uiso   1.00
C400   C     0.47428   0.23714   0.98714   0.01267  Uiso   1.00
C401   C     0.40402   0.20201   0.95201   0.01267  Uiso   1.00
C402   C     0.28248   0.14124   0.89124   0.01267  Uiso   1.00
C403   C     0.75000   0.26286   0.73714   0.01267  Uiso   1.00
C404   C     0.75000   0.29799   0.70201   0.01267  Uiso   1.00
C405   C     0.75000   0.35876   0.64124   0.01267  Uiso   1.00
C406   C     0.75000   0.48714   0.51286   0.01267  Uiso   1.00
C407   C     0.75000   0.45201   0.54799   0.01267  Uiso   1.00
C408   C     0.75000   0.39124   0.60876   0.01267  Uiso   1.00
C409   C     0.01286   0.75000   0.98714   0.01267  Uiso   1.00
C410   C     0.04799   0.75000   0.95201   0.01267  Uiso   1.00
C411   C     0.10876   0.75000   0.89124   0.01267  Uiso   1.00
C412   C     0.23714   0.75000   0.76286   0.01267  Uiso   1.00
C413   C     0.20201   0.75000   0.79799   0.01267  Uiso   1.00
C414   C     0.14124   0.75000   0.85876   0.01267  Uiso   1.00
C415   C     0.48714   0.47428   0.73714   0.01267  Uiso   1.00
C416   C     0.45201   0.40402   0.70201   0.01267  Uiso   1.00
C417   C     0.39124   0.28248   0.64124   0.01267  Uiso   1.00
C418   C     0.26286   0.02572   0.51286   0.01267  Uiso   1.00
C419   C     0.29799   0.09598   0.54799   0.01267  Uiso   1.00
C420   C     0.35876   0.21752   0.60876   0.01267  Uiso   1.00
C421   C     0.73714   0.76286   0.75000   0.01267  Uiso   1.00
C422   C     0.70201   0.79799   0.75000   0.01267  Uiso   1.00
C423   C     0.64124   0.85876   0.75000   0.01267  Uiso   1.00
C424   C     0.51286   0.98714   0.75000   0.01267  Uiso   1.00
C425   C     0.54799   0.95201   0.75000   0.01267  Uiso   1.00
C426   C     0.60876   0.89124   0.75000   0.01267  Uiso   1.00
C427   C     0.98714   0.73714   0.47428   0.01267  Uiso   1.00
C428   C     0.95201   0.70201   0.40402   0.01267  Uiso   1.00
C429   C     0.89124   0.64124   0.28248   0.01267  Uiso   1.00
C430   C     0.76286   0.51286   0.02572   0.01267  Uiso   1.00
C431   C     0.79799   0.54799   0.09598   0.01267  Uiso   1.00
C432   C     0.85876   0.60876   0.21752   0.01267  Uiso   1.00
C433   C     0.97428   0.98714   0.23714   0.01267  Uiso   1.00
C434   C     0.90402   0.95201   0.20201   0.01267  Uiso   1.00
C435   C     0.78248   0.89124   0.14124   0.01267  Uiso   1.00
C436   C     0.52572   0.76286   0.01286   0.01267  Uiso   1.00
C437   C     0.59598   0.79799   0.04799   0.01267  Uiso   1.00
C438   C     0.71752   0.85876   0.10876   0.01267  Uiso   1.00
C439   C     0.25000   0.73714   0.26286   0.01267  Uiso   1.00
C440   C     0.25000   0.70201   0.29799   0.01267  Uiso   1.00
C441   C     0.25000   0.64124   0.35876   0.01267  Uiso   1.00
C442   C     0.25000   0.51286   0.48714   0.01267  Uiso   1.00
C443   C     0.25000   0.54799   0.45201   0.01267  Uiso   1.00
C444   C     0.25000   0.60876   0.39124   0.01267  Uiso   1.00
C445   C     0.98714   0.25000   0.01286   0.01267  Uiso   1.00
C446   C     0.95201   0.25000   0.04799   0.01267  Uiso   1.00
C447   C     0.89124   0.25000   0.10876   0.01267  Uiso   1.00
C448   C     0.76286   0.25000   0.23714   0.01267  Uiso   1.00
C449   C     0.79799   0.25000   0.20201   0.01267  Uiso   1.00
C450   C     0.85876   0.25000   0.14124   0.01267  Uiso   1.00
C451   C     0.51286   0.52572   0.26286   0.01267  Uiso   1.00
C452   C     0.54799   0.59598   0.29799   0.01267  Uiso   1.00
C453   C     0.60876   0.71752   0.35876   0.01267  Uiso   1.00
C454   C     0.73714   0.97428   0.48714   0.01267  Uiso   1.00
C455   C     0.70201   0.90402   0.45201   0.01267  Uiso   1.00
C456   C     0.64124   0.78248   0.39124   0.01267  Uiso   1.00
N1     N     0.08926   0.05722   0.07400   0.01267  Uiso   1.00
N2     N     0.48322   0.01526   0.42600   0.01267  Uiso   1.00
N3     N     0.01678   0.44278   0.53204   0.01267  Uiso   1.00
N4     N     0.41074   0.48474   0.96796   0.01267  Uiso   1.00
N5     N     0.03204   0.01678   0.94278   0.01267  Uiso   1.00
N6     N     0.46796   0.41074   0.98474   0.01267  Uiso   1.00
N7     N     0.57400   0.08926   0.55722   0.01267  Uiso   1.00
N8     N     0.92600   0.48322   0.51526   0.01267  Uiso   1.00
N9     N     0.01526   0.92600   0.98322   0.01267  Uiso   1.00
N10    N     0.05722   0.57400   0.58926   0.01267  Uiso   1.00
N11    N     0.48474   0.46796   0.91074   0.01267  Uiso   1.00
N12    N     0.44278   0.03204   0.51678   0.01267  Uiso   1.00
N13    N     0.44278   0.41074   0.42600   0.01267  Uiso   1.00
N14    N     0.48474   0.01678   0.07400   0.01267  Uiso   1.00
N15    N     0.05722   0.48322   0.96796   0.01267  Uiso   1.00
N16    N     0.01526   0.08926   0.53204   0.01267  Uiso   1.00
N17    N     0.48322   0.46796   0.55722   0.01267  Uiso   1.00
N18    N     0.08926   0.03204   0.51526   0.01267  Uiso   1.00
N19    N     0.41074   0.92600   0.94278   0.01267  Uiso   1.00
N20    N     0.01678   0.57400   0.98474   0.01267  Uiso   1.00
N21    N     0.57400   0.48474   0.51678   0.01267  Uiso   1.00
N22    N     0.92600   0.44278   0.91074   0.01267  Uiso   1.00
N23    N     0.03204   0.01526   0.58926   0.01267  Uiso   1.00
N24    N     0.46796   0.05722   0.98322   0.01267  Uiso   1.00
N25    N     0.91074   0.94278   0.92600   0.01267  Uiso   1.00
N26    N     0.51678   0.98474   0.57400   0.01267  Uiso   1.00
N27    N     0.98322   0.55722   0.46796   0.01267  Uiso   1.00
N28    N     0.58926   0.51526   0.03204   0.01267  Uiso   1.00
N29    N     0.96796   0.98322   0.05722   0.01267  Uiso   1.00
N30    N     0.53204   0.58926   0.01526   0.01267  Uiso   1.00
N31    N     0.42600   0.91074   0.44278   0.01267  Uiso   1.00
N32    N     0.07400   0.51678   0.48474   0.01267  Uiso   1.00
N33    N     0.98474   0.07400   0.01678   0.01267  Uiso   1.00
N34    N     0.94278   0.42600   0.41074   0.01267  Uiso   1.00
N35    N     0.51526   0.53204   0.08926   0.01267  Uiso   1.00
N36    N     0.55722   0.96796   0.48322   0.01267  Uiso   1.00
N37    N     0.55722   0.58926   0.57400   0.01267  Uiso   1.00
N38    N     0.51526   0.98322   0.92600   0.01267  Uiso   1.00
N39    N     0.94278   0.51678   0.03204   0.01267  Uiso   1.00
N40    N     0.98474   0.91074   0.46796   0.01267  Uiso   1.00
N41    N     0.51678   0.53204   0.44278   0.01267  Uiso   1.00
N42    N     0.91074   0.96796   0.48474   0.01267  Uiso   1.00
N43    N     0.58926   0.07400   0.05722   0.01267  Uiso   1.00
N44    N     0.98322   0.42600   0.01526   0.01267  Uiso   1.00
N45    N     0.42600   0.51526   0.48322   0.01267  Uiso   1.00
N46    N     0.07400   0.55722   0.08926   0.01267  Uiso   1.00
N47    N     0.96796   0.98474   0.41074   0.01267  Uiso   1.00
N48    N     0.53204   0.94278   0.01678   0.01267  Uiso   1.00
Cl1    Cl    0.75000  -0.00000   1.00000   0.01267  Uiso   1.00
O1     O     0.78100   0.03100   0.06200   0.01267  Uiso   1.00
O2     O     0.75000   0.03100   0.96900   0.01267  Uiso   1.00
O3     O     0.71900   0.93800   0.96900   0.01267  Uiso   1.00
Cl2    Cl    0.50000   0.75000   0.50000   0.01267  Uiso   1.00
O4     O     0.46900   0.71900   0.43800   0.01267  Uiso   1.00
O5     O     0.56200   0.78100   0.53100   0.01267  Uiso   1.00
O6     O     0.46900   0.75000   0.53100   0.01267  Uiso   1.00
Cl3    Cl    0.00000   0.50000   0.25000   0.01267  Uiso   1.00
O7     O     0.03100   0.46900   0.25000   0.01267  Uiso   1.00
O8     O     0.93800   0.46900   0.21900   0.01267  Uiso   1.00
O9     O     0.03100   0.56200   0.28100   0.01267  Uiso   1.00
Cl4    Cl    0.75000   0.75000   0.25000   0.01267  Uiso   1.00
O10    O     0.71900   0.78100   0.25000   0.01267  Uiso   1.00
O11    O     0.75000   0.71900   0.28100   0.01267  Uiso   1.00
O12    O     0.78100   0.75000   0.21900   0.01267  Uiso   1.00
Cl5    Cl    0.25000   0.00000  -0.00000   0.01267  Uiso   1.00
O13    O     0.21900   0.96900   0.93800   0.01267  Uiso   1.00
O14    O     0.25000   0.96900   0.03100   0.01267  Uiso   1.00
O15    O     0.28100   0.06200   0.03100   0.01267  Uiso   1.00
Cl6    Cl    0.50000   0.25000   0.50000   0.01267  Uiso   1.00
O16    O     0.53100   0.28100   0.56200   0.01267  Uiso   1.00
O17    O     0.43800   0.21900   0.46900   0.01267  Uiso   1.00
O18    O     0.53100   0.25000   0.46900   0.01267  Uiso   1.00
Cl7    Cl    0.00000   0.50000   0.75000   0.01267  Uiso   1.00
O19    O     0.96900   0.53100   0.75000   0.01267  Uiso   1.00
O20    O     0.06200   0.53100   0.78100   0.01267  Uiso   1.00
O21    O     0.96900   0.43800   0.71900   0.01267  Uiso   1.00
Cl8    Cl    0.25000   0.25000   0.75000   0.01267  Uiso   1.00
O22    O     0.28100   0.21900   0.75000   0.01267  Uiso   1.00
O23    O     0.25000   0.28100   0.71900   0.01267  Uiso   1.00
O24    O     0.21900   0.25000   0.78100   0.01267  Uiso   1.00
