data_image0
_cell_length_a       15.291
_cell_length_b       15.656
_cell_length_c       50.912
_cell_angle_alpha    90
_cell_angle_beta     90
_cell_angle_gamma    90

_symmetry_space_group_name_H-M    P 1
_symmetry_int_tables_number       1

loop_
  _symmetry_equiv_pos_as_xyz
  'x, y, z'

loop_
  _atom_site_label
  _atom_site_occupancy
  _atom_site_fract_x
  _atom_site_fract_y
  _atom_site_fract_z
  _atom_site_thermal_displace_type
  _atom_site_B_iso_or_equiv
  _atom_site_type_symbol
  Fe1      1.0000 0.10030  0.24749  0.45982  Biso   1.000  Fe
  Fe2      1.0000 0.41137  0.35350  0.29388  Biso   1.000  Fe
  Fe3      1.0000 0.89970  0.25251  0.95982  Biso   1.000  Fe
  Fe4      1.0000 0.58863  0.14650  0.79388  Biso   1.000  Fe
  Fe5      1.0000 0.60030  0.75251  0.04018  Biso   1.000  Fe
  Fe6      1.0000 0.91137  0.64650  0.20612  Biso   1.000  Fe
  Fe7      1.0000 0.39970  0.74749  0.54018  Biso   1.000  Fe
  Fe8      1.0000 0.08863  0.85350  0.70612  Biso   1.000  Fe
  Ni1      1.0000 0.29726  0.45398  0.50633  Biso   1.000  Ni
  Ni2      1.0000 0.28288  0.22309  0.37545  Biso   1.000  Ni
  Ni3      1.0000 0.61288  0.52182  0.23517  Biso   1.000  Ni
  Ni4      1.0000 0.70274  0.04602  0.00633  Biso   1.000  Ni
  Ni5      1.0000 0.71712  0.27691  0.87545  Biso   1.000  Ni
  Ni6      1.0000 0.38712  0.97818  0.73517  Biso   1.000  Ni
  Ni7      1.0000 0.79726  0.54602  0.99367  Biso   1.000  Ni
  Ni8      1.0000 0.78288  0.77691  0.12455  Biso   1.000  Ni
  Ni9      1.0000 0.11288  0.47818  0.26483  Biso   1.000  Ni
  Ni10     1.0000 0.20274  0.95398  0.49367  Biso   1.000  Ni
  Ni11     1.0000 0.21712  0.72309  0.62455  Biso   1.000  Ni
  Ni12     1.0000 0.88712  0.02182  0.76483  Biso   1.000  Ni
  H1       1.0000 0.64210  0.40970  0.26990  Biso   1.000  H
  H2       1.0000 0.39200  0.35200  0.53150  Biso   1.000  H
  H3       1.0000 0.37200  0.42100  0.54980  Biso   1.000  H
  H4       1.0000 0.26500  0.28300  0.53830  Biso   1.000  H
  H5       1.0000 0.32300  0.29500  0.56470  Biso   1.000  H
  H6       1.0000 0.24700  0.42600  0.57550  Biso   1.000  H
  H7       1.0000 0.19400  0.34100  0.57640  Biso   1.000  H
  H8       1.0000 0.13100  0.36100  0.53420  Biso   1.000  H
  H9       1.0000 0.10200  0.42700  0.55360  Biso   1.000  H
  H10      1.0000 0.19100  0.51400  0.53740  Biso   1.000  H
  H11      1.0000 0.06400  0.53900  0.52030  Biso   1.000  H
  H12      1.0000 0.08600  0.45800  0.50110  Biso   1.000  H
  H13      1.0000 0.17900  0.62200  0.50040  Biso   1.000  H
  H14      1.0000 0.11100  0.58800  0.47860  Biso   1.000  H
  H15      1.0000 0.20500  0.48500  0.46870  Biso   1.000  H
  H16      1.0000 0.29700  0.63600  0.47120  Biso   1.000  H
  H17      1.0000 0.23900  0.60500  0.44660  Biso   1.000  H
  H18      1.0000 0.36900  0.57800  0.43110  Biso   1.000  H
  H19      1.0000 0.32900  0.48600  0.43650  Biso   1.000  H
  H20      1.0000 0.48000  0.49700  0.45030  Biso   1.000  H
  H21      1.0000 0.43700  0.56200  0.47600  Biso   1.000  H
  H22      1.0000 0.45400  0.42200  0.48880  Biso   1.000  H
  H23      1.0000 0.39700  0.39500  0.46910  Biso   1.000  H
  H24      1.0000 0.35300  0.36100  0.36740  Biso   1.000  H
  H25      1.0000 0.36200  0.34900  0.39490  Biso   1.000  H
  H26      1.0000 0.28700  0.48000  0.38540  Biso   1.000  H
  H27      1.0000 0.23600  0.40800  0.40180  Biso   1.000  H
  H28      1.0000 0.15700  0.46400  0.36620  Biso   1.000  H
  H29      1.0000 0.21000  0.41500  0.34610  Biso   1.000  H
  H30      1.0000 0.10200  0.33100  0.38190  Biso   1.000  H
  H31      1.0000 0.07500  0.34600  0.35180  Biso   1.000  H
  H32      1.0000 0.17400  0.26400  0.34120  Biso   1.000  H
  H33      1.0000 0.08400  0.18500  0.38020  Biso   1.000  H
  H34      1.0000 0.04500  0.19700  0.35090  Biso   1.000  H
  H35      1.0000 0.11500  0.05700  0.35660  Biso   1.000  H
  H36      1.0000 0.17300  0.10300  0.33550  Biso   1.000  H
  H37      1.0000 0.21400  0.08000  0.38840  Biso   1.000  H
  H38      1.0000 0.24400  0.97100  0.36940  Biso   1.000  H
  H39      1.0000 0.30400  0.03600  0.34740  Biso   1.000  H
  H40      1.0000 0.38400  0.96500  0.38260  Biso   1.000  H
  H41      1.0000 0.33500  0.02500  0.40250  Biso   1.000  H
  H42      1.0000 0.44200  0.09400  0.36040  Biso   1.000  H
  H43      1.0000 0.48600  0.07900  0.39300  Biso   1.000  H
  H44      1.0000 0.38700  0.17000  0.40870  Biso   1.000  H
  H45      1.0000 0.43400  0.21800  0.39160  Biso   1.000  H
  H46      1.0000 0.50700  0.63600  0.22050  Biso   1.000  H
  H47      1.0000 0.56500  0.62100  0.19930  Biso   1.000  H
  H48      1.0000 0.42000  0.52600  0.21120  Biso   1.000  H
  H49      1.0000 0.43000  0.59900  0.18660  Biso   1.000  H
  H50      1.0000 0.44500  0.46600  0.16860  Biso   1.000  H
  H51      1.0000 0.54700  0.50200  0.17040  Biso   1.000  H
  H52      1.0000 0.47400  0.39200  0.20570  Biso   1.000  H
  H53      1.0000 0.53600  0.35300  0.18100  Biso   1.000  H
  H54      1.0000 0.64600  0.42300  0.19810  Biso   1.000  H
  H55      1.0000 0.64800  0.29500  0.20960  Biso   1.000  H
  H56      1.0000 0.58100  0.32000  0.23480  Biso   1.000  H
  H57      1.0000 0.75100  0.37900  0.22970  Biso   1.000  H
  H58      1.0000 0.72600  0.30900  0.25130  Biso   1.000  H
  H59      1.0000 0.80800  0.48000  0.26110  Biso   1.000  H
  H60      1.0000 0.78500  0.40500  0.28720  Biso   1.000  H
  H61      1.0000 0.67800  0.52600  0.29810  Biso   1.000  H
  H62      1.0000 0.78000  0.54400  0.30470  Biso   1.000  H
  H63      1.0000 0.71000  0.67000  0.29550  Biso   1.000  H
  H64      1.0000 0.77100  0.63600  0.26380  Biso   1.000  H
  H65      1.0000 0.58800  0.62100  0.27740  Biso   1.000  H
  H66      1.0000 0.61600  0.66500  0.25320  Biso   1.000  H
  H67      1.0000 0.35790  0.09030  0.76990  Biso   1.000  H
  H68      1.0000 0.60800  0.14800  0.03150  Biso   1.000  H
  H69      1.0000 0.62800  0.07900  0.04980  Biso   1.000  H
  H70      1.0000 0.73500  0.21700  0.03830  Biso   1.000  H
  H71      1.0000 0.67700  0.20500  0.06470  Biso   1.000  H
  H72      1.0000 0.75300  0.07400  0.07550  Biso   1.000  H
  H73      1.0000 0.80600  0.15900  0.07640  Biso   1.000  H
  H74      1.0000 0.86900  0.13900  0.03420  Biso   1.000  H
  H75      1.0000 0.89800  0.07300  0.05360  Biso   1.000  H
  H76      1.0000 0.80900  0.98600  0.03740  Biso   1.000  H
  H77      1.0000 0.93600  0.96100  0.02030  Biso   1.000  H
  H78      1.0000 0.91400  0.04200  0.00110  Biso   1.000  H
  H79      1.0000 0.82100  0.87800  0.00040  Biso   1.000  H
  H80      1.0000 0.88900  0.91200  0.97860  Biso   1.000  H
  H81      1.0000 0.79500  0.01500  0.96870  Biso   1.000  H
  H82      1.0000 0.70300  0.86400  0.97120  Biso   1.000  H
  H83      1.0000 0.76100  0.89500  0.94660  Biso   1.000  H
  H84      1.0000 0.63100  0.92200  0.93110  Biso   1.000  H
  H85      1.0000 0.67100  0.01400  0.93650  Biso   1.000  H
  H86      1.0000 0.52000  0.00300  0.95030  Biso   1.000  H
  H87      1.0000 0.56300  0.93800  0.97600  Biso   1.000  H
  H88      1.0000 0.54600  0.07800  0.98880  Biso   1.000  H
  H89      1.0000 0.60300  0.10500  0.96910  Biso   1.000  H
  H90      1.0000 0.64700  0.13900  0.86740  Biso   1.000  H
  H91      1.0000 0.63800  0.15100  0.89490  Biso   1.000  H
  H92      1.0000 0.71300  0.02000  0.88540  Biso   1.000  H
  H93      1.0000 0.76400  0.09200  0.90180  Biso   1.000  H
  H94      1.0000 0.84300  0.03600  0.86620  Biso   1.000  H
  H95      1.0000 0.79000  0.08500  0.84610  Biso   1.000  H
  H96      1.0000 0.89800  0.16900  0.88190  Biso   1.000  H
  H97      1.0000 0.92500  0.15400  0.85180  Biso   1.000  H
  H98      1.0000 0.82600  0.23600  0.84120  Biso   1.000  H
  H99      1.0000 0.91600  0.31500  0.88020  Biso   1.000  H
  H100     1.0000 0.95500  0.30300  0.85090  Biso   1.000  H
  H101     1.0000 0.88500  0.44300  0.85660  Biso   1.000  H
  H102     1.0000 0.82700  0.39700  0.83550  Biso   1.000  H
  H103     1.0000 0.78600  0.42000  0.88840  Biso   1.000  H
  H104     1.0000 0.75600  0.52900  0.86940  Biso   1.000  H
  H105     1.0000 0.69600  0.46400  0.84740  Biso   1.000  H
  H106     1.0000 0.61600  0.53500  0.88260  Biso   1.000  H
  H107     1.0000 0.66500  0.47500  0.90250  Biso   1.000  H
  H108     1.0000 0.55800  0.40600  0.86040  Biso   1.000  H
  H109     1.0000 0.51400  0.42100  0.89300  Biso   1.000  H
  H110     1.0000 0.61300  0.33000  0.90870  Biso   1.000  H
  H111     1.0000 0.56600  0.28200  0.89160  Biso   1.000  H
  H112     1.0000 0.49300  0.86400  0.72050  Biso   1.000  H
  H113     1.0000 0.43500  0.87900  0.69930  Biso   1.000  H
  H114     1.0000 0.58000  0.97400  0.71120  Biso   1.000  H
  H115     1.0000 0.57000  0.90100  0.68660  Biso   1.000  H
  H116     1.0000 0.55500  0.03400  0.66860  Biso   1.000  H
  H117     1.0000 0.45300  0.99800  0.67040  Biso   1.000  H
  H118     1.0000 0.52600  0.10800  0.70570  Biso   1.000  H
  H119     1.0000 0.46400  0.14700  0.68100  Biso   1.000  H
  H120     1.0000 0.35400  0.07700  0.69810  Biso   1.000  H
  H121     1.0000 0.35200  0.20500  0.70960  Biso   1.000  H
  H122     1.0000 0.41900  0.18000  0.73480  Biso   1.000  H
  H123     1.0000 0.24900  0.12100  0.72970  Biso   1.000  H
  H124     1.0000 0.27400  0.19100  0.75130  Biso   1.000  H
  H125     1.0000 0.19200  0.02000  0.76110  Biso   1.000  H
  H126     1.0000 0.21500  0.09500  0.78720  Biso   1.000  H
  H127     1.0000 0.32200  0.97400  0.79810  Biso   1.000  H
  H128     1.0000 0.22000  0.95600  0.80470  Biso   1.000  H
  H129     1.0000 0.29000  0.83000  0.79550  Biso   1.000  H
  H130     1.0000 0.22900  0.86400  0.76380  Biso   1.000  H
  H131     1.0000 0.41200  0.87900  0.77740  Biso   1.000  H
  H132     1.0000 0.38400  0.83500  0.75320  Biso   1.000  H
  H133     1.0000 0.14210  0.59030  0.23010  Biso   1.000  H
  H134     1.0000 0.89200  0.64800  0.96850  Biso   1.000  H
  H135     1.0000 0.87200  0.57900  0.95020  Biso   1.000  H
  H136     1.0000 0.76500  0.71700  0.96170  Biso   1.000  H
  H137     1.0000 0.82300  0.70500  0.93530  Biso   1.000  H
  H138     1.0000 0.74700  0.57400  0.92450  Biso   1.000  H
  H139     1.0000 0.69400  0.65900  0.92360  Biso   1.000  H
  H140     1.0000 0.63100  0.63900  0.96580  Biso   1.000  H
  H141     1.0000 0.60200  0.57300  0.94640  Biso   1.000  H
  H142     1.0000 0.69100  0.48600  0.96260  Biso   1.000  H
  H143     1.0000 0.56400  0.46100  0.97970  Biso   1.000  H
  H144     1.0000 0.58600  0.54200  0.99890  Biso   1.000  H
  H145     1.0000 0.67900  0.37800  0.99960  Biso   1.000  H
  H146     1.0000 0.61100  0.41200  0.02140  Biso   1.000  H
  H147     1.0000 0.70500  0.51500  0.03130  Biso   1.000  H
  H148     1.0000 0.79700  0.36400  0.02880  Biso   1.000  H
  H149     1.0000 0.73900  0.39500  0.05340  Biso   1.000  H
  H150     1.0000 0.86900  0.42200  0.06890  Biso   1.000  H
  H151     1.0000 0.82900  0.51400  0.06350  Biso   1.000  H
  H152     1.0000 0.98000  0.50300  0.04970  Biso   1.000  H
  H153     1.0000 0.93700  0.43800  0.02400  Biso   1.000  H
  H154     1.0000 0.95400  0.57800  0.01120  Biso   1.000  H
  H155     1.0000 0.89700  0.60500  0.03090  Biso   1.000  H
  H156     1.0000 0.85300  0.63900  0.13260  Biso   1.000  H
  H157     1.0000 0.86200  0.65100  0.10510  Biso   1.000  H
  H158     1.0000 0.78700  0.52000  0.11460  Biso   1.000  H
  H159     1.0000 0.73600  0.59200  0.09820  Biso   1.000  H
  H160     1.0000 0.65700  0.53600  0.13380  Biso   1.000  H
  H161     1.0000 0.71000  0.58500  0.15390  Biso   1.000  H
  H162     1.0000 0.60200  0.66900  0.11810  Biso   1.000  H
  H163     1.0000 0.57500  0.65400  0.14820  Biso   1.000  H
  H164     1.0000 0.67400  0.73600  0.15880  Biso   1.000  H
  H165     1.0000 0.58400  0.81500  0.11980  Biso   1.000  H
  H166     1.0000 0.54500  0.80300  0.14910  Biso   1.000  H
  H167     1.0000 0.61500  0.94300  0.14340  Biso   1.000  H
  H168     1.0000 0.67300  0.89700  0.16450  Biso   1.000  H
  H169     1.0000 0.71400  0.92000  0.11160  Biso   1.000  H
  H170     1.0000 0.74400  0.02900  0.13060  Biso   1.000  H
  H171     1.0000 0.80400  0.96400  0.15260  Biso   1.000  H
  H172     1.0000 0.88400  0.03500  0.11740  Biso   1.000  H
  H173     1.0000 0.83500  0.97500  0.09750  Biso   1.000  H
  H174     1.0000 0.94200  0.90600  0.13960  Biso   1.000  H
  H175     1.0000 0.98600  0.92100  0.10700  Biso   1.000  H
  H176     1.0000 0.88700  0.83000  0.09130  Biso   1.000  H
  H177     1.0000 0.93400  0.78200  0.10840  Biso   1.000  H
  H178     1.0000 0.00700  0.36400  0.27950  Biso   1.000  H
  H179     1.0000 0.06500  0.37900  0.30070  Biso   1.000  H
  H180     1.0000 0.92000  0.47400  0.28880  Biso   1.000  H
  H181     1.0000 0.93000  0.40100  0.31340  Biso   1.000  H
  H182     1.0000 0.94500  0.53400  0.33140  Biso   1.000  H
  H183     1.0000 0.04700  0.49800  0.32960  Biso   1.000  H
  H184     1.0000 0.97400  0.60800  0.29430  Biso   1.000  H
  H185     1.0000 0.03600  0.64700  0.31900  Biso   1.000  H
  H186     1.0000 0.14600  0.57700  0.30190  Biso   1.000  H
  H187     1.0000 0.14800  0.70500  0.29040  Biso   1.000  H
  H188     1.0000 0.08100  0.68000  0.26520  Biso   1.000  H
  H189     1.0000 0.25100  0.62100  0.27030  Biso   1.000  H
  H190     1.0000 0.22600  0.69100  0.24870  Biso   1.000  H
  H191     1.0000 0.30800  0.52000  0.23890  Biso   1.000  H
  H192     1.0000 0.28500  0.59500  0.21280  Biso   1.000  H
  H193     1.0000 0.17800  0.47400  0.20190  Biso   1.000  H
  H194     1.0000 0.28000  0.45600  0.19530  Biso   1.000  H
  H195     1.0000 0.21000  0.33000  0.20450  Biso   1.000  H
  H196     1.0000 0.27100  0.36400  0.23620  Biso   1.000  H
  H197     1.0000 0.08800  0.37900  0.22260  Biso   1.000  H
  H198     1.0000 0.11600  0.33500  0.24680  Biso   1.000  H
  H199     1.0000 0.85790  0.90970  0.73010  Biso   1.000  H
  H200     1.0000 0.10800  0.85200  0.46850  Biso   1.000  H
  H201     1.0000 0.12800  0.92100  0.45020  Biso   1.000  H
  H202     1.0000 0.23500  0.78300  0.46170  Biso   1.000  H
  H203     1.0000 0.17700  0.79500  0.43530  Biso   1.000  H
  H204     1.0000 0.25300  0.92600  0.42450  Biso   1.000  H
  H205     1.0000 0.30600  0.84100  0.42360  Biso   1.000  H
  H206     1.0000 0.36900  0.86100  0.46580  Biso   1.000  H
  H207     1.0000 0.39800  0.92700  0.44640  Biso   1.000  H
  H208     1.0000 0.30900  0.01400  0.46260  Biso   1.000  H
  H209     1.0000 0.43600  0.03900  0.47970  Biso   1.000  H
  H210     1.0000 0.41400  0.95800  0.49890  Biso   1.000  H
  H211     1.0000 0.32100  0.12200  0.49960  Biso   1.000  H
  H212     1.0000 0.38900  0.08800  0.52140  Biso   1.000  H
  H213     1.0000 0.29500  0.98500  0.53130  Biso   1.000  H
  H214     1.0000 0.20300  0.13600  0.52880  Biso   1.000  H
  H215     1.0000 0.26100  0.10500  0.55340  Biso   1.000  H
  H216     1.0000 0.13100  0.07800  0.56890  Biso   1.000  H
  H217     1.0000 0.17100  0.98600  0.56350  Biso   1.000  H
  H218     1.0000 0.02000  0.99700  0.54970  Biso   1.000  H
  H219     1.0000 0.06300  0.06200  0.52400  Biso   1.000  H
  H220     1.0000 0.04600  0.92200  0.51120  Biso   1.000  H
  H221     1.0000 0.10300  0.89500  0.53090  Biso   1.000  H
  H222     1.0000 0.14700  0.86100  0.63260  Biso   1.000  H
  H223     1.0000 0.13800  0.84900  0.60510  Biso   1.000  H
  H224     1.0000 0.21300  0.98000  0.61460  Biso   1.000  H
  H225     1.0000 0.26400  0.90800  0.59820  Biso   1.000  H
  H226     1.0000 0.34300  0.96400  0.63380  Biso   1.000  H
  H227     1.0000 0.29000  0.91500  0.65390  Biso   1.000  H
  H228     1.0000 0.39800  0.83100  0.61810  Biso   1.000  H
  H229     1.0000 0.42500  0.84600  0.64820  Biso   1.000  H
  H230     1.0000 0.32600  0.76400  0.65880  Biso   1.000  H
  H231     1.0000 0.41600  0.68500  0.61980  Biso   1.000  H
  H232     1.0000 0.45500  0.69700  0.64910  Biso   1.000  H
  H233     1.0000 0.38500  0.55700  0.64340  Biso   1.000  H
  H234     1.0000 0.32700  0.60300  0.66450  Biso   1.000  H
  H235     1.0000 0.28600  0.58000  0.61160  Biso   1.000  H
  H236     1.0000 0.25600  0.47100  0.63060  Biso   1.000  H
  H237     1.0000 0.19600  0.53600  0.65260  Biso   1.000  H
  H238     1.0000 0.11600  0.46500  0.61740  Biso   1.000  H
  H239     1.0000 0.16500  0.52500  0.59750  Biso   1.000  H
  H240     1.0000 0.05800  0.59400  0.63960  Biso   1.000  H
  H241     1.0000 0.01400  0.57900  0.60700  Biso   1.000  H
  H242     1.0000 0.11300  0.67000  0.59130  Biso   1.000  H
  H243     1.0000 0.06600  0.71800  0.60840  Biso   1.000  H
  H244     1.0000 0.99300  0.13600  0.77950  Biso   1.000  H
  H245     1.0000 0.93500  0.12100  0.80070  Biso   1.000  H
  H246     1.0000 0.08000  0.02600  0.78880  Biso   1.000  H
  H247     1.0000 0.07000  0.09900  0.81340  Biso   1.000  H
  H248     1.0000 0.05500  0.96600  0.83140  Biso   1.000  H
  H249     1.0000 0.95300  0.00200  0.82960  Biso   1.000  H
  H250     1.0000 0.02600  0.89200  0.79430  Biso   1.000  H
  H251     1.0000 0.96400  0.85300  0.81900  Biso   1.000  H
  H252     1.0000 0.85400  0.92300  0.80190  Biso   1.000  H
  H253     1.0000 0.85200  0.79500  0.79040  Biso   1.000  H
  H254     1.0000 0.91900  0.82000  0.76520  Biso   1.000  H
  H255     1.0000 0.74900  0.87900  0.77030  Biso   1.000  H
  H256     1.0000 0.77400  0.80900  0.74870  Biso   1.000  H
  H257     1.0000 0.69200  0.98000  0.73890  Biso   1.000  H
  H258     1.0000 0.71500  0.90500  0.71280  Biso   1.000  H
  H259     1.0000 0.82200  0.02600  0.70190  Biso   1.000  H
  H260     1.0000 0.72000  0.04400  0.69530  Biso   1.000  H
  H261     1.0000 0.79000  0.17000  0.70450  Biso   1.000  H
  H262     1.0000 0.72900  0.13600  0.73620  Biso   1.000  H
  H263     1.0000 0.91200  0.12100  0.72260  Biso   1.000  H
  H264     1.0000 0.88400  0.16500  0.74680  Biso   1.000  H
  C1       1.0000 0.29480  0.32490  0.55149  Biso   1.000  C
  C2       1.0000 0.22070  0.37470  0.56452  Biso   1.000  C
  C3       1.0000 0.15140  0.40740  0.54598  Biso   1.000  C
  C4       1.0000 0.11460  0.50720  0.51064  Biso   1.000  C
  C5       1.0000 0.15420  0.56790  0.49113  Biso   1.000  C
  C6       1.0000 0.27630  0.58420  0.46011  Biso   1.000  C
  C7       1.0000 0.35100  0.54010  0.44605  Biso   1.000  C
  C8       1.0000 0.42750  0.51390  0.46378  Biso   1.000  C
  C9       1.0000 0.19200  0.30280  0.47953  Biso   1.000  C
  C10      1.0000 0.07210  0.36110  0.44738  Biso   1.000  C
  C11      1.0000 0.17910  0.23580  0.43031  Biso   1.000  C
  C12      1.0000 0.00840  0.19550  0.43847  Biso   1.000  C
  C13      1.0000 0.13350  0.13420  0.47161  Biso   1.000  C
  C14      1.0000 0.02720  0.25250  0.49124  Biso   1.000  C
  C15      1.0000 0.25710  0.41720  0.38429  Biso   1.000  C
  C16      1.0000 0.18720  0.41430  0.36329  Biso   1.000  C
  C17      1.0000 0.12490  0.34010  0.36500  Biso   1.000  C
  C18      1.0000 0.10360  0.18510  0.36142  Biso   1.000  C
  C19      1.0000 0.15200  0.10450  0.35497  Biso   1.000  C
  C20      1.0000 0.28300  0.02510  0.36677  Biso   1.000  C
  C21      1.0000 0.36000  0.01980  0.38588  Biso   1.000  C
  C22      1.0000 0.42790  0.08930  0.38208  Biso   1.000  C
  C23      1.0000 0.36670  0.27210  0.31999  Biso   1.000  C
  C24      1.0000 0.40150  0.27440  0.26480  Biso   1.000  C
  C25      1.0000 0.53010  0.31030  0.29778  Biso   1.000  C
  C26      1.0000 0.46130  0.43450  0.26914  Biso   1.000  C
  C27      1.0000 0.42690  0.43580  0.32223  Biso   1.000  C
  C28      1.0000 0.29470  0.40070  0.28755  Biso   1.000  C
  C29      1.0000 0.46390  0.55350  0.19620  Biso   1.000  C
  C30      1.0000 0.49800  0.48360  0.17872  Biso   1.000  C
  C31      1.0000 0.52640  0.40440  0.19269  Biso   1.000  C
  C32      1.0000 0.63240  0.34080  0.22266  Biso   1.000  C
  C33      1.0000 0.70660  0.36070  0.24051  Biso   1.000  C
  C34      1.0000 0.75580  0.46050  0.27451  Biso   1.000  C
  C35      1.0000 0.72950  0.53330  0.29212  Biso   1.000  C
  C36      1.0000 0.71280  0.61950  0.27873  Biso   1.000  C
  C37      1.0000 0.70520  0.17510  0.05149  Biso   1.000  C
  C38      1.0000 0.77930  0.12530  0.06452  Biso   1.000  C
  C39      1.0000 0.84860  0.09260  0.04598  Biso   1.000  C
  C40      1.0000 0.88540  0.99280  0.01064  Biso   1.000  C
  C41      1.0000 0.84580  0.93210  0.99113  Biso   1.000  C
  C42      1.0000 0.72370  0.91580  0.96011  Biso   1.000  C
  C43      1.0000 0.64900  0.95990  0.94605  Biso   1.000  C
  C44      1.0000 0.57250  0.98610  0.96378  Biso   1.000  C
  C45      1.0000 0.80800  0.19720  0.97953  Biso   1.000  C
  C46      1.0000 0.92790  0.13890  0.94738  Biso   1.000  C
  C47      1.0000 0.82090  0.26420  0.93031  Biso   1.000  C
  C48      1.0000 0.99160  0.30450  0.93847  Biso   1.000  C
  C49      1.0000 0.86650  0.36580  0.97161  Biso   1.000  C
  C50      1.0000 0.97280  0.24750  0.99124  Biso   1.000  C
  C51      1.0000 0.74290  0.08280  0.88429  Biso   1.000  C
  C52      1.0000 0.81280  0.08570  0.86329  Biso   1.000  C
  C53      1.0000 0.87510  0.15990  0.86500  Biso   1.000  C
  C54      1.0000 0.89640  0.31490  0.86142  Biso   1.000  C
  C55      1.0000 0.84800  0.39550  0.85497  Biso   1.000  C
  C56      1.0000 0.71700  0.47490  0.86677  Biso   1.000  C
  C57      1.0000 0.64000  0.48020  0.88588  Biso   1.000  C
  C58      1.0000 0.57210  0.41070  0.88208  Biso   1.000  C
  C59      1.0000 0.63330  0.22790  0.81999  Biso   1.000  C
  C60      1.0000 0.59850  0.22560  0.76480  Biso   1.000  C
  C61      1.0000 0.46990  0.18970  0.79778  Biso   1.000  C
  C62      1.0000 0.53870  0.06550  0.76914  Biso   1.000  C
  C63      1.0000 0.57310  0.06420  0.82223  Biso   1.000  C
  C64      1.0000 0.70530  0.09930  0.78755  Biso   1.000  C
  C65      1.0000 0.53610  0.94650  0.69620  Biso   1.000  C
  C66      1.0000 0.50200  0.01640  0.67872  Biso   1.000  C
  C67      1.0000 0.47360  0.09560  0.69269  Biso   1.000  C
  C68      1.0000 0.36760  0.15920  0.72266  Biso   1.000  C
  C69      1.0000 0.29340  0.13930  0.74051  Biso   1.000  C
  C70      1.0000 0.24420  0.03950  0.77451  Biso   1.000  C
  C71      1.0000 0.27050  0.96670  0.79212  Biso   1.000  C
  C72      1.0000 0.28720  0.88050  0.77873  Biso   1.000  C
  C73      1.0000 0.79480  0.67510  0.94851  Biso   1.000  C
  C74      1.0000 0.72070  0.62530  0.93548  Biso   1.000  C
  C75      1.0000 0.65140  0.59260  0.95402  Biso   1.000  C
  C76      1.0000 0.61460  0.49280  0.98936  Biso   1.000  C
  C77      1.0000 0.65420  0.43210  0.00887  Biso   1.000  C
  C78      1.0000 0.77630  0.41580  0.03989  Biso   1.000  C
  C79      1.0000 0.85100  0.45990  0.05395  Biso   1.000  C
  C80      1.0000 0.92750  0.48610  0.03622  Biso   1.000  C
  C81      1.0000 0.69200  0.69720  0.02047  Biso   1.000  C
  C82      1.0000 0.57210  0.63890  0.05262  Biso   1.000  C
  C83      1.0000 0.67910  0.76420  0.06969  Biso   1.000  C
  C84      1.0000 0.50840  0.80450  0.06153  Biso   1.000  C
  C85      1.0000 0.63350  0.86580  0.02839  Biso   1.000  C
  C86      1.0000 0.52720  0.74750  0.00876  Biso   1.000  C
  C87      1.0000 0.75710  0.58280  0.11571  Biso   1.000  C
  C88      1.0000 0.68720  0.58570  0.13671  Biso   1.000  C
  C89      1.0000 0.62490  0.65990  0.13500  Biso   1.000  C
  C90      1.0000 0.60360  0.81490  0.13858  Biso   1.000  C
  C91      1.0000 0.65200  0.89550  0.14503  Biso   1.000  C
  C92      1.0000 0.78300  0.97490  0.13323  Biso   1.000  C
  C93      1.0000 0.86000  0.98020  0.11412  Biso   1.000  C
  C94      1.0000 0.92790  0.91070  0.11792  Biso   1.000  C
  C95      1.0000 0.86670  0.72790  0.18001  Biso   1.000  C
  C96      1.0000 0.90150  0.72560  0.23520  Biso   1.000  C
  C97      1.0000 0.03010  0.68970  0.20222  Biso   1.000  C
  C98      1.0000 0.96130  0.56550  0.23086  Biso   1.000  C
  C99      1.0000 0.92690  0.56420  0.17777  Biso   1.000  C
  C100     1.0000 0.79470  0.59930  0.21245  Biso   1.000  C
  C101     1.0000 0.96390  0.44650  0.30380  Biso   1.000  C
  C102     1.0000 0.99800  0.51640  0.32128  Biso   1.000  C
  C103     1.0000 0.02640  0.59560  0.30731  Biso   1.000  C
  C104     1.0000 0.13240  0.65920  0.27734  Biso   1.000  C
  C105     1.0000 0.20660  0.63930  0.25949  Biso   1.000  C
  C106     1.0000 0.25580  0.53950  0.22549  Biso   1.000  C
  C107     1.0000 0.22950  0.46670  0.20788  Biso   1.000  C
  C108     1.0000 0.21280  0.38050  0.22127  Biso   1.000  C
  C109     1.0000 0.20520  0.82490  0.44851  Biso   1.000  C
  C110     1.0000 0.27930  0.87470  0.43548  Biso   1.000  C
  C111     1.0000 0.34860  0.90740  0.45402  Biso   1.000  C
  C112     1.0000 0.38540  0.00720  0.48936  Biso   1.000  C
  C113     1.0000 0.34580  0.06790  0.50887  Biso   1.000  C
  C114     1.0000 0.22370  0.08420  0.53989  Biso   1.000  C
  C115     1.0000 0.14900  0.04010  0.55395  Biso   1.000  C
  C116     1.0000 0.07250  0.01390  0.53622  Biso   1.000  C
  C117     1.0000 0.30800  0.80280  0.52047  Biso   1.000  C
  C118     1.0000 0.42790  0.86110  0.55262  Biso   1.000  C
  C119     1.0000 0.32090  0.73580  0.56969  Biso   1.000  C
  C120     1.0000 0.49160  0.69550  0.56153  Biso   1.000  C
  C121     1.0000 0.36650  0.63420  0.52839  Biso   1.000  C
  C122     1.0000 0.47280  0.75250  0.50876  Biso   1.000  C
  C123     1.0000 0.24290  0.91720  0.61571  Biso   1.000  C
  C124     1.0000 0.31280  0.91430  0.63671  Biso   1.000  C
  C125     1.0000 0.37510  0.84010  0.63500  Biso   1.000  C
  C126     1.0000 0.39640  0.68510  0.63858  Biso   1.000  C
  C127     1.0000 0.34800  0.60450  0.64503  Biso   1.000  C
  C128     1.0000 0.21700  0.52510  0.63323  Biso   1.000  C
  C129     1.0000 0.14000  0.51980  0.61412  Biso   1.000  C
  C130     1.0000 0.07210  0.58930  0.61792  Biso   1.000  C
  C131     1.0000 0.13330  0.77210  0.68001  Biso   1.000  C
  C132     1.0000 0.09850  0.77440  0.73520  Biso   1.000  C
  C133     1.0000 0.96990  0.81030  0.70222  Biso   1.000  C
  C134     1.0000 0.03870  0.93450  0.73086  Biso   1.000  C
  C135     1.0000 0.07310  0.93580  0.67777  Biso   1.000  C
  C136     1.0000 0.20530  0.90070  0.71245  Biso   1.000  C
  C137     1.0000 0.03610  0.05350  0.80380  Biso   1.000  C
  C138     1.0000 0.00200  0.98360  0.82128  Biso   1.000  C
  C139     1.0000 0.97360  0.90440  0.80731  Biso   1.000  C
  C140     1.0000 0.86760  0.84080  0.77734  Biso   1.000  C
  C141     1.0000 0.79340  0.86070  0.75949  Biso   1.000  C
  C142     1.0000 0.74420  0.96050  0.72549  Biso   1.000  C
  C143     1.0000 0.77050  0.03330  0.70788  Biso   1.000  C
  C144     1.0000 0.78720  0.11950  0.72127  Biso   1.000  C
  N1       1.0000 0.35390  0.38360  0.53697  Biso   1.000  N
  N2       1.0000 0.18340  0.47570  0.52881  Biso   1.000  N
  N3       1.0000 0.22720  0.52490  0.47726  Biso   1.000  N
  N4       1.0000 0.40440  0.44010  0.48073  Biso   1.000  N
  N5       1.0000 0.24210  0.34340  0.49062  Biso   1.000  N
  N6       1.0000 0.06090  0.43030  0.43964  Biso   1.000  N
  N7       1.0000 0.22400  0.23000  0.41221  Biso   1.000  N
  N8       1.0000 0.95850  0.16260  0.42542  Biso   1.000  N
  N9       1.0000 0.15190  0.06720  0.47917  Biso   1.000  N
  N10      1.0000 0.98970  0.25120  0.51083  Biso   1.000  N
  N11      1.0000 0.32450  0.35060  0.38055  Biso   1.000  N
  N12      1.0000 0.16400  0.25750  0.35746  Biso   1.000  N
  N13      1.0000 0.22860  0.09910  0.37244  Biso   1.000  N
  N14      1.0000 0.39770  0.17310  0.39180  Biso   1.000  N
  N15      1.0000 0.34180  0.23030  0.33697  Biso   1.000  N
  N16      1.0000 0.40280  0.22890  0.24706  Biso   1.000  N
  N17      1.0000 0.60130  0.28560  0.29862  Biso   1.000  N
  N18      1.0000 0.49980  0.47750  0.25490  Biso   1.000  N
  N19      1.0000 0.43630  0.48460  0.33913  Biso   1.000  N
  N20      1.0000 0.22780  0.43120  0.28304  Biso   1.000  N
  N21      1.0000 0.53370  0.59710  0.21134  Biso   1.000  N
  N22      1.0000 0.60720  0.41850  0.20842  Biso   1.000  N
  N23      1.0000 0.68280  0.43220  0.25824  Biso   1.000  N
  N24      1.0000 0.63040  0.61950  0.26304  Biso   1.000  N
  N25      1.0000 0.64610  0.11640  0.03697  Biso   1.000  N
  N26      1.0000 0.81660  0.02430  0.02881  Biso   1.000  N
  N27      1.0000 0.77280  0.97510  0.97726  Biso   1.000  N
  N28      1.0000 0.59560  0.05990  0.98073  Biso   1.000  N
  N29      1.0000 0.75790  0.15660  0.99062  Biso   1.000  N
  N30      1.0000 0.93910  0.06970  0.93964  Biso   1.000  N
  N31      1.0000 0.77600  0.27000  0.91221  Biso   1.000  N
  N32      1.0000 0.04150  0.33740  0.92542  Biso   1.000  N
  N33      1.0000 0.84810  0.43280  0.97917  Biso   1.000  N
  N34      1.0000 0.01030  0.24880  0.01083  Biso   1.000  N
  N35      1.0000 0.67550  0.14940  0.88055  Biso   1.000  N
  N36      1.0000 0.83600  0.24250  0.85746  Biso   1.000  N
  N37      1.0000 0.77140  0.40090  0.87244  Biso   1.000  N
  N38      1.0000 0.60230  0.32690  0.89180  Biso   1.000  N
  N39      1.0000 0.65820  0.26970  0.83697  Biso   1.000  N
  N40      1.0000 0.59720  0.27110  0.74706  Biso   1.000  N
  N41      1.0000 0.39870  0.21440  0.79862  Biso   1.000  N
  N42      1.0000 0.50020  0.02250  0.75490  Biso   1.000  N
  N43      1.0000 0.56370  0.01540  0.83913  Biso   1.000  N
  N44      1.0000 0.77220  0.06880  0.78304  Biso   1.000  N
  N45      1.0000 0.46630  0.90290  0.71134  Biso   1.000  N
  N46      1.0000 0.39280  0.08150  0.70842  Biso   1.000  N
  N47      1.0000 0.31720  0.06780  0.75824  Biso   1.000  N
  N48      1.0000 0.36960  0.88050  0.76304  Biso   1.000  N
  N49      1.0000 0.85390  0.61640  0.96303  Biso   1.000  N
  N50      1.0000 0.68340  0.52430  0.97119  Biso   1.000  N
  N51      1.0000 0.72720  0.47510  0.02274  Biso   1.000  N
  N52      1.0000 0.90440  0.55990  0.01927  Biso   1.000  N
  N53      1.0000 0.74210  0.65660  0.00938  Biso   1.000  N
  N54      1.0000 0.56090  0.56970  0.06036  Biso   1.000  N
  N55      1.0000 0.72400  0.77000  0.08779  Biso   1.000  N
  N56      1.0000 0.45850  0.83740  0.07458  Biso   1.000  N
  N57      1.0000 0.65190  0.93280  0.02083  Biso   1.000  N
  N58      1.0000 0.48970  0.74880  0.98917  Biso   1.000  N
  N59      1.0000 0.82450  0.64940  0.11945  Biso   1.000  N
  N60      1.0000 0.66400  0.74250  0.14254  Biso   1.000  N
  N61      1.0000 0.72860  0.90090  0.12756  Biso   1.000  N
  N62      1.0000 0.89770  0.82690  0.10820  Biso   1.000  N
  N63      1.0000 0.84180  0.76970  0.16303  Biso   1.000  N
  N64      1.0000 0.90280  0.77110  0.25294  Biso   1.000  N
  N65      1.0000 0.10130  0.71440  0.20138  Biso   1.000  N
  N66      1.0000 0.99980  0.52250  0.24510  Biso   1.000  N
  N67      1.0000 0.93630  0.51540  0.16087  Biso   1.000  N
  N68      1.0000 0.72780  0.56880  0.21696  Biso   1.000  N
  N69      1.0000 0.03370  0.40290  0.28866  Biso   1.000  N
  N70      1.0000 0.10720  0.58150  0.29158  Biso   1.000  N
  N71      1.0000 0.18280  0.56780  0.24176  Biso   1.000  N
  N72      1.0000 0.13040  0.38050  0.23696  Biso   1.000  N
  N73      1.0000 0.14610  0.88360  0.46303  Biso   1.000  N
  N74      1.0000 0.31660  0.97570  0.47119  Biso   1.000  N
  N75      1.0000 0.27280  0.02490  0.52274  Biso   1.000  N
  N76      1.0000 0.09560  0.94010  0.51927  Biso   1.000  N
  N77      1.0000 0.25790  0.84340  0.50938  Biso   1.000  N
  N78      1.0000 0.43910  0.93030  0.56036  Biso   1.000  N
  N79      1.0000 0.27600  0.73000  0.58779  Biso   1.000  N
  N80      1.0000 0.54150  0.66260  0.57458  Biso   1.000  N
  N81      1.0000 0.34810  0.56720  0.52083  Biso   1.000  N
  N82      1.0000 0.51030  0.75120  0.48917  Biso   1.000  N
  N83      1.0000 0.17550  0.85060  0.61945  Biso   1.000  N
  N84      1.0000 0.33600  0.75750  0.64254  Biso   1.000  N
  N85      1.0000 0.27140  0.59910  0.62756  Biso   1.000  N
  N86      1.0000 0.10230  0.67310  0.60820  Biso   1.000  N
  N87      1.0000 0.15820  0.73030  0.66303  Biso   1.000  N
  N88      1.0000 0.09720  0.72890  0.75294  Biso   1.000  N
  N89      1.0000 0.89870  0.78560  0.70138  Biso   1.000  N
  N90      1.0000 0.00020  0.97750  0.74510  Biso   1.000  N
  N91      1.0000 0.06370  0.98460  0.66087  Biso   1.000  N
  N92      1.0000 0.27220  0.93120  0.71696  Biso   1.000  N
  N93      1.0000 0.96630  0.09710  0.78866  Biso   1.000  N
  N94      1.0000 0.89280  0.91850  0.79158  Biso   1.000  N
  N95      1.0000 0.81720  0.93220  0.74176  Biso   1.000  N
  N96      1.0000 0.86960  0.11950  0.73696  Biso   1.000  N
  Fe9      1.0000 0.89970  0.75251  0.54018  Biso   1.000  Fe
  Fe10     1.0000 0.58863  0.64650  0.70612  Biso   1.000  Fe
  Fe11     1.0000 0.10030  0.74749  0.04018  Biso   1.000  Fe
  Fe12     1.0000 0.41137  0.85350  0.20612  Biso   1.000  Fe
  Fe13     1.0000 0.39970  0.24749  0.95982  Biso   1.000  Fe
  Fe14     1.0000 0.08863  0.35350  0.79388  Biso   1.000  Fe
  Fe15     1.0000 0.60030  0.25251  0.45982  Biso   1.000  Fe
  Fe16     1.0000 0.91137  0.14650  0.29388  Biso   1.000  Fe
  Ni13     1.0000 0.70274  0.54602  0.49367  Biso   1.000  Ni
  Ni14     1.0000 0.71712  0.77691  0.62455  Biso   1.000  Ni
  Ni15     1.0000 0.38712  0.47818  0.76483  Biso   1.000  Ni
  Ni16     1.0000 0.29726  0.95398  0.99367  Biso   1.000  Ni
  Ni17     1.0000 0.28288  0.72309  0.12455  Biso   1.000  Ni
  Ni18     1.0000 0.61288  0.02182  0.26483  Biso   1.000  Ni
  Ni19     1.0000 0.20274  0.45398  0.00633  Biso   1.000  Ni
  Ni20     1.0000 0.21712  0.22309  0.87545  Biso   1.000  Ni
  Ni21     1.0000 0.88712  0.52182  0.73517  Biso   1.000  Ni
  Ni22     1.0000 0.79726  0.04602  0.50633  Biso   1.000  Ni
  Ni23     1.0000 0.78288  0.27691  0.37545  Biso   1.000  Ni
  Ni24     1.0000 0.11288  0.97818  0.23517  Biso   1.000  Ni
  H265     1.0000 0.35790  0.59030  0.73010  Biso   1.000  H
  H266     1.0000 0.60800  0.64800  0.46850  Biso   1.000  H
  H267     1.0000 0.62800  0.57900  0.45020  Biso   1.000  H
  H268     1.0000 0.73500  0.71700  0.46170  Biso   1.000  H
  H269     1.0000 0.67700  0.70500  0.43530  Biso   1.000  H
  H270     1.0000 0.75300  0.57400  0.42450  Biso   1.000  H
  H271     1.0000 0.80600  0.65900  0.42360  Biso   1.000  H
  H272     1.0000 0.86900  0.63900  0.46580  Biso   1.000  H
  H273     1.0000 0.89800  0.57300  0.44640  Biso   1.000  H
  H274     1.0000 0.80900  0.48600  0.46260  Biso   1.000  H
  H275     1.0000 0.93600  0.46100  0.47970  Biso   1.000  H
  H276     1.0000 0.91400  0.54200  0.49890  Biso   1.000  H
  H277     1.0000 0.82100  0.37800  0.49960  Biso   1.000  H
  H278     1.0000 0.88900  0.41200  0.52140  Biso   1.000  H
  H279     1.0000 0.79500  0.51500  0.53130  Biso   1.000  H
  H280     1.0000 0.70300  0.36400  0.52880  Biso   1.000  H
  H281     1.0000 0.76100  0.39500  0.55340  Biso   1.000  H
  H282     1.0000 0.63100  0.42200  0.56890  Biso   1.000  H
  H283     1.0000 0.67100  0.51400  0.56350  Biso   1.000  H
  H284     1.0000 0.52000  0.50300  0.54970  Biso   1.000  H
  H285     1.0000 0.56300  0.43800  0.52400  Biso   1.000  H
  H286     1.0000 0.54600  0.57800  0.51120  Biso   1.000  H
  H287     1.0000 0.60300  0.60500  0.53090  Biso   1.000  H
  H288     1.0000 0.64700  0.63900  0.63260  Biso   1.000  H
  H289     1.0000 0.63800  0.65100  0.60510  Biso   1.000  H
  H290     1.0000 0.71300  0.52000  0.61460  Biso   1.000  H
  H291     1.0000 0.76400  0.59200  0.59820  Biso   1.000  H
  H292     1.0000 0.84300  0.53600  0.63380  Biso   1.000  H
  H293     1.0000 0.79000  0.58500  0.65390  Biso   1.000  H
  H294     1.0000 0.89800  0.66900  0.61810  Biso   1.000  H
  H295     1.0000 0.92500  0.65400  0.64820  Biso   1.000  H
  H296     1.0000 0.82600  0.73600  0.65880  Biso   1.000  H
  H297     1.0000 0.91600  0.81500  0.61980  Biso   1.000  H
  H298     1.0000 0.95500  0.80300  0.64910  Biso   1.000  H
  H299     1.0000 0.88500  0.94300  0.64340  Biso   1.000  H
  H300     1.0000 0.82700  0.89700  0.66450  Biso   1.000  H
  H301     1.0000 0.78600  0.92000  0.61160  Biso   1.000  H
  H302     1.0000 0.75600  0.02900  0.63060  Biso   1.000  H
  H303     1.0000 0.69600  0.96400  0.65260  Biso   1.000  H
  H304     1.0000 0.61600  0.03500  0.61740  Biso   1.000  H
  H305     1.0000 0.66500  0.97500  0.59750  Biso   1.000  H
  H306     1.0000 0.55800  0.90600  0.63960  Biso   1.000  H
  H307     1.0000 0.51400  0.92100  0.60700  Biso   1.000  H
  H308     1.0000 0.61300  0.83000  0.59130  Biso   1.000  H
  H309     1.0000 0.56600  0.78200  0.60840  Biso   1.000  H
  H310     1.0000 0.49300  0.36400  0.77950  Biso   1.000  H
  H311     1.0000 0.43500  0.37900  0.80070  Biso   1.000  H
  H312     1.0000 0.58000  0.47400  0.78880  Biso   1.000  H
  H313     1.0000 0.57000  0.40100  0.81340  Biso   1.000  H
  H314     1.0000 0.55500  0.53400  0.83140  Biso   1.000  H
  H315     1.0000 0.45300  0.49800  0.82960  Biso   1.000  H
  H316     1.0000 0.52600  0.60800  0.79430  Biso   1.000  H
  H317     1.0000 0.46400  0.64700  0.81900  Biso   1.000  H
  H318     1.0000 0.35400  0.57700  0.80190  Biso   1.000  H
  H319     1.0000 0.35200  0.70500  0.79040  Biso   1.000  H
  H320     1.0000 0.41900  0.68000  0.76520  Biso   1.000  H
  H321     1.0000 0.24900  0.62100  0.77030  Biso   1.000  H
  H322     1.0000 0.27400  0.69100  0.74870  Biso   1.000  H
  H323     1.0000 0.19200  0.52000  0.73890  Biso   1.000  H
  H324     1.0000 0.21500  0.59500  0.71280  Biso   1.000  H
  H325     1.0000 0.32200  0.47400  0.70190  Biso   1.000  H
  H326     1.0000 0.22000  0.45600  0.69530  Biso   1.000  H
  H327     1.0000 0.29000  0.33000  0.70450  Biso   1.000  H
  H328     1.0000 0.22900  0.36400  0.73620  Biso   1.000  H
  H329     1.0000 0.41200  0.37900  0.72260  Biso   1.000  H
  H330     1.0000 0.38400  0.33500  0.74680  Biso   1.000  H
  H331     1.0000 0.64210  0.90970  0.23010  Biso   1.000  H
  H332     1.0000 0.39200  0.85200  0.96850  Biso   1.000  H
  H333     1.0000 0.37200  0.92100  0.95020  Biso   1.000  H
  H334     1.0000 0.26500  0.78300  0.96170  Biso   1.000  H
  H335     1.0000 0.32300  0.79500  0.93530  Biso   1.000  H
  H336     1.0000 0.24700  0.92600  0.92450  Biso   1.000  H
  H337     1.0000 0.19400  0.84100  0.92360  Biso   1.000  H
  H338     1.0000 0.13100  0.86100  0.96580  Biso   1.000  H
  H339     1.0000 0.10200  0.92700  0.94640  Biso   1.000  H
  H340     1.0000 0.19100  0.01400  0.96260  Biso   1.000  H
  H341     1.0000 0.06400  0.03900  0.97970  Biso   1.000  H
  H342     1.0000 0.08600  0.95800  0.99890  Biso   1.000  H
  H343     1.0000 0.17900  0.12200  0.99960  Biso   1.000  H
  H344     1.0000 0.11100  0.08800  0.02140  Biso   1.000  H
  H345     1.0000 0.20500  0.98500  0.03130  Biso   1.000  H
  H346     1.0000 0.29700  0.13600  0.02880  Biso   1.000  H
  H347     1.0000 0.23900  0.10500  0.05340  Biso   1.000  H
  H348     1.0000 0.36900  0.07800  0.06890  Biso   1.000  H
  H349     1.0000 0.32900  0.98600  0.06350  Biso   1.000  H
  H350     1.0000 0.48000  0.99700  0.04970  Biso   1.000  H
  H351     1.0000 0.43700  0.06200  0.02400  Biso   1.000  H
  H352     1.0000 0.45400  0.92200  0.01120  Biso   1.000  H
  H353     1.0000 0.39700  0.89500  0.03090  Biso   1.000  H
  H354     1.0000 0.35300  0.86100  0.13260  Biso   1.000  H
  H355     1.0000 0.36200  0.84900  0.10510  Biso   1.000  H
  H356     1.0000 0.28700  0.98000  0.11460  Biso   1.000  H
  H357     1.0000 0.23600  0.90800  0.09820  Biso   1.000  H
  H358     1.0000 0.15700  0.96400  0.13380  Biso   1.000  H
  H359     1.0000 0.21000  0.91500  0.15390  Biso   1.000  H
  H360     1.0000 0.10200  0.83100  0.11810  Biso   1.000  H
  H361     1.0000 0.07500  0.84600  0.14820  Biso   1.000  H
  H362     1.0000 0.17400  0.76400  0.15880  Biso   1.000  H
  H363     1.0000 0.08400  0.68500  0.11980  Biso   1.000  H
  H364     1.0000 0.04500  0.69700  0.14910  Biso   1.000  H
  H365     1.0000 0.11500  0.55700  0.14340  Biso   1.000  H
  H366     1.0000 0.17300  0.60300  0.16450  Biso   1.000  H
  H367     1.0000 0.21400  0.58000  0.11160  Biso   1.000  H
  H368     1.0000 0.24400  0.47100  0.13060  Biso   1.000  H
  H369     1.0000 0.30400  0.53600  0.15260  Biso   1.000  H
  H370     1.0000 0.38400  0.46500  0.11740  Biso   1.000  H
  H371     1.0000 0.33500  0.52500  0.09750  Biso   1.000  H
  H372     1.0000 0.44200  0.59400  0.13960  Biso   1.000  H
  H373     1.0000 0.48600  0.57900  0.10700  Biso   1.000  H
  H374     1.0000 0.38700  0.67000  0.09130  Biso   1.000  H
  H375     1.0000 0.43400  0.71800  0.10840  Biso   1.000  H
  H376     1.0000 0.50700  0.13600  0.27950  Biso   1.000  H
  H377     1.0000 0.56500  0.12100  0.30070  Biso   1.000  H
  H378     1.0000 0.42000  0.02600  0.28880  Biso   1.000  H
  H379     1.0000 0.43000  0.09900  0.31340  Biso   1.000  H
  H380     1.0000 0.44500  0.96600  0.33140  Biso   1.000  H
  H381     1.0000 0.54700  0.00200  0.32960  Biso   1.000  H
  H382     1.0000 0.47400  0.89200  0.29430  Biso   1.000  H
  H383     1.0000 0.53600  0.85300  0.31900  Biso   1.000  H
  H384     1.0000 0.64600  0.92300  0.30190  Biso   1.000  H
  H385     1.0000 0.64800  0.79500  0.29040  Biso   1.000  H
  H386     1.0000 0.58100  0.82000  0.26520  Biso   1.000  H
  H387     1.0000 0.75100  0.87900  0.27030  Biso   1.000  H
  H388     1.0000 0.72600  0.80900  0.24870  Biso   1.000  H
  H389     1.0000 0.80800  0.98000  0.23890  Biso   1.000  H
  H390     1.0000 0.78500  0.90500  0.21280  Biso   1.000  H
  H391     1.0000 0.67800  0.02600  0.20190  Biso   1.000  H
  H392     1.0000 0.78000  0.04400  0.19530  Biso   1.000  H
  H393     1.0000 0.71000  0.17000  0.20450  Biso   1.000  H
  H394     1.0000 0.77100  0.13600  0.23620  Biso   1.000  H
  H395     1.0000 0.58800  0.12100  0.22260  Biso   1.000  H
  H396     1.0000 0.61600  0.16500  0.24680  Biso   1.000  H
  H397     1.0000 0.85790  0.40970  0.76990  Biso   1.000  H
  H398     1.0000 0.10800  0.35200  0.03150  Biso   1.000  H
  H399     1.0000 0.12800  0.42100  0.04980  Biso   1.000  H
  H400     1.0000 0.23500  0.28300  0.03830  Biso   1.000  H
  H401     1.0000 0.17700  0.29500  0.06470  Biso   1.000  H
  H402     1.0000 0.25300  0.42600  0.07550  Biso   1.000  H
  H403     1.0000 0.30600  0.34100  0.07640  Biso   1.000  H
  H404     1.0000 0.36900  0.36100  0.03420  Biso   1.000  H
  H405     1.0000 0.39800  0.42700  0.05360  Biso   1.000  H
  H406     1.0000 0.30900  0.51400  0.03740  Biso   1.000  H
  H407     1.0000 0.43600  0.53900  0.02030  Biso   1.000  H
  H408     1.0000 0.41400  0.45800  0.00110  Biso   1.000  H
  H409     1.0000 0.32100  0.62200  0.00040  Biso   1.000  H
  H410     1.0000 0.38900  0.58800  0.97860  Biso   1.000  H
  H411     1.0000 0.29500  0.48500  0.96870  Biso   1.000  H
  H412     1.0000 0.20300  0.63600  0.97120  Biso   1.000  H
  H413     1.0000 0.26100  0.60500  0.94660  Biso   1.000  H
  H414     1.0000 0.13100  0.57800  0.93110  Biso   1.000  H
  H415     1.0000 0.17100  0.48600  0.93650  Biso   1.000  H
  H416     1.0000 0.02000  0.49700  0.95030  Biso   1.000  H
  H417     1.0000 0.06300  0.56200  0.97600  Biso   1.000  H
  H418     1.0000 0.04600  0.42200  0.98880  Biso   1.000  H
  H419     1.0000 0.10300  0.39500  0.96910  Biso   1.000  H
  H420     1.0000 0.14700  0.36100  0.86740  Biso   1.000  H
  H421     1.0000 0.13800  0.34900  0.89490  Biso   1.000  H
  H422     1.0000 0.21300  0.48000  0.88540  Biso   1.000  H
  H423     1.0000 0.26400  0.40800  0.90180  Biso   1.000  H
  H424     1.0000 0.34300  0.46400  0.86620  Biso   1.000  H
  H425     1.0000 0.29000  0.41500  0.84610  Biso   1.000  H
  H426     1.0000 0.39800  0.33100  0.88190  Biso   1.000  H
  H427     1.0000 0.42500  0.34600  0.85180  Biso   1.000  H
  H428     1.0000 0.32600  0.26400  0.84120  Biso   1.000  H
  H429     1.0000 0.41600  0.18500  0.88020  Biso   1.000  H
  H430     1.0000 0.45500  0.19700  0.85090  Biso   1.000  H
  H431     1.0000 0.38500  0.05700  0.85660  Biso   1.000  H
  H432     1.0000 0.32700  0.10300  0.83550  Biso   1.000  H
  H433     1.0000 0.28600  0.08000  0.88840  Biso   1.000  H
  H434     1.0000 0.25600  0.97100  0.86940  Biso   1.000  H
  H435     1.0000 0.19600  0.03600  0.84740  Biso   1.000  H
  H436     1.0000 0.11600  0.96500  0.88260  Biso   1.000  H
  H437     1.0000 0.16500  0.02500  0.90250  Biso   1.000  H
  H438     1.0000 0.05800  0.09400  0.86040  Biso   1.000  H
  H439     1.0000 0.01400  0.07900  0.89300  Biso   1.000  H
  H440     1.0000 0.11300  0.17000  0.90870  Biso   1.000  H
  H441     1.0000 0.06600  0.21800  0.89160  Biso   1.000  H
  H442     1.0000 0.99300  0.63600  0.72050  Biso   1.000  H
  H443     1.0000 0.93500  0.62100  0.69930  Biso   1.000  H
  H444     1.0000 0.08000  0.52600  0.71120  Biso   1.000  H
  H445     1.0000 0.07000  0.59900  0.68660  Biso   1.000  H
  H446     1.0000 0.05500  0.46600  0.66860  Biso   1.000  H
  H447     1.0000 0.95300  0.50200  0.67040  Biso   1.000  H
  H448     1.0000 0.02600  0.39200  0.70570  Biso   1.000  H
  H449     1.0000 0.96400  0.35300  0.68100  Biso   1.000  H
  H450     1.0000 0.85400  0.42300  0.69810  Biso   1.000  H
  H451     1.0000 0.85200  0.29500  0.70960  Biso   1.000  H
  H452     1.0000 0.91900  0.32000  0.73480  Biso   1.000  H
  H453     1.0000 0.74900  0.37900  0.72970  Biso   1.000  H
  H454     1.0000 0.77400  0.30900  0.75130  Biso   1.000  H
  H455     1.0000 0.69200  0.48000  0.76110  Biso   1.000  H
  H456     1.0000 0.71500  0.40500  0.78720  Biso   1.000  H
  H457     1.0000 0.82200  0.52600  0.79810  Biso   1.000  H
  H458     1.0000 0.72000  0.54400  0.80470  Biso   1.000  H
  H459     1.0000 0.79000  0.67000  0.79550  Biso   1.000  H
  H460     1.0000 0.72900  0.63600  0.76380  Biso   1.000  H
  H461     1.0000 0.91200  0.62100  0.77740  Biso   1.000  H
  H462     1.0000 0.88400  0.66500  0.75320  Biso   1.000  H
  H463     1.0000 0.14210  0.09030  0.26990  Biso   1.000  H
  H464     1.0000 0.89200  0.14800  0.53150  Biso   1.000  H
  H465     1.0000 0.87200  0.07900  0.54980  Biso   1.000  H
  H466     1.0000 0.76500  0.21700  0.53830  Biso   1.000  H
  H467     1.0000 0.82300  0.20500  0.56470  Biso   1.000  H
  H468     1.0000 0.74700  0.07400  0.57550  Biso   1.000  H
  H469     1.0000 0.69400  0.15900  0.57640  Biso   1.000  H
  H470     1.0000 0.63100  0.13900  0.53420  Biso   1.000  H
  H471     1.0000 0.60200  0.07300  0.55360  Biso   1.000  H
  H472     1.0000 0.69100  0.98600  0.53740  Biso   1.000  H
  H473     1.0000 0.56400  0.96100  0.52030  Biso   1.000  H
  H474     1.0000 0.58600  0.04200  0.50110  Biso   1.000  H
  H475     1.0000 0.67900  0.87800  0.50040  Biso   1.000  H
  H476     1.0000 0.61100  0.91200  0.47860  Biso   1.000  H
  H477     1.0000 0.70500  0.01500  0.46870  Biso   1.000  H
  H478     1.0000 0.79700  0.86400  0.47120  Biso   1.000  H
  H479     1.0000 0.73900  0.89500  0.44660  Biso   1.000  H
  H480     1.0000 0.86900  0.92200  0.43110  Biso   1.000  H
  H481     1.0000 0.82900  0.01400  0.43650  Biso   1.000  H
  H482     1.0000 0.98000  0.00300  0.45030  Biso   1.000  H
  H483     1.0000 0.93700  0.93800  0.47600  Biso   1.000  H
  H484     1.0000 0.95400  0.07800  0.48880  Biso   1.000  H
  H485     1.0000 0.89700  0.10500  0.46910  Biso   1.000  H
  H486     1.0000 0.85300  0.13900  0.36740  Biso   1.000  H
  H487     1.0000 0.86200  0.15100  0.39490  Biso   1.000  H
  H488     1.0000 0.78700  0.02000  0.38540  Biso   1.000  H
  H489     1.0000 0.73600  0.09200  0.40180  Biso   1.000  H
  H490     1.0000 0.65700  0.03600  0.36620  Biso   1.000  H
  H491     1.0000 0.71000  0.08500  0.34610  Biso   1.000  H
  H492     1.0000 0.60200  0.16900  0.38190  Biso   1.000  H
  H493     1.0000 0.57500  0.15400  0.35180  Biso   1.000  H
  H494     1.0000 0.67400  0.23600  0.34120  Biso   1.000  H
  H495     1.0000 0.58400  0.31500  0.38020  Biso   1.000  H
  H496     1.0000 0.54500  0.30300  0.35090  Biso   1.000  H
  H497     1.0000 0.61500  0.44300  0.35660  Biso   1.000  H
  H498     1.0000 0.67300  0.39700  0.33550  Biso   1.000  H
  H499     1.0000 0.71400  0.42000  0.38840  Biso   1.000  H
  H500     1.0000 0.74400  0.52900  0.36940  Biso   1.000  H
  H501     1.0000 0.80400  0.46400  0.34740  Biso   1.000  H
  H502     1.0000 0.88400  0.53500  0.38260  Biso   1.000  H
  H503     1.0000 0.83500  0.47500  0.40250  Biso   1.000  H
  H504     1.0000 0.94200  0.40600  0.36040  Biso   1.000  H
  H505     1.0000 0.98600  0.42100  0.39300  Biso   1.000  H
  H506     1.0000 0.88700  0.33000  0.40870  Biso   1.000  H
  H507     1.0000 0.93400  0.28200  0.39160  Biso   1.000  H
  H508     1.0000 0.00700  0.86400  0.22050  Biso   1.000  H
  H509     1.0000 0.06500  0.87900  0.19930  Biso   1.000  H
  H510     1.0000 0.92000  0.97400  0.21120  Biso   1.000  H
  H511     1.0000 0.93000  0.90100  0.18660  Biso   1.000  H
  H512     1.0000 0.94500  0.03400  0.16860  Biso   1.000  H
  H513     1.0000 0.04700  0.99800  0.17040  Biso   1.000  H
  H514     1.0000 0.97400  0.10800  0.20570  Biso   1.000  H
  H515     1.0000 0.03600  0.14700  0.18100  Biso   1.000  H
  H516     1.0000 0.14600  0.07700  0.19810  Biso   1.000  H
  H517     1.0000 0.14800  0.20500  0.20960  Biso   1.000  H
  H518     1.0000 0.08100  0.18000  0.23480  Biso   1.000  H
  H519     1.0000 0.25100  0.12100  0.22970  Biso   1.000  H
  H520     1.0000 0.22600  0.19100  0.25130  Biso   1.000  H
  H521     1.0000 0.30800  0.02000  0.26110  Biso   1.000  H
  H522     1.0000 0.28500  0.09500  0.28720  Biso   1.000  H
  H523     1.0000 0.17800  0.97400  0.29810  Biso   1.000  H
  H524     1.0000 0.28000  0.95600  0.30470  Biso   1.000  H
  H525     1.0000 0.21000  0.83000  0.29550  Biso   1.000  H
  H526     1.0000 0.27100  0.86400  0.26380  Biso   1.000  H
  H527     1.0000 0.08800  0.87900  0.27740  Biso   1.000  H
  H528     1.0000 0.11600  0.83500  0.25320  Biso   1.000  H
  C145     1.0000 0.70520  0.67510  0.44851  Biso   1.000  C
  C146     1.0000 0.77930  0.62530  0.43548  Biso   1.000  C
  C147     1.0000 0.84860  0.59260  0.45402  Biso   1.000  C
  C148     1.0000 0.88540  0.49280  0.48936  Biso   1.000  C
  C149     1.0000 0.84580  0.43210  0.50887  Biso   1.000  C
  C150     1.0000 0.72370  0.41580  0.53989  Biso   1.000  C
  C151     1.0000 0.64900  0.45990  0.55395  Biso   1.000  C
  C152     1.0000 0.57250  0.48610  0.53622  Biso   1.000  C
  C153     1.0000 0.80800  0.69720  0.52047  Biso   1.000  C
  C154     1.0000 0.92790  0.63890  0.55262  Biso   1.000  C
  C155     1.0000 0.82090  0.76420  0.56969  Biso   1.000  C
  C156     1.0000 0.99160  0.80450  0.56153  Biso   1.000  C
  C157     1.0000 0.86650  0.86580  0.52839  Biso   1.000  C
  C158     1.0000 0.97280  0.74750  0.50876  Biso   1.000  C
  C159     1.0000 0.74290  0.58280  0.61571  Biso   1.000  C
  C160     1.0000 0.81280  0.58570  0.63671  Biso   1.000  C
  C161     1.0000 0.87510  0.65990  0.63500  Biso   1.000  C
  C162     1.0000 0.89640  0.81490  0.63858  Biso   1.000  C
  C163     1.0000 0.84800  0.89550  0.64503  Biso   1.000  C
  C164     1.0000 0.71700  0.97490  0.63323  Biso   1.000  C
  C165     1.0000 0.64000  0.98020  0.61412  Biso   1.000  C
  C166     1.0000 0.57210  0.91070  0.61792  Biso   1.000  C
  C167     1.0000 0.63330  0.72790  0.68001  Biso   1.000  C
  C168     1.0000 0.59850  0.72560  0.73520  Biso   1.000  C
  C169     1.0000 0.46990  0.68970  0.70222  Biso   1.000  C
  C170     1.0000 0.53870  0.56550  0.73086  Biso   1.000  C
  C171     1.0000 0.57310  0.56420  0.67777  Biso   1.000  C
  C172     1.0000 0.70530  0.59930  0.71245  Biso   1.000  C
  C173     1.0000 0.53610  0.44650  0.80380  Biso   1.000  C
  C174     1.0000 0.50200  0.51640  0.82128  Biso   1.000  C
  C175     1.0000 0.47360  0.59560  0.80731  Biso   1.000  C
  C176     1.0000 0.36760  0.65920  0.77734  Biso   1.000  C
  C177     1.0000 0.29340  0.63930  0.75949  Biso   1.000  C
  C178     1.0000 0.24420  0.53950  0.72549  Biso   1.000  C
  C179     1.0000 0.27050  0.46670  0.70788  Biso   1.000  C
  C180     1.0000 0.28720  0.38050  0.72127  Biso   1.000  C
  C181     1.0000 0.29480  0.82490  0.94851  Biso   1.000  C
  C182     1.0000 0.22070  0.87470  0.93548  Biso   1.000  C
  C183     1.0000 0.15140  0.90740  0.95402  Biso   1.000  C
  C184     1.0000 0.11460  0.00720  0.98936  Biso   1.000  C
  C185     1.0000 0.15420  0.06790  0.00887  Biso   1.000  C
  C186     1.0000 0.27630  0.08420  0.03989  Biso   1.000  C
  C187     1.0000 0.35100  0.04010  0.05395  Biso   1.000  C
  C188     1.0000 0.42750  0.01390  0.03622  Biso   1.000  C
  C189     1.0000 0.19200  0.80280  0.02047  Biso   1.000  C
  C190     1.0000 0.07210  0.86110  0.05262  Biso   1.000  C
  C191     1.0000 0.17910  0.73580  0.06969  Biso   1.000  C
  C192     1.0000 0.00840  0.69550  0.06153  Biso   1.000  C
  C193     1.0000 0.13350  0.63420  0.02839  Biso   1.000  C
  C194     1.0000 0.02720  0.75250  0.00876  Biso   1.000  C
  C195     1.0000 0.25710  0.91720  0.11571  Biso   1.000  C
  C196     1.0000 0.18720  0.91430  0.13671  Biso   1.000  C
  C197     1.0000 0.12490  0.84010  0.13500  Biso   1.000  C
  C198     1.0000 0.10360  0.68510  0.13858  Biso   1.000  C
  C199     1.0000 0.15200  0.60450  0.14503  Biso   1.000  C
  C200     1.0000 0.28300  0.52510  0.13323  Biso   1.000  C
  C201     1.0000 0.36000  0.51980  0.11412  Biso   1.000  C
  C202     1.0000 0.42790  0.58930  0.11792  Biso   1.000  C
  C203     1.0000 0.36670  0.77210  0.18001  Biso   1.000  C
  C204     1.0000 0.40150  0.77440  0.23520  Biso   1.000  C
  C205     1.0000 0.53010  0.81030  0.20222  Biso   1.000  C
  C206     1.0000 0.46130  0.93450  0.23086  Biso   1.000  C
  C207     1.0000 0.42690  0.93580  0.17777  Biso   1.000  C
  C208     1.0000 0.29470  0.90070  0.21245  Biso   1.000  C
  C209     1.0000 0.46390  0.05350  0.30380  Biso   1.000  C
  C210     1.0000 0.49800  0.98360  0.32128  Biso   1.000  C
  C211     1.0000 0.52640  0.90440  0.30731  Biso   1.000  C
  C212     1.0000 0.63240  0.84080  0.27734  Biso   1.000  C
  C213     1.0000 0.70660  0.86070  0.25949  Biso   1.000  C
  C214     1.0000 0.75580  0.96050  0.22549  Biso   1.000  C
  C215     1.0000 0.72950  0.03330  0.20788  Biso   1.000  C
  C216     1.0000 0.71280  0.11950  0.22127  Biso   1.000  C
  C217     1.0000 0.20520  0.32490  0.05149  Biso   1.000  C
  C218     1.0000 0.27930  0.37470  0.06452  Biso   1.000  C
  C219     1.0000 0.34860  0.40740  0.04598  Biso   1.000  C
  C220     1.0000 0.38540  0.50720  0.01064  Biso   1.000  C
  C221     1.0000 0.34580  0.56790  0.99113  Biso   1.000  C
  C222     1.0000 0.22370  0.58420  0.96011  Biso   1.000  C
  C223     1.0000 0.14900  0.54010  0.94605  Biso   1.000  C
  C224     1.0000 0.07250  0.51390  0.96378  Biso   1.000  C
  C225     1.0000 0.30800  0.30280  0.97953  Biso   1.000  C
  C226     1.0000 0.42790  0.36110  0.94738  Biso   1.000  C
  C227     1.0000 0.32090  0.23580  0.93031  Biso   1.000  C
  C228     1.0000 0.49160  0.19550  0.93847  Biso   1.000  C
  C229     1.0000 0.36650  0.13420  0.97161  Biso   1.000  C
  C230     1.0000 0.47280  0.25250  0.99124  Biso   1.000  C
  C231     1.0000 0.24290  0.41720  0.88429  Biso   1.000  C
  C232     1.0000 0.31280  0.41430  0.86329  Biso   1.000  C
  C233     1.0000 0.37510  0.34010  0.86500  Biso   1.000  C
  C234     1.0000 0.39640  0.18510  0.86142  Biso   1.000  C
  C235     1.0000 0.34800  0.10450  0.85497  Biso   1.000  C
  C236     1.0000 0.21700  0.02510  0.86677  Biso   1.000  C
  C237     1.0000 0.14000  0.01980  0.88588  Biso   1.000  C
  C238     1.0000 0.07210  0.08930  0.88208  Biso   1.000  C
  C239     1.0000 0.13330  0.27210  0.81999  Biso   1.000  C
  C240     1.0000 0.09850  0.27440  0.76480  Biso   1.000  C
  C241     1.0000 0.96990  0.31030  0.79778  Biso   1.000  C
  C242     1.0000 0.03870  0.43450  0.76914  Biso   1.000  C
  C243     1.0000 0.07310  0.43580  0.82223  Biso   1.000  C
  C244     1.0000 0.20530  0.40070  0.78755  Biso   1.000  C
  C245     1.0000 0.03610  0.55350  0.69620  Biso   1.000  C
  C246     1.0000 0.00200  0.48360  0.67872  Biso   1.000  C
  C247     1.0000 0.97360  0.40440  0.69269  Biso   1.000  C
  C248     1.0000 0.86760  0.34080  0.72266  Biso   1.000  C
  C249     1.0000 0.79340  0.36070  0.74051  Biso   1.000  C
  C250     1.0000 0.74420  0.46050  0.77451  Biso   1.000  C
  C251     1.0000 0.77050  0.53330  0.79212  Biso   1.000  C
  C252     1.0000 0.78720  0.61950  0.77873  Biso   1.000  C
  C253     1.0000 0.79480  0.17510  0.55149  Biso   1.000  C
  C254     1.0000 0.72070  0.12530  0.56452  Biso   1.000  C
  C255     1.0000 0.65140  0.09260  0.54598  Biso   1.000  C
  C256     1.0000 0.61460  0.99280  0.51064  Biso   1.000  C
  C257     1.0000 0.65420  0.93210  0.49113  Biso   1.000  C
  C258     1.0000 0.77630  0.91580  0.46011  Biso   1.000  C
  C259     1.0000 0.85100  0.95990  0.44605  Biso   1.000  C
  C260     1.0000 0.92750  0.98610  0.46378  Biso   1.000  C
  C261     1.0000 0.69200  0.19720  0.47953  Biso   1.000  C
  C262     1.0000 0.57210  0.13890  0.44738  Biso   1.000  C
  C263     1.0000 0.67910  0.26420  0.43031  Biso   1.000  C
  C264     1.0000 0.50840  0.30450  0.43847  Biso   1.000  C
  C265     1.0000 0.63350  0.36580  0.47161  Biso   1.000  C
  C266     1.0000 0.52720  0.24750  0.49124  Biso   1.000  C
  C267     1.0000 0.75710  0.08280  0.38429  Biso   1.000  C
  C268     1.0000 0.68720  0.08570  0.36329  Biso   1.000  C
  C269     1.0000 0.62490  0.15990  0.36500  Biso   1.000  C
  C270     1.0000 0.60360  0.31490  0.36142  Biso   1.000  C
  C271     1.0000 0.65200  0.39550  0.35497  Biso   1.000  C
  C272     1.0000 0.78300  0.47490  0.36677  Biso   1.000  C
  C273     1.0000 0.86000  0.48020  0.38588  Biso   1.000  C
  C274     1.0000 0.92790  0.41070  0.38208  Biso   1.000  C
  C275     1.0000 0.86670  0.22790  0.31999  Biso   1.000  C
  C276     1.0000 0.90150  0.22560  0.26480  Biso   1.000  C
  C277     1.0000 0.03010  0.18970  0.29778  Biso   1.000  C
  C278     1.0000 0.96130  0.06550  0.26914  Biso   1.000  C
  C279     1.0000 0.92690  0.06420  0.32223  Biso   1.000  C
  C280     1.0000 0.79470  0.09930  0.28755  Biso   1.000  C
  C281     1.0000 0.96390  0.94650  0.19620  Biso   1.000  C
  C282     1.0000 0.99800  0.01640  0.17872  Biso   1.000  C
  C283     1.0000 0.02640  0.09560  0.19269  Biso   1.000  C
  C284     1.0000 0.13240  0.15920  0.22266  Biso   1.000  C
  C285     1.0000 0.20660  0.13930  0.24051  Biso   1.000  C
  C286     1.0000 0.25580  0.03950  0.27451  Biso   1.000  C
  C287     1.0000 0.22950  0.96670  0.29212  Biso   1.000  C
  C288     1.0000 0.21280  0.88050  0.27873  Biso   1.000  C
  N97      1.0000 0.64610  0.61640  0.46303  Biso   1.000  N
  N98      1.0000 0.81660  0.52430  0.47119  Biso   1.000  N
  N99      1.0000 0.77280  0.47510  0.52274  Biso   1.000  N
  N100     1.0000 0.59560  0.55990  0.51927  Biso   1.000  N
  N101     1.0000 0.75790  0.65660  0.50938  Biso   1.000  N
  N102     1.0000 0.93910  0.56970  0.56036  Biso   1.000  N
  N103     1.0000 0.77600  0.77000  0.58779  Biso   1.000  N
  N104     1.0000 0.04150  0.83740  0.57458  Biso   1.000  N
  N105     1.0000 0.84810  0.93280  0.52083  Biso   1.000  N
  N106     1.0000 0.01030  0.74880  0.48917  Biso   1.000  N
  N107     1.0000 0.67550  0.64940  0.61945  Biso   1.000  N
  N108     1.0000 0.83600  0.74250  0.64254  Biso   1.000  N
  N109     1.0000 0.77140  0.90090  0.62756  Biso   1.000  N
  N110     1.0000 0.60230  0.82690  0.60820  Biso   1.000  N
  N111     1.0000 0.65820  0.76970  0.66303  Biso   1.000  N
  N112     1.0000 0.59720  0.77110  0.75294  Biso   1.000  N
  N113     1.0000 0.39870  0.71440  0.70138  Biso   1.000  N
  N114     1.0000 0.50020  0.52250  0.74510  Biso   1.000  N
  N115     1.0000 0.56370  0.51540  0.66087  Biso   1.000  N
  N116     1.0000 0.77220  0.56880  0.71696  Biso   1.000  N
  N117     1.0000 0.46630  0.40290  0.78866  Biso   1.000  N
  N118     1.0000 0.39280  0.58150  0.79158  Biso   1.000  N
  N119     1.0000 0.31720  0.56780  0.74176  Biso   1.000  N
  N120     1.0000 0.36960  0.38050  0.73696  Biso   1.000  N
  N121     1.0000 0.35390  0.88360  0.96303  Biso   1.000  N
  N122     1.0000 0.18340  0.97570  0.97119  Biso   1.000  N
  N123     1.0000 0.22720  0.02490  0.02274  Biso   1.000  N
  N124     1.0000 0.40440  0.94010  0.01927  Biso   1.000  N
  N125     1.0000 0.24210  0.84340  0.00938  Biso   1.000  N
  N126     1.0000 0.06090  0.93030  0.06036  Biso   1.000  N
  N127     1.0000 0.22400  0.73000  0.08779  Biso   1.000  N
  N128     1.0000 0.95850  0.66260  0.07458  Biso   1.000  N
  N129     1.0000 0.15190  0.56720  0.02083  Biso   1.000  N
  N130     1.0000 0.98970  0.75120  0.98917  Biso   1.000  N
  N131     1.0000 0.32450  0.85060  0.11945  Biso   1.000  N
  N132     1.0000 0.16400  0.75750  0.14254  Biso   1.000  N
  N133     1.0000 0.22860  0.59910  0.12756  Biso   1.000  N
  N134     1.0000 0.39770  0.67310  0.10820  Biso   1.000  N
  N135     1.0000 0.34180  0.73030  0.16303  Biso   1.000  N
  N136     1.0000 0.40280  0.72890  0.25294  Biso   1.000  N
  N137     1.0000 0.60130  0.78560  0.20138  Biso   1.000  N
  N138     1.0000 0.49980  0.97750  0.24510  Biso   1.000  N
  N139     1.0000 0.43630  0.98460  0.16087  Biso   1.000  N
  N140     1.0000 0.22780  0.93120  0.21696  Biso   1.000  N
  N141     1.0000 0.53370  0.09710  0.28866  Biso   1.000  N
  N142     1.0000 0.60720  0.91850  0.29158  Biso   1.000  N
  N143     1.0000 0.68280  0.93220  0.24176  Biso   1.000  N
  N144     1.0000 0.63040  0.11950  0.23696  Biso   1.000  N
  N145     1.0000 0.14610  0.38360  0.03697  Biso   1.000  N
  N146     1.0000 0.31660  0.47570  0.02881  Biso   1.000  N
  N147     1.0000 0.27280  0.52490  0.97726  Biso   1.000  N
  N148     1.0000 0.09560  0.44010  0.98073  Biso   1.000  N
  N149     1.0000 0.25790  0.34340  0.99062  Biso   1.000  N
  N150     1.0000 0.43910  0.43030  0.93964  Biso   1.000  N
  N151     1.0000 0.27600  0.23000  0.91221  Biso   1.000  N
  N152     1.0000 0.54150  0.16260  0.92542  Biso   1.000  N
  N153     1.0000 0.34810  0.06720  0.97917  Biso   1.000  N
  N154     1.0000 0.51030  0.25120  0.01083  Biso   1.000  N
  N155     1.0000 0.17550  0.35060  0.88055  Biso   1.000  N
  N156     1.0000 0.33600  0.25750  0.85746  Biso   1.000  N
  N157     1.0000 0.27140  0.09910  0.87244  Biso   1.000  N
  N158     1.0000 0.10230  0.17310  0.89180  Biso   1.000  N
  N159     1.0000 0.15820  0.23030  0.83697  Biso   1.000  N
  N160     1.0000 0.09720  0.22890  0.74706  Biso   1.000  N
  N161     1.0000 0.89870  0.28560  0.79862  Biso   1.000  N
  N162     1.0000 0.00020  0.47750  0.75490  Biso   1.000  N
  N163     1.0000 0.06370  0.48460  0.83913  Biso   1.000  N
  N164     1.0000 0.27220  0.43120  0.78304  Biso   1.000  N
  N165     1.0000 0.96630  0.59710  0.71134  Biso   1.000  N
  N166     1.0000 0.89280  0.41850  0.70842  Biso   1.000  N
  N167     1.0000 0.81720  0.43220  0.75824  Biso   1.000  N
  N168     1.0000 0.86960  0.61950  0.76304  Biso   1.000  N
  N169     1.0000 0.85390  0.11640  0.53697  Biso   1.000  N
  N170     1.0000 0.68340  0.02430  0.52881  Biso   1.000  N
  N171     1.0000 0.72720  0.97510  0.47726  Biso   1.000  N
  N172     1.0000 0.90440  0.05990  0.48073  Biso   1.000  N
  N173     1.0000 0.74210  0.15660  0.49062  Biso   1.000  N
  N174     1.0000 0.56090  0.06970  0.43964  Biso   1.000  N
  N175     1.0000 0.72400  0.27000  0.41221  Biso   1.000  N
  N176     1.0000 0.45850  0.33740  0.42542  Biso   1.000  N
  N177     1.0000 0.65190  0.43280  0.47917  Biso   1.000  N
  N178     1.0000 0.48970  0.24880  0.51083  Biso   1.000  N
  N179     1.0000 0.82450  0.14940  0.38055  Biso   1.000  N
  N180     1.0000 0.66400  0.24250  0.35746  Biso   1.000  N
  N181     1.0000 0.72860  0.40090  0.37244  Biso   1.000  N
  N182     1.0000 0.89770  0.32690  0.39180  Biso   1.000  N
  N183     1.0000 0.84180  0.26970  0.33697  Biso   1.000  N
  N184     1.0000 0.90280  0.27110  0.24706  Biso   1.000  N
  N185     1.0000 0.10130  0.21440  0.29862  Biso   1.000  N
  N186     1.0000 0.99980  0.02250  0.25490  Biso   1.000  N
  N187     1.0000 0.93630  0.01540  0.33913  Biso   1.000  N
  N188     1.0000 0.72780  0.06880  0.28304  Biso   1.000  N
  N189     1.0000 0.03370  0.90290  0.21134  Biso   1.000  N
  N190     1.0000 0.10720  0.08150  0.20842  Biso   1.000  N
  N191     1.0000 0.18280  0.06780  0.25824  Biso   1.000  N
  N192     1.0000 0.13040  0.88050  0.26304  Biso   1.000  N
