data_image0
_cell_length_a       29.4436
_cell_length_b       29.4436
_cell_length_c       54.543
_cell_angle_alpha    90
_cell_angle_beta     90
_cell_angle_gamma    90

_symmetry_space_group_name_H-M    "P 1"
_symmetry_int_tables_number       1

loop_
  _symmetry_equiv_pos_as_xyz
  'x, y, z'

loop_
  _atom_site_label
  _atom_site_occupancy
  _atom_site_fract_x
  _atom_site_fract_y
  _atom_site_fract_z
  _atom_site_thermal_displace_type
  _atom_site_B_iso_or_equiv
  _atom_site_type_symbol
  O1       1.0000 0.80070  0.41060  0.10722  Biso   1.000  O
  O2       1.0000 0.88640  0.40900  0.10965  Biso   1.000  O
  O3       1.0000 0.84840  0.46290  0.06917  Biso   1.000  O
  O4       1.0000 0.84750  0.36820  0.06551  Biso   1.000  O
  O5       1.0000 0.93850  0.46510  0.14589  Biso   1.000  O
  O6       1.0000 0.79180  0.51070  0.10853  Biso   1.000  O
  O7       1.0000 0.90170  0.50990  0.11461  Biso   1.000  O
  O8       1.0000 0.89480  0.31120  0.10490  Biso   1.000  O
  O9       1.0000 0.88160  0.49200  0.18125  Biso   1.000  O
  O10      1.0000 0.75780  0.46090  0.07188  Biso   1.000  O
  O11      1.0000 0.83950  0.54200  0.14593  Biso   1.000  O
  O12      1.0000 0.92890  0.55990  0.15762  Biso   1.000  O
  O13      1.0000 0.97910  0.41010  0.11300  Biso   1.000  O
  O14      1.0000 0.84080  0.26290  0.06067  Biso   1.000  O
  O15      1.0000 0.74410  0.55650  0.14837  Biso   1.000  O
  O16      1.0000 0.93650  0.46020  0.07796  Biso   1.000  O
  O17      1.0000 0.79620  0.42150  0.03024  Biso   1.000  O
  O18      1.0000 0.90690  0.41830  0.03353  Biso   1.000  O
  O19      1.0000 0.93700  0.36670  0.07359  Biso   1.000  O
  N1       1.0000 0.85500  0.06730  0.92955  Biso   1.000  N
  O20      1.0000 0.99790  0.50220  0.10851  Biso   1.000  O
  O21      1.0000 0.99260  0.31610  0.10584  Biso   1.000  O
  C1       1.0000 0.87310  0.22260  0.02810  Biso   1.000  C
  C2       1.0000 0.83320  0.20410  0.02220  Biso   1.000  C
  H1       1.0000 0.80710  0.21280  0.03060  Biso   1.000  H
  O22      1.0000 0.90700  0.28690  0.04850  Biso   1.000  O
  C3       1.0000 0.87550  0.25670  0.04830  Biso   1.000  C
  C4       1.0000 0.86160  0.13200  0.96720  Biso   1.000  C
  C5       1.0000 0.83030  0.17060  0.00270  Biso   1.000  C
  H2       1.0000 0.80400  0.15340  0.00090  Biso   1.000  H
  C6       1.0000 0.86620  0.16420  0.98710  Biso   1.000  C
  C7       1.0000 0.82810  0.10060  0.96660  Biso   1.000  C
  H3       1.0000 0.80650  0.10050  0.97910  Biso   1.000  H
  C8       1.0000 0.82470  0.06670  0.94690  Biso   1.000  C
  H4       1.0000 0.80150  0.04520  0.94690  Biso   1.000  H
  C9       1.0000 0.90850  0.21550  0.01260  Biso   1.000  C
  H5       1.0000 0.93640  0.22920  0.01570  Biso   1.000  H
  C10      1.0000 0.88400  0.13380  0.94750  Biso   1.000  C
  H6       1.0000 0.90320  0.15840  0.94500  Biso   1.000  H
  C11      1.0000 0.88120  0.09850  0.92840  Biso   1.000  C
  H7       1.0000 0.90040  0.10050  0.91490  Biso   1.000  H
  C12      1.0000 0.90280  0.18670  0.99140  Biso   1.000  C
  H8       1.0000 0.92680  0.18420  0.98030  Biso   1.000  H
  Mo1      1.0000 0.80364  0.41714  0.06031  Biso   1.000  Mo
  Mo2      1.0000 0.77817  0.51159  0.14396  Biso   1.000  Mo
  Mo3      1.0000 0.89314  0.41548  0.06292  Biso   1.000  Mo
  Mo4      1.0000 0.94774  0.35011  0.10927  Biso   1.000  Mo
  Mo5      1.0000 0.95346  0.46646  0.10960  Biso   1.000  Mo
  Mo6      1.0000 0.89442  0.51558  0.15126  Biso   1.000  Mo
  Zn1      1.0000 0.83976  0.31166  0.08474  Biso   1.000  Zn
  Zn2      1.0000 0.85080  0.51438  0.09252  Biso   1.000  Zn
  O23      1.0000 0.30070  0.91060  0.60722  Biso   1.000  O
  O24      1.0000 0.38640  0.90900  0.60965  Biso   1.000  O
  O25      1.0000 0.34840  0.96290  0.56917  Biso   1.000  O
  O26      1.0000 0.34750  0.86820  0.56551  Biso   1.000  O
  O27      1.0000 0.43850  0.96510  0.64589  Biso   1.000  O
  O28      1.0000 0.29180  0.01070  0.60853  Biso   1.000  O
  O29      1.0000 0.40170  0.00990  0.61461  Biso   1.000  O
  O30      1.0000 0.39480  0.81120  0.60490  Biso   1.000  O
  O31      1.0000 0.38160  0.99200  0.68125  Biso   1.000  O
  O32      1.0000 0.25780  0.96090  0.57188  Biso   1.000  O
  O33      1.0000 0.33950  0.04200  0.64593  Biso   1.000  O
  O34      1.0000 0.42890  0.05990  0.65762  Biso   1.000  O
  O35      1.0000 0.47910  0.91010  0.61300  Biso   1.000  O
  O36      1.0000 0.34080  0.76290  0.56067  Biso   1.000  O
  O37      1.0000 0.24410  0.05650  0.64837  Biso   1.000  O
  O38      1.0000 0.43650  0.96020  0.57796  Biso   1.000  O
  O39      1.0000 0.29620  0.92150  0.53024  Biso   1.000  O
  O40      1.0000 0.40690  0.91830  0.53353  Biso   1.000  O
  O41      1.0000 0.43700  0.86670  0.57359  Biso   1.000  O
  N2       1.0000 0.35500  0.56730  0.42955  Biso   1.000  N
  O42      1.0000 0.49790  0.00220  0.60851  Biso   1.000  O
  O43      1.0000 0.49260  0.81610  0.60584  Biso   1.000  O
  C13      1.0000 0.37310  0.72260  0.52810  Biso   1.000  C
  C14      1.0000 0.33320  0.70410  0.52220  Biso   1.000  C
  H9       1.0000 0.30710  0.71280  0.53060  Biso   1.000  H
  O44      1.0000 0.40700  0.78690  0.54850  Biso   1.000  O
  C15      1.0000 0.37550  0.75670  0.54830  Biso   1.000  C
  C16      1.0000 0.36160  0.63200  0.46720  Biso   1.000  C
  C17      1.0000 0.33030  0.67060  0.50270  Biso   1.000  C
  H10      1.0000 0.30400  0.65340  0.50090  Biso   1.000  H
  C18      1.0000 0.36620  0.66420  0.48710  Biso   1.000  C
  C19      1.0000 0.32810  0.60060  0.46660  Biso   1.000  C
  H11      1.0000 0.30650  0.60050  0.47910  Biso   1.000  H
  C20      1.0000 0.32470  0.56670  0.44690  Biso   1.000  C
  H12      1.0000 0.30150  0.54520  0.44690  Biso   1.000  H
  C21      1.0000 0.40850  0.71550  0.51260  Biso   1.000  C
  H13      1.0000 0.43640  0.72920  0.51570  Biso   1.000  H
  C22      1.0000 0.38400  0.63380  0.44750  Biso   1.000  C
  H14      1.0000 0.40320  0.65840  0.44500  Biso   1.000  H
  C23      1.0000 0.38120  0.59850  0.42840  Biso   1.000  C
  H15      1.0000 0.40040  0.60050  0.41490  Biso   1.000  H
  C24      1.0000 0.40280  0.68670  0.49140  Biso   1.000  C
  H16      1.0000 0.42680  0.68420  0.48030  Biso   1.000  H
  Mo7      1.0000 0.30364  0.91714  0.56031  Biso   1.000  Mo
  Mo8      1.0000 0.27817  0.01159  0.64396  Biso   1.000  Mo
  Mo9      1.0000 0.39314  0.91548  0.56292  Biso   1.000  Mo
  Mo10     1.0000 0.44774  0.85011  0.60927  Biso   1.000  Mo
  Mo11     1.0000 0.45346  0.96646  0.60960  Biso   1.000  Mo
  Mo12     1.0000 0.39442  0.01558  0.65126  Biso   1.000  Mo
  Zn3      1.0000 0.33976  0.81166  0.58474  Biso   1.000  Zn
  Zn4      1.0000 0.35080  0.01438  0.59252  Biso   1.000  Zn
  O45      1.0000 0.83940  0.44930  0.14278  Biso   1.000  O
  O46      1.0000 0.84100  0.36360  0.14035  Biso   1.000  O
  O47      1.0000 0.78710  0.40160  0.18083  Biso   1.000  O
  O48      1.0000 0.88180  0.40250  0.18449  Biso   1.000  O
  O49      1.0000 0.78490  0.31150  0.10411  Biso   1.000  O
  O50      1.0000 0.73930  0.45820  0.14147  Biso   1.000  O
  O51      1.0000 0.74010  0.34830  0.13539  Biso   1.000  O
  O52      1.0000 0.93880  0.35520  0.14510  Biso   1.000  O
  O53      1.0000 0.75800  0.36840  0.06875  Biso   1.000  O
  O54      1.0000 0.78910  0.49220  0.17812  Biso   1.000  O
  O55      1.0000 0.70800  0.41050  0.10407  Biso   1.000  O
  O56      1.0000 0.69010  0.32110  0.09238  Biso   1.000  O
  O57      1.0000 0.83990  0.27090  0.13700  Biso   1.000  O
  O58      1.0000 0.98710  0.40920  0.18933  Biso   1.000  O
  O59      1.0000 0.69350  0.50590  0.10163  Biso   1.000  O
  O60      1.0000 0.78980  0.31350  0.17204  Biso   1.000  O
  O61      1.0000 0.82850  0.45380  0.21976  Biso   1.000  O
  O62      1.0000 0.83170  0.34310  0.21647  Biso   1.000  O
  O63      1.0000 0.88330  0.31300  0.17641  Biso   1.000  O
  N3       1.0000 0.18270  0.39500  0.32045  Biso   1.000  N
  O64      1.0000 0.74780  0.25210  0.14149  Biso   1.000  O
  O65      1.0000 0.93390  0.25740  0.14416  Biso   1.000  O
  C25      1.0000 0.02740  0.37690  0.22190  Biso   1.000  C
  C26      1.0000 0.04590  0.41680  0.22780  Biso   1.000  C
  H17      1.0000 0.03720  0.44290  0.21940  Biso   1.000  H
  O66      1.0000 0.96310  0.34300  0.20150  Biso   1.000  O
  C27      1.0000 0.99330  0.37450  0.20170  Biso   1.000  C
  C28      1.0000 0.11800  0.38840  0.28280  Biso   1.000  C
  C29      1.0000 0.07940  0.41970  0.24730  Biso   1.000  C
  H18      1.0000 0.09660  0.44600  0.24910  Biso   1.000  H
  C30      1.0000 0.08580  0.38380  0.26290  Biso   1.000  C
  C31      1.0000 0.14940  0.42190  0.28340  Biso   1.000  C
  H19      1.0000 0.14950  0.44350  0.27090  Biso   1.000  H
  C32      1.0000 0.18330  0.42530  0.30310  Biso   1.000  C
  H20      1.0000 0.20480  0.44850  0.30310  Biso   1.000  H
  C33      1.0000 0.03450  0.34150  0.23740  Biso   1.000  C
  H21      1.0000 0.02080  0.31360  0.23430  Biso   1.000  H
  C34      1.0000 0.11620  0.36600  0.30250  Biso   1.000  C
  H22      1.0000 0.09160  0.34680  0.30500  Biso   1.000  H
  C35      1.0000 0.15150  0.36880  0.32160  Biso   1.000  C
  H23      1.0000 0.14950  0.34960  0.33510  Biso   1.000  H
  C36      1.0000 0.06330  0.34720  0.25860  Biso   1.000  C
  H24      1.0000 0.06580  0.32320  0.26970  Biso   1.000  H
  Mo13     1.0000 0.83286  0.44636  0.18969  Biso   1.000  Mo
  Mo14     1.0000 0.73841  0.47183  0.10604  Biso   1.000  Mo
  Mo15     1.0000 0.83452  0.35686  0.18708  Biso   1.000  Mo
  Mo16     1.0000 0.89989  0.30226  0.14073  Biso   1.000  Mo
  Mo17     1.0000 0.78354  0.29654  0.14040  Biso   1.000  Mo
  Mo18     1.0000 0.73442  0.35558  0.09874  Biso   1.000  Mo
  Zn5      1.0000 0.93834  0.41024  0.16526  Biso   1.000  Zn
  Zn6      1.0000 0.73562  0.39920  0.15748  Biso   1.000  Zn
  O67      1.0000 0.33940  0.94930  0.64278  Biso   1.000  O
  O68      1.0000 0.34100  0.86360  0.64035  Biso   1.000  O
  O69      1.0000 0.28710  0.90160  0.68083  Biso   1.000  O
  O70      1.0000 0.38180  0.90250  0.68449  Biso   1.000  O
  O71      1.0000 0.28490  0.81150  0.60411  Biso   1.000  O
  O72      1.0000 0.23930  0.95820  0.64147  Biso   1.000  O
  O73      1.0000 0.24010  0.84830  0.63539  Biso   1.000  O
  O74      1.0000 0.43880  0.85520  0.64510  Biso   1.000  O
  O75      1.0000 0.25800  0.86840  0.56875  Biso   1.000  O
  O76      1.0000 0.28910  0.99220  0.67812  Biso   1.000  O
  O77      1.0000 0.20800  0.91050  0.60407  Biso   1.000  O
  O78      1.0000 0.19010  0.82110  0.59238  Biso   1.000  O
  O79      1.0000 0.33990  0.77090  0.63700  Biso   1.000  O
  O80      1.0000 0.48710  0.90920  0.68933  Biso   1.000  O
  O81      1.0000 0.19350  0.00590  0.60163  Biso   1.000  O
  O82      1.0000 0.28980  0.81350  0.67204  Biso   1.000  O
  O83      1.0000 0.32850  0.95380  0.71976  Biso   1.000  O
  O84      1.0000 0.33170  0.84310  0.71647  Biso   1.000  O
  O85      1.0000 0.38330  0.81300  0.67641  Biso   1.000  O
  N4       1.0000 0.68270  0.89500  0.82045  Biso   1.000  N
  O86      1.0000 0.24780  0.75210  0.64149  Biso   1.000  O
  O87      1.0000 0.43390  0.75740  0.64416  Biso   1.000  O
  C37      1.0000 0.52740  0.87690  0.72190  Biso   1.000  C
  C38      1.0000 0.54590  0.91680  0.72780  Biso   1.000  C
  H25      1.0000 0.53720  0.94290  0.71940  Biso   1.000  H
  O88      1.0000 0.46310  0.84300  0.70150  Biso   1.000  O
  C39      1.0000 0.49330  0.87450  0.70170  Biso   1.000  C
  C40      1.0000 0.61800  0.88840  0.78280  Biso   1.000  C
  C41      1.0000 0.57940  0.91970  0.74730  Biso   1.000  C
  H26      1.0000 0.59660  0.94600  0.74910  Biso   1.000  H
  C42      1.0000 0.58580  0.88380  0.76290  Biso   1.000  C
  C43      1.0000 0.64940  0.92190  0.78340  Biso   1.000  C
  H27      1.0000 0.64950  0.94350  0.77090  Biso   1.000  H
  C44      1.0000 0.68330  0.92530  0.80310  Biso   1.000  C
  H28      1.0000 0.70480  0.94850  0.80310  Biso   1.000  H
  C45      1.0000 0.53450  0.84150  0.73740  Biso   1.000  C
  H29      1.0000 0.52080  0.81360  0.73430  Biso   1.000  H
  C46      1.0000 0.61620  0.86600  0.80250  Biso   1.000  C
  H30      1.0000 0.59160  0.84680  0.80500  Biso   1.000  H
  C47      1.0000 0.65150  0.86880  0.82160  Biso   1.000  C
  H31      1.0000 0.64950  0.84960  0.83510  Biso   1.000  H
  C48      1.0000 0.56330  0.84720  0.75860  Biso   1.000  C
  H32      1.0000 0.56580  0.82320  0.76970  Biso   1.000  H
  Mo19     1.0000 0.33286  0.94636  0.68969  Biso   1.000  Mo
  Mo20     1.0000 0.23841  0.97183  0.60604  Biso   1.000  Mo
  Mo21     1.0000 0.33452  0.85686  0.68708  Biso   1.000  Mo
  Mo22     1.0000 0.39989  0.80226  0.64073  Biso   1.000  Mo
  Mo23     1.0000 0.28354  0.79654  0.64040  Biso   1.000  Mo
  Mo24     1.0000 0.23442  0.85558  0.59874  Biso   1.000  Mo
  Zn7      1.0000 0.43834  0.91024  0.66526  Biso   1.000  Zn
  Zn8      1.0000 0.23562  0.89920  0.65748  Biso   1.000  Zn
  O89      1.0000 0.30070  0.41060  0.39278  Biso   1.000  O
  O90      1.0000 0.38640  0.40900  0.39035  Biso   1.000  O
  O91      1.0000 0.34840  0.46290  0.43083  Biso   1.000  O
  O92      1.0000 0.34750  0.36820  0.43449  Biso   1.000  O
  O93      1.0000 0.43850  0.46510  0.35411  Biso   1.000  O
  O94      1.0000 0.29180  0.51070  0.39147  Biso   1.000  O
  O95      1.0000 0.40170  0.50990  0.38539  Biso   1.000  O
  O96      1.0000 0.39480  0.31120  0.39510  Biso   1.000  O
  O97      1.0000 0.38160  0.49200  0.31875  Biso   1.000  O
  O98      1.0000 0.25780  0.46090  0.42812  Biso   1.000  O
  O99      1.0000 0.33950  0.54200  0.35407  Biso   1.000  O
  O100     1.0000 0.42890  0.55990  0.34238  Biso   1.000  O
  O101     1.0000 0.47910  0.41010  0.38700  Biso   1.000  O
  O102     1.0000 0.34080  0.26290  0.43933  Biso   1.000  O
  O103     1.0000 0.24410  0.55650  0.35163  Biso   1.000  O
  O104     1.0000 0.43650  0.46020  0.42204  Biso   1.000  O
  O105     1.0000 0.29620  0.42150  0.46976  Biso   1.000  O
  O106     1.0000 0.40690  0.41830  0.46647  Biso   1.000  O
  O107     1.0000 0.43700  0.36670  0.42641  Biso   1.000  O
  N5       1.0000 0.35500  0.06730  0.57045  Biso   1.000  N
  O108     1.0000 0.49790  0.50220  0.39149  Biso   1.000  O
  O109     1.0000 0.49260  0.31610  0.39416  Biso   1.000  O
  C49      1.0000 0.37310  0.22260  0.47190  Biso   1.000  C
  C50      1.0000 0.33320  0.20410  0.47780  Biso   1.000  C
  H33      1.0000 0.30710  0.21280  0.46940  Biso   1.000  H
  O110     1.0000 0.40700  0.28690  0.45150  Biso   1.000  O
  C51      1.0000 0.37550  0.25670  0.45170  Biso   1.000  C
  C52      1.0000 0.36160  0.13200  0.53280  Biso   1.000  C
  C53      1.0000 0.33030  0.17060  0.49730  Biso   1.000  C
  H34      1.0000 0.30400  0.15340  0.49910  Biso   1.000  H
  C54      1.0000 0.36620  0.16420  0.51290  Biso   1.000  C
  C55      1.0000 0.32810  0.10060  0.53340  Biso   1.000  C
  H35      1.0000 0.30650  0.10050  0.52090  Biso   1.000  H
  C56      1.0000 0.32470  0.06670  0.55310  Biso   1.000  C
  H36      1.0000 0.30150  0.04520  0.55310  Biso   1.000  H
  C57      1.0000 0.40850  0.21550  0.48740  Biso   1.000  C
  H37      1.0000 0.43640  0.22920  0.48430  Biso   1.000  H
  C58      1.0000 0.38400  0.13380  0.55250  Biso   1.000  C
  H38      1.0000 0.40320  0.15840  0.55500  Biso   1.000  H
  C59      1.0000 0.38120  0.09850  0.57160  Biso   1.000  C
  H39      1.0000 0.40040  0.10050  0.58510  Biso   1.000  H
  C60      1.0000 0.40280  0.18670  0.50860  Biso   1.000  C
  H40      1.0000 0.42680  0.18420  0.51970  Biso   1.000  H
  Mo25     1.0000 0.30364  0.41714  0.43969  Biso   1.000  Mo
  Mo26     1.0000 0.27817  0.51159  0.35604  Biso   1.000  Mo
  Mo27     1.0000 0.39314  0.41548  0.43708  Biso   1.000  Mo
  Mo28     1.0000 0.44774  0.35011  0.39073  Biso   1.000  Mo
  Mo29     1.0000 0.45346  0.46646  0.39040  Biso   1.000  Mo
  Mo30     1.0000 0.39442  0.51558  0.34874  Biso   1.000  Mo
  Zn9      1.0000 0.33976  0.31166  0.41526  Biso   1.000  Zn
  Zn10     1.0000 0.35080  0.51438  0.40748  Biso   1.000  Zn
  O111     1.0000 0.80070  0.91060  0.89278  Biso   1.000  O
  O112     1.0000 0.88640  0.90900  0.89035  Biso   1.000  O
  O113     1.0000 0.84840  0.96290  0.93083  Biso   1.000  O
  O114     1.0000 0.84750  0.86820  0.93449  Biso   1.000  O
  O115     1.0000 0.93850  0.96510  0.85411  Biso   1.000  O
  O116     1.0000 0.79180  0.01070  0.89147  Biso   1.000  O
  O117     1.0000 0.90170  0.00990  0.88539  Biso   1.000  O
  O118     1.0000 0.89480  0.81120  0.89510  Biso   1.000  O
  O119     1.0000 0.88160  0.99200  0.81875  Biso   1.000  O
  O120     1.0000 0.75780  0.96090  0.92812  Biso   1.000  O
  O121     1.0000 0.83950  0.04200  0.85407  Biso   1.000  O
  O122     1.0000 0.92890  0.05990  0.84238  Biso   1.000  O
  O123     1.0000 0.97910  0.91010  0.88700  Biso   1.000  O
  O124     1.0000 0.84080  0.76290  0.93933  Biso   1.000  O
  O125     1.0000 0.74410  0.05650  0.85163  Biso   1.000  O
  O126     1.0000 0.93650  0.96020  0.92204  Biso   1.000  O
  O127     1.0000 0.79620  0.92150  0.96976  Biso   1.000  O
  O128     1.0000 0.90690  0.91830  0.96647  Biso   1.000  O
  O129     1.0000 0.93700  0.86670  0.92641  Biso   1.000  O
  N6       1.0000 0.85500  0.56730  0.07045  Biso   1.000  N
  O130     1.0000 0.99790  0.00220  0.89149  Biso   1.000  O
  O131     1.0000 0.99260  0.81610  0.89416  Biso   1.000  O
  C61      1.0000 0.87310  0.72260  0.97190  Biso   1.000  C
  C62      1.0000 0.83320  0.70410  0.97780  Biso   1.000  C
  H41      1.0000 0.80710  0.71280  0.96940  Biso   1.000  H
  O132     1.0000 0.90700  0.78690  0.95150  Biso   1.000  O
  C63      1.0000 0.87550  0.75670  0.95170  Biso   1.000  C
  C64      1.0000 0.86160  0.63200  0.03280  Biso   1.000  C
  C65      1.0000 0.83030  0.67060  0.99730  Biso   1.000  C
  H42      1.0000 0.80400  0.65340  0.99910  Biso   1.000  H
  C66      1.0000 0.86620  0.66420  0.01290  Biso   1.000  C
  C67      1.0000 0.82810  0.60060  0.03340  Biso   1.000  C
  H43      1.0000 0.80650  0.60050  0.02090  Biso   1.000  H
  C68      1.0000 0.82470  0.56670  0.05310  Biso   1.000  C
  H44      1.0000 0.80150  0.54520  0.05310  Biso   1.000  H
  C69      1.0000 0.90850  0.71550  0.98740  Biso   1.000  C
  H45      1.0000 0.93640  0.72920  0.98430  Biso   1.000  H
  C70      1.0000 0.88400  0.63380  0.05250  Biso   1.000  C
  H46      1.0000 0.90320  0.65840  0.05500  Biso   1.000  H
  C71      1.0000 0.88120  0.59850  0.07160  Biso   1.000  C
  H47      1.0000 0.90040  0.60050  0.08510  Biso   1.000  H
  C72      1.0000 0.90280  0.68670  0.00860  Biso   1.000  C
  H48      1.0000 0.92680  0.68420  0.01970  Biso   1.000  H
  Mo31     1.0000 0.80364  0.91714  0.93969  Biso   1.000  Mo
  Mo32     1.0000 0.77817  0.01159  0.85604  Biso   1.000  Mo
  Mo33     1.0000 0.89314  0.91548  0.93708  Biso   1.000  Mo
  Mo34     1.0000 0.94774  0.85011  0.89073  Biso   1.000  Mo
  Mo35     1.0000 0.95346  0.96646  0.89040  Biso   1.000  Mo
  Mo36     1.0000 0.89442  0.01558  0.84874  Biso   1.000  Mo
  Zn11     1.0000 0.83976  0.81166  0.91526  Biso   1.000  Zn
  Zn12     1.0000 0.85080  0.01438  0.90748  Biso   1.000  Zn
  O133     1.0000 0.33940  0.44930  0.35722  Biso   1.000  O
  O134     1.0000 0.34100  0.36360  0.35965  Biso   1.000  O
  O135     1.0000 0.28710  0.40160  0.31917  Biso   1.000  O
  O136     1.0000 0.38180  0.40250  0.31551  Biso   1.000  O
  O137     1.0000 0.28490  0.31150  0.39589  Biso   1.000  O
  O138     1.0000 0.23930  0.45820  0.35853  Biso   1.000  O
  O139     1.0000 0.24010  0.34830  0.36461  Biso   1.000  O
  O140     1.0000 0.43880  0.35520  0.35490  Biso   1.000  O
  O141     1.0000 0.25800  0.36840  0.43125  Biso   1.000  O
  O142     1.0000 0.28910  0.49220  0.32188  Biso   1.000  O
  O143     1.0000 0.20800  0.41050  0.39593  Biso   1.000  O
  O144     1.0000 0.19010  0.32110  0.40762  Biso   1.000  O
  O145     1.0000 0.33990  0.27090  0.36300  Biso   1.000  O
  O146     1.0000 0.48710  0.40920  0.31067  Biso   1.000  O
  O147     1.0000 0.19350  0.50590  0.39837  Biso   1.000  O
  O148     1.0000 0.28980  0.31350  0.32796  Biso   1.000  O
  O149     1.0000 0.32850  0.45380  0.28024  Biso   1.000  O
  O150     1.0000 0.33170  0.34310  0.28353  Biso   1.000  O
  O151     1.0000 0.38330  0.31300  0.32359  Biso   1.000  O
  N7       1.0000 0.68270  0.39500  0.17955  Biso   1.000  N
  O152     1.0000 0.24780  0.25210  0.35851  Biso   1.000  O
  O153     1.0000 0.43390  0.25740  0.35584  Biso   1.000  O
  C73      1.0000 0.52740  0.37690  0.27810  Biso   1.000  C
  C74      1.0000 0.54590  0.41680  0.27220  Biso   1.000  C
  H49      1.0000 0.53720  0.44290  0.28060  Biso   1.000  H
  O154     1.0000 0.46310  0.34300  0.29850  Biso   1.000  O
  C75      1.0000 0.49330  0.37450  0.29830  Biso   1.000  C
  C76      1.0000 0.61800  0.38840  0.21720  Biso   1.000  C
  C77      1.0000 0.57940  0.41970  0.25270  Biso   1.000  C
  H50      1.0000 0.59660  0.44600  0.25090  Biso   1.000  H
  C78      1.0000 0.58580  0.38380  0.23710  Biso   1.000  C
  C79      1.0000 0.64940  0.42190  0.21660  Biso   1.000  C
  H51      1.0000 0.64950  0.44350  0.22910  Biso   1.000  H
  C80      1.0000 0.68330  0.42530  0.19690  Biso   1.000  C
  H52      1.0000 0.70480  0.44850  0.19690  Biso   1.000  H
  C81      1.0000 0.53450  0.34150  0.26260  Biso   1.000  C
  H53      1.0000 0.52080  0.31360  0.26570  Biso   1.000  H
  C82      1.0000 0.61620  0.36600  0.19750  Biso   1.000  C
  H54      1.0000 0.59160  0.34680  0.19500  Biso   1.000  H
  C83      1.0000 0.65150  0.36880  0.17840  Biso   1.000  C
  H55      1.0000 0.64950  0.34960  0.16490  Biso   1.000  H
  C84      1.0000 0.56330  0.34720  0.24140  Biso   1.000  C
  H56      1.0000 0.56580  0.32320  0.23030  Biso   1.000  H
  Mo37     1.0000 0.33286  0.44636  0.31031  Biso   1.000  Mo
  Mo38     1.0000 0.23841  0.47183  0.39396  Biso   1.000  Mo
  Mo39     1.0000 0.33452  0.35686  0.31292  Biso   1.000  Mo
  Mo40     1.0000 0.39989  0.30226  0.35927  Biso   1.000  Mo
  Mo41     1.0000 0.28354  0.29654  0.35960  Biso   1.000  Mo
  Mo42     1.0000 0.23442  0.35558  0.40126  Biso   1.000  Mo
  Zn13     1.0000 0.43834  0.41024  0.33474  Biso   1.000  Zn
  Zn14     1.0000 0.23562  0.39920  0.34252  Biso   1.000  Zn
  O155     1.0000 0.83940  0.94930  0.85722  Biso   1.000  O
  O156     1.0000 0.84100  0.86360  0.85965  Biso   1.000  O
  O157     1.0000 0.78710  0.90160  0.81917  Biso   1.000  O
  O158     1.0000 0.88180  0.90250  0.81551  Biso   1.000  O
  O159     1.0000 0.78490  0.81150  0.89589  Biso   1.000  O
  O160     1.0000 0.73930  0.95820  0.85853  Biso   1.000  O
  O161     1.0000 0.74010  0.84830  0.86461  Biso   1.000  O
  O162     1.0000 0.93880  0.85520  0.85490  Biso   1.000  O
  O163     1.0000 0.75800  0.86840  0.93125  Biso   1.000  O
  O164     1.0000 0.78910  0.99220  0.82188  Biso   1.000  O
  O165     1.0000 0.70800  0.91050  0.89593  Biso   1.000  O
  O166     1.0000 0.69010  0.82110  0.90762  Biso   1.000  O
  O167     1.0000 0.83990  0.77090  0.86300  Biso   1.000  O
  O168     1.0000 0.98710  0.90920  0.81067  Biso   1.000  O
  O169     1.0000 0.69350  0.00590  0.89837  Biso   1.000  O
  O170     1.0000 0.78980  0.81350  0.82796  Biso   1.000  O
  O171     1.0000 0.82850  0.95380  0.78024  Biso   1.000  O
  O172     1.0000 0.83170  0.84310  0.78353  Biso   1.000  O
  O173     1.0000 0.88330  0.81300  0.82359  Biso   1.000  O
  N8       1.0000 0.18270  0.89500  0.67955  Biso   1.000  N
  O174     1.0000 0.74780  0.75210  0.85851  Biso   1.000  O
  O175     1.0000 0.93390  0.75740  0.85584  Biso   1.000  O
  C85      1.0000 0.02740  0.87690  0.77810  Biso   1.000  C
  C86      1.0000 0.04590  0.91680  0.77220  Biso   1.000  C
  H57      1.0000 0.03720  0.94290  0.78060  Biso   1.000  H
  O176     1.0000 0.96310  0.84300  0.79850  Biso   1.000  O
  C87      1.0000 0.99330  0.87450  0.79830  Biso   1.000  C
  C88      1.0000 0.11800  0.88840  0.71720  Biso   1.000  C
  C89      1.0000 0.07940  0.91970  0.75270  Biso   1.000  C
  H58      1.0000 0.09660  0.94600  0.75090  Biso   1.000  H
  C90      1.0000 0.08580  0.88380  0.73710  Biso   1.000  C
  C91      1.0000 0.14940  0.92190  0.71660  Biso   1.000  C
  H59      1.0000 0.14950  0.94350  0.72910  Biso   1.000  H
  C92      1.0000 0.18330  0.92530  0.69690  Biso   1.000  C
  H60      1.0000 0.20480  0.94850  0.69690  Biso   1.000  H
  C93      1.0000 0.03450  0.84150  0.76260  Biso   1.000  C
  H61      1.0000 0.02080  0.81360  0.76570  Biso   1.000  H
  C94      1.0000 0.11620  0.86600  0.69750  Biso   1.000  C
  H62      1.0000 0.09160  0.84680  0.69500  Biso   1.000  H
  C95      1.0000 0.15150  0.86880  0.67840  Biso   1.000  C
  H63      1.0000 0.14950  0.84960  0.66490  Biso   1.000  H
  C96      1.0000 0.06330  0.84720  0.74140  Biso   1.000  C
  H64      1.0000 0.06580  0.82320  0.73030  Biso   1.000  H
  Mo43     1.0000 0.83286  0.94636  0.81031  Biso   1.000  Mo
  Mo44     1.0000 0.73841  0.97183  0.89396  Biso   1.000  Mo
  Mo45     1.0000 0.83452  0.85686  0.81292  Biso   1.000  Mo
  Mo46     1.0000 0.89989  0.80226  0.85927  Biso   1.000  Mo
  Mo47     1.0000 0.78354  0.79654  0.85960  Biso   1.000  Mo
  Mo48     1.0000 0.73442  0.85558  0.90126  Biso   1.000  Mo
  Zn15     1.0000 0.93834  0.91024  0.83474  Biso   1.000  Zn
  Zn16     1.0000 0.73562  0.89920  0.84252  Biso   1.000  Zn
  P1       1.0000 0.84180  0.40820  0.12500  Biso   1.000  P
  P2       1.0000 0.34180  0.90820  0.62500  Biso   1.000  P
  P3       1.0000 0.34180  0.40820  0.37500  Biso   1.000  P
  P4       1.0000 0.84180  0.90820  0.87500  Biso   1.000  P
  O177     1.0000 0.69930  0.58940  0.60722  Biso   1.000  O
  O178     1.0000 0.61360  0.59100  0.60965  Biso   1.000  O
  O179     1.0000 0.65160  0.53710  0.56917  Biso   1.000  O
  O180     1.0000 0.65250  0.63180  0.56551  Biso   1.000  O
  O181     1.0000 0.56150  0.53490  0.64589  Biso   1.000  O
  O182     1.0000 0.70820  0.48930  0.60853  Biso   1.000  O
  O183     1.0000 0.59830  0.49010  0.61461  Biso   1.000  O
  O184     1.0000 0.60520  0.68880  0.60490  Biso   1.000  O
  O185     1.0000 0.61840  0.50800  0.68125  Biso   1.000  O
  O186     1.0000 0.74220  0.53910  0.57188  Biso   1.000  O
  O187     1.0000 0.66050  0.45800  0.64593  Biso   1.000  O
  O188     1.0000 0.57110  0.44010  0.65762  Biso   1.000  O
  O189     1.0000 0.52090  0.58990  0.61300  Biso   1.000  O
  O190     1.0000 0.65920  0.73710  0.56067  Biso   1.000  O
  O191     1.0000 0.75590  0.44350  0.64837  Biso   1.000  O
  O192     1.0000 0.56350  0.53980  0.57796  Biso   1.000  O
  O193     1.0000 0.70380  0.57850  0.53024  Biso   1.000  O
  O194     1.0000 0.59310  0.58170  0.53353  Biso   1.000  O
  O195     1.0000 0.56300  0.63330  0.57359  Biso   1.000  O
  N9       1.0000 0.64500  0.93270  0.42955  Biso   1.000  N
  O196     1.0000 0.50210  0.49780  0.60851  Biso   1.000  O
  O197     1.0000 0.50740  0.68390  0.60584  Biso   1.000  O
  C97      1.0000 0.62690  0.77740  0.52810  Biso   1.000  C
  C98      1.0000 0.66680  0.79590  0.52220  Biso   1.000  C
  H65      1.0000 0.69290  0.78720  0.53060  Biso   1.000  H
  O198     1.0000 0.59300  0.71310  0.54850  Biso   1.000  O
  C99      1.0000 0.62450  0.74330  0.54830  Biso   1.000  C
  C100     1.0000 0.63840  0.86800  0.46720  Biso   1.000  C
  C101     1.0000 0.66970  0.82940  0.50270  Biso   1.000  C
  H66      1.0000 0.69600  0.84660  0.50090  Biso   1.000  H
  C102     1.0000 0.63380  0.83580  0.48710  Biso   1.000  C
  C103     1.0000 0.67190  0.89940  0.46660  Biso   1.000  C
  H67      1.0000 0.69350  0.89950  0.47910  Biso   1.000  H
  C104     1.0000 0.67530  0.93330  0.44690  Biso   1.000  C
  H68      1.0000 0.69850  0.95480  0.44690  Biso   1.000  H
  C105     1.0000 0.59150  0.78450  0.51260  Biso   1.000  C
  H69      1.0000 0.56360  0.77080  0.51570  Biso   1.000  H
  C106     1.0000 0.61600  0.86620  0.44750  Biso   1.000  C
  H70      1.0000 0.59680  0.84160  0.44500  Biso   1.000  H
  C107     1.0000 0.61880  0.90150  0.42840  Biso   1.000  C
  H71      1.0000 0.59960  0.89950  0.41490  Biso   1.000  H
  C108     1.0000 0.59720  0.81330  0.49140  Biso   1.000  C
  H72      1.0000 0.57320  0.81580  0.48030  Biso   1.000  H
  Mo49     1.0000 0.69636  0.58286  0.56031  Biso   1.000  Mo
  Mo50     1.0000 0.72183  0.48841  0.64396  Biso   1.000  Mo
  Mo51     1.0000 0.60686  0.58452  0.56292  Biso   1.000  Mo
  Mo52     1.0000 0.55226  0.64989  0.60927  Biso   1.000  Mo
  Mo53     1.0000 0.54654  0.53354  0.60960  Biso   1.000  Mo
  Mo54     1.0000 0.60558  0.48442  0.65126  Biso   1.000  Mo
  Zn17     1.0000 0.66024  0.68834  0.58474  Biso   1.000  Zn
  Zn18     1.0000 0.64920  0.48562  0.59252  Biso   1.000  Zn
  O199     1.0000 0.19930  0.08940  0.10722  Biso   1.000  O
  O200     1.0000 0.11360  0.09100  0.10965  Biso   1.000  O
  O201     1.0000 0.15160  0.03710  0.06917  Biso   1.000  O
  O202     1.0000 0.15250  0.13180  0.06551  Biso   1.000  O
  O203     1.0000 0.06150  0.03490  0.14589  Biso   1.000  O
  O204     1.0000 0.20820  0.98930  0.10853  Biso   1.000  O
  O205     1.0000 0.09830  0.99010  0.11461  Biso   1.000  O
  O206     1.0000 0.10520  0.18880  0.10490  Biso   1.000  O
  O207     1.0000 0.11840  0.00800  0.18125  Biso   1.000  O
  O208     1.0000 0.24220  0.03910  0.07188  Biso   1.000  O
  O209     1.0000 0.16050  0.95800  0.14593  Biso   1.000  O
  O210     1.0000 0.07110  0.94010  0.15762  Biso   1.000  O
  O211     1.0000 0.02090  0.08990  0.11300  Biso   1.000  O
  O212     1.0000 0.15920  0.23710  0.06067  Biso   1.000  O
  O213     1.0000 0.25590  0.94350  0.14837  Biso   1.000  O
  O214     1.0000 0.06350  0.03980  0.07796  Biso   1.000  O
  O215     1.0000 0.20380  0.07850  0.03024  Biso   1.000  O
  O216     1.0000 0.09310  0.08170  0.03353  Biso   1.000  O
  O217     1.0000 0.06300  0.13330  0.07359  Biso   1.000  O
  N10      1.0000 0.14500  0.43270  0.92955  Biso   1.000  N
  O218     1.0000 0.00210  0.99780  0.10851  Biso   1.000  O
  O219     1.0000 0.00740  0.18390  0.10584  Biso   1.000  O
  C109     1.0000 0.12690  0.27740  0.02810  Biso   1.000  C
  C110     1.0000 0.16680  0.29590  0.02220  Biso   1.000  C
  H73      1.0000 0.19290  0.28720  0.03060  Biso   1.000  H
  O220     1.0000 0.09300  0.21310  0.04850  Biso   1.000  O
  C111     1.0000 0.12450  0.24330  0.04830  Biso   1.000  C
  C112     1.0000 0.13840  0.36800  0.96720  Biso   1.000  C
  C113     1.0000 0.16970  0.32940  0.00270  Biso   1.000  C
  H74      1.0000 0.19600  0.34660  0.00090  Biso   1.000  H
  C114     1.0000 0.13380  0.33580  0.98710  Biso   1.000  C
  C115     1.0000 0.17190  0.39940  0.96660  Biso   1.000  C
  H75      1.0000 0.19350  0.39950  0.97910  Biso   1.000  H
  C116     1.0000 0.17530  0.43330  0.94690  Biso   1.000  C
  H76      1.0000 0.19850  0.45480  0.94690  Biso   1.000  H
  C117     1.0000 0.09150  0.28450  0.01260  Biso   1.000  C
  H77      1.0000 0.06360  0.27080  0.01570  Biso   1.000  H
  C118     1.0000 0.11600  0.36620  0.94750  Biso   1.000  C
  H78      1.0000 0.09680  0.34160  0.94500  Biso   1.000  H
  C119     1.0000 0.11880  0.40150  0.92840  Biso   1.000  C
  H79      1.0000 0.09960  0.39950  0.91490  Biso   1.000  H
  C120     1.0000 0.09720  0.31330  0.99140  Biso   1.000  C
  H80      1.0000 0.07320  0.31580  0.98030  Biso   1.000  H
  Mo55     1.0000 0.19636  0.08286  0.06031  Biso   1.000  Mo
  Mo56     1.0000 0.22183  0.98841  0.14396  Biso   1.000  Mo
  Mo57     1.0000 0.10686  0.08452  0.06292  Biso   1.000  Mo
  Mo58     1.0000 0.05226  0.14989  0.10927  Biso   1.000  Mo
  Mo59     1.0000 0.04654  0.03354  0.10960  Biso   1.000  Mo
  Mo60     1.0000 0.10558  0.98442  0.15126  Biso   1.000  Mo
  Zn19     1.0000 0.16024  0.18834  0.08474  Biso   1.000  Zn
  Zn20     1.0000 0.14920  0.98562  0.09252  Biso   1.000  Zn
  O221     1.0000 0.66060  0.55070  0.64278  Biso   1.000  O
  O222     1.0000 0.65900  0.63640  0.64035  Biso   1.000  O
  O223     1.0000 0.71290  0.59840  0.68083  Biso   1.000  O
  O224     1.0000 0.61820  0.59750  0.68449  Biso   1.000  O
  O225     1.0000 0.71510  0.68850  0.60411  Biso   1.000  O
  O226     1.0000 0.76070  0.54180  0.64147  Biso   1.000  O
  O227     1.0000 0.75990  0.65170  0.63539  Biso   1.000  O
  O228     1.0000 0.56120  0.64480  0.64510  Biso   1.000  O
  O229     1.0000 0.74200  0.63160  0.56875  Biso   1.000  O
  O230     1.0000 0.71090  0.50780  0.67812  Biso   1.000  O
  O231     1.0000 0.79200  0.58950  0.60407  Biso   1.000  O
  O232     1.0000 0.80990  0.67890  0.59238  Biso   1.000  O
  O233     1.0000 0.66010  0.72910  0.63700  Biso   1.000  O
  O234     1.0000 0.51290  0.59080  0.68933  Biso   1.000  O
  O235     1.0000 0.80650  0.49410  0.60163  Biso   1.000  O
  O236     1.0000 0.71020  0.68650  0.67204  Biso   1.000  O
  O237     1.0000 0.67150  0.54620  0.71976  Biso   1.000  O
  O238     1.0000 0.66830  0.65690  0.71647  Biso   1.000  O
  O239     1.0000 0.61670  0.68700  0.67641  Biso   1.000  O
  N11      1.0000 0.31730  0.60500  0.82045  Biso   1.000  N
  O240     1.0000 0.75220  0.74790  0.64149  Biso   1.000  O
  O241     1.0000 0.56610  0.74260  0.64416  Biso   1.000  O
  C121     1.0000 0.47260  0.62310  0.72190  Biso   1.000  C
  C122     1.0000 0.45410  0.58320  0.72780  Biso   1.000  C
  H81      1.0000 0.46280  0.55710  0.71940  Biso   1.000  H
  O242     1.0000 0.53690  0.65700  0.70150  Biso   1.000  O
  C123     1.0000 0.50670  0.62550  0.70170  Biso   1.000  C
  C124     1.0000 0.38200  0.61160  0.78280  Biso   1.000  C
  C125     1.0000 0.42060  0.58030  0.74730  Biso   1.000  C
  H82      1.0000 0.40340  0.55400  0.74910  Biso   1.000  H
  C126     1.0000 0.41420  0.61620  0.76290  Biso   1.000  C
  C127     1.0000 0.35060  0.57810  0.78340  Biso   1.000  C
  H83      1.0000 0.35050  0.55650  0.77090  Biso   1.000  H
  C128     1.0000 0.31670  0.57470  0.80310  Biso   1.000  C
  H84      1.0000 0.29520  0.55150  0.80310  Biso   1.000  H
  C129     1.0000 0.46550  0.65850  0.73740  Biso   1.000  C
  H85      1.0000 0.47920  0.68640  0.73430  Biso   1.000  H
  C130     1.0000 0.38380  0.63400  0.80250  Biso   1.000  C
  H86      1.0000 0.40840  0.65320  0.80500  Biso   1.000  H
  C131     1.0000 0.34850  0.63120  0.82160  Biso   1.000  C
  H87      1.0000 0.35050  0.65040  0.83510  Biso   1.000  H
  C132     1.0000 0.43670  0.65280  0.75860  Biso   1.000  C
  H88      1.0000 0.43420  0.67680  0.76970  Biso   1.000  H
  Mo61     1.0000 0.66714  0.55364  0.68969  Biso   1.000  Mo
  Mo62     1.0000 0.76159  0.52817  0.60604  Biso   1.000  Mo
  Mo63     1.0000 0.66548  0.64314  0.68708  Biso   1.000  Mo
  Mo64     1.0000 0.60011  0.69774  0.64073  Biso   1.000  Mo
  Mo65     1.0000 0.71646  0.70346  0.64040  Biso   1.000  Mo
  Mo66     1.0000 0.76558  0.64442  0.59874  Biso   1.000  Mo
  Zn21     1.0000 0.56166  0.58976  0.66526  Biso   1.000  Zn
  Zn22     1.0000 0.76438  0.60080  0.65748  Biso   1.000  Zn
  O243     1.0000 0.16060  0.05070  0.14278  Biso   1.000  O
  O244     1.0000 0.15900  0.13640  0.14035  Biso   1.000  O
  O245     1.0000 0.21290  0.09840  0.18083  Biso   1.000  O
  O246     1.0000 0.11820  0.09750  0.18449  Biso   1.000  O
  O247     1.0000 0.21510  0.18850  0.10411  Biso   1.000  O
  O248     1.0000 0.26070  0.04180  0.14147  Biso   1.000  O
  O249     1.0000 0.25990  0.15170  0.13539  Biso   1.000  O
  O250     1.0000 0.06120  0.14480  0.14510  Biso   1.000  O
  O251     1.0000 0.24200  0.13160  0.06875  Biso   1.000  O
  O252     1.0000 0.21090  0.00780  0.17812  Biso   1.000  O
  O253     1.0000 0.29200  0.08950  0.10407  Biso   1.000  O
  O254     1.0000 0.30990  0.17890  0.09238  Biso   1.000  O
  O255     1.0000 0.16010  0.22910  0.13700  Biso   1.000  O
  O256     1.0000 0.01290  0.09080  0.18933  Biso   1.000  O
  O257     1.0000 0.30650  0.99410  0.10163  Biso   1.000  O
  O258     1.0000 0.21020  0.18650  0.17204  Biso   1.000  O
  O259     1.0000 0.17150  0.04620  0.21976  Biso   1.000  O
  O260     1.0000 0.16830  0.15690  0.21647  Biso   1.000  O
  O261     1.0000 0.11670  0.18700  0.17641  Biso   1.000  O
  N12      1.0000 0.81730  0.10500  0.32045  Biso   1.000  N
  O262     1.0000 0.25220  0.24790  0.14149  Biso   1.000  O
  O263     1.0000 0.06610  0.24260  0.14416  Biso   1.000  O
  C133     1.0000 0.97260  0.12310  0.22190  Biso   1.000  C
  C134     1.0000 0.95410  0.08320  0.22780  Biso   1.000  C
  H89      1.0000 0.96280  0.05710  0.21940  Biso   1.000  H
  O264     1.0000 0.03690  0.15700  0.20150  Biso   1.000  O
  C135     1.0000 0.00670  0.12550  0.20170  Biso   1.000  C
  C136     1.0000 0.88200  0.11160  0.28280  Biso   1.000  C
  C137     1.0000 0.92060  0.08030  0.24730  Biso   1.000  C
  H90      1.0000 0.90340  0.05400  0.24910  Biso   1.000  H
  C138     1.0000 0.91420  0.11620  0.26290  Biso   1.000  C
  C139     1.0000 0.85060  0.07810  0.28340  Biso   1.000  C
  H91      1.0000 0.85050  0.05650  0.27090  Biso   1.000  H
  C140     1.0000 0.81670  0.07470  0.30310  Biso   1.000  C
  H92      1.0000 0.79520  0.05150  0.30310  Biso   1.000  H
  C141     1.0000 0.96550  0.15850  0.23740  Biso   1.000  C
  H93      1.0000 0.97920  0.18640  0.23430  Biso   1.000  H
  C142     1.0000 0.88380  0.13400  0.30250  Biso   1.000  C
  H94      1.0000 0.90840  0.15320  0.30500  Biso   1.000  H
  C143     1.0000 0.84850  0.13120  0.32160  Biso   1.000  C
  H95      1.0000 0.85050  0.15040  0.33510  Biso   1.000  H
  C144     1.0000 0.93670  0.15280  0.25860  Biso   1.000  C
  H96      1.0000 0.93420  0.17680  0.26970  Biso   1.000  H
  Mo67     1.0000 0.16714  0.05364  0.18969  Biso   1.000  Mo
  Mo68     1.0000 0.26159  0.02817  0.10604  Biso   1.000  Mo
  Mo69     1.0000 0.16548  0.14314  0.18708  Biso   1.000  Mo
  Mo70     1.0000 0.10011  0.19774  0.14073  Biso   1.000  Mo
  Mo71     1.0000 0.21646  0.20346  0.14040  Biso   1.000  Mo
  Mo72     1.0000 0.26558  0.14442  0.09874  Biso   1.000  Mo
  Zn23     1.0000 0.06166  0.08976  0.16526  Biso   1.000  Zn
  Zn24     1.0000 0.26438  0.10080  0.15748  Biso   1.000  Zn
  O265     1.0000 0.19930  0.58940  0.89278  Biso   1.000  O
  O266     1.0000 0.11360  0.59100  0.89035  Biso   1.000  O
  O267     1.0000 0.15160  0.53710  0.93083  Biso   1.000  O
  O268     1.0000 0.15250  0.63180  0.93449  Biso   1.000  O
  O269     1.0000 0.06150  0.53490  0.85411  Biso   1.000  O
  O270     1.0000 0.20820  0.48930  0.89147  Biso   1.000  O
  O271     1.0000 0.09830  0.49010  0.88539  Biso   1.000  O
  O272     1.0000 0.10520  0.68880  0.89510  Biso   1.000  O
  O273     1.0000 0.11840  0.50800  0.81875  Biso   1.000  O
  O274     1.0000 0.24220  0.53910  0.92812  Biso   1.000  O
  O275     1.0000 0.16050  0.45800  0.85407  Biso   1.000  O
  O276     1.0000 0.07110  0.44010  0.84238  Biso   1.000  O
  O277     1.0000 0.02090  0.58990  0.88700  Biso   1.000  O
  O278     1.0000 0.15920  0.73710  0.93933  Biso   1.000  O
  O279     1.0000 0.25590  0.44350  0.85163  Biso   1.000  O
  O280     1.0000 0.06350  0.53980  0.92204  Biso   1.000  O
  O281     1.0000 0.20380  0.57850  0.96976  Biso   1.000  O
  O282     1.0000 0.09310  0.58170  0.96647  Biso   1.000  O
  O283     1.0000 0.06300  0.63330  0.92641  Biso   1.000  O
  N13      1.0000 0.14500  0.93270  0.07045  Biso   1.000  N
  O284     1.0000 0.00210  0.49780  0.89149  Biso   1.000  O
  O285     1.0000 0.00740  0.68390  0.89416  Biso   1.000  O
  C145     1.0000 0.12690  0.77740  0.97190  Biso   1.000  C
  C146     1.0000 0.16680  0.79590  0.97780  Biso   1.000  C
  H97      1.0000 0.19290  0.78720  0.96940  Biso   1.000  H
  O286     1.0000 0.09300  0.71310  0.95150  Biso   1.000  O
  C147     1.0000 0.12450  0.74330  0.95170  Biso   1.000  C
  C148     1.0000 0.13840  0.86800  0.03280  Biso   1.000  C
  C149     1.0000 0.16970  0.82940  0.99730  Biso   1.000  C
  H98      1.0000 0.19600  0.84660  0.99910  Biso   1.000  H
  C150     1.0000 0.13380  0.83580  0.01290  Biso   1.000  C
  C151     1.0000 0.17190  0.89940  0.03340  Biso   1.000  C
  H99      1.0000 0.19350  0.89950  0.02090  Biso   1.000  H
  C152     1.0000 0.17530  0.93330  0.05310  Biso   1.000  C
  H100     1.0000 0.19850  0.95480  0.05310  Biso   1.000  H
  C153     1.0000 0.09150  0.78450  0.98740  Biso   1.000  C
  H101     1.0000 0.06360  0.77080  0.98430  Biso   1.000  H
  C154     1.0000 0.11600  0.86620  0.05250  Biso   1.000  C
  H102     1.0000 0.09680  0.84160  0.05500  Biso   1.000  H
  C155     1.0000 0.11880  0.90150  0.07160  Biso   1.000  C
  H103     1.0000 0.09960  0.89950  0.08510  Biso   1.000  H
  C156     1.0000 0.09720  0.81330  0.00860  Biso   1.000  C
  H104     1.0000 0.07320  0.81580  0.01970  Biso   1.000  H
  Mo73     1.0000 0.19636  0.58286  0.93969  Biso   1.000  Mo
  Mo74     1.0000 0.22183  0.48841  0.85604  Biso   1.000  Mo
  Mo75     1.0000 0.10686  0.58452  0.93708  Biso   1.000  Mo
  Mo76     1.0000 0.05226  0.64989  0.89073  Biso   1.000  Mo
  Mo77     1.0000 0.04654  0.53354  0.89040  Biso   1.000  Mo
  Mo78     1.0000 0.10558  0.48442  0.84874  Biso   1.000  Mo
  Zn25     1.0000 0.16024  0.68834  0.91526  Biso   1.000  Zn
  Zn26     1.0000 0.14920  0.48562  0.90748  Biso   1.000  Zn
  O287     1.0000 0.69930  0.08940  0.39278  Biso   1.000  O
  O288     1.0000 0.61360  0.09100  0.39035  Biso   1.000  O
  O289     1.0000 0.65160  0.03710  0.43083  Biso   1.000  O
  O290     1.0000 0.65250  0.13180  0.43449  Biso   1.000  O
  O291     1.0000 0.56150  0.03490  0.35411  Biso   1.000  O
  O292     1.0000 0.70820  0.98930  0.39147  Biso   1.000  O
  O293     1.0000 0.59830  0.99010  0.38539  Biso   1.000  O
  O294     1.0000 0.60520  0.18880  0.39510  Biso   1.000  O
  O295     1.0000 0.61840  0.00800  0.31875  Biso   1.000  O
  O296     1.0000 0.74220  0.03910  0.42812  Biso   1.000  O
  O297     1.0000 0.66050  0.95800  0.35407  Biso   1.000  O
  O298     1.0000 0.57110  0.94010  0.34238  Biso   1.000  O
  O299     1.0000 0.52090  0.08990  0.38700  Biso   1.000  O
  O300     1.0000 0.65920  0.23710  0.43933  Biso   1.000  O
  O301     1.0000 0.75590  0.94350  0.35163  Biso   1.000  O
  O302     1.0000 0.56350  0.03980  0.42204  Biso   1.000  O
  O303     1.0000 0.70380  0.07850  0.46976  Biso   1.000  O
  O304     1.0000 0.59310  0.08170  0.46647  Biso   1.000  O
  O305     1.0000 0.56300  0.13330  0.42641  Biso   1.000  O
  N14      1.0000 0.64500  0.43270  0.57045  Biso   1.000  N
  O306     1.0000 0.50210  0.99780  0.39149  Biso   1.000  O
  O307     1.0000 0.50740  0.18390  0.39416  Biso   1.000  O
  C157     1.0000 0.62690  0.27740  0.47190  Biso   1.000  C
  C158     1.0000 0.66680  0.29590  0.47780  Biso   1.000  C
  H105     1.0000 0.69290  0.28720  0.46940  Biso   1.000  H
  O308     1.0000 0.59300  0.21310  0.45150  Biso   1.000  O
  C159     1.0000 0.62450  0.24330  0.45170  Biso   1.000  C
  C160     1.0000 0.63840  0.36800  0.53280  Biso   1.000  C
  C161     1.0000 0.66970  0.32940  0.49730  Biso   1.000  C
  H106     1.0000 0.69600  0.34660  0.49910  Biso   1.000  H
  C162     1.0000 0.63380  0.33580  0.51290  Biso   1.000  C
  C163     1.0000 0.67190  0.39940  0.53340  Biso   1.000  C
  H107     1.0000 0.69350  0.39950  0.52090  Biso   1.000  H
  C164     1.0000 0.67530  0.43330  0.55310  Biso   1.000  C
  H108     1.0000 0.69850  0.45480  0.55310  Biso   1.000  H
  C165     1.0000 0.59150  0.28450  0.48740  Biso   1.000  C
  H109     1.0000 0.56360  0.27080  0.48430  Biso   1.000  H
  C166     1.0000 0.61600  0.36620  0.55250  Biso   1.000  C
  H110     1.0000 0.59680  0.34160  0.55500  Biso   1.000  H
  C167     1.0000 0.61880  0.40150  0.57160  Biso   1.000  C
  H111     1.0000 0.59960  0.39950  0.58510  Biso   1.000  H
  C168     1.0000 0.59720  0.31330  0.50860  Biso   1.000  C
  H112     1.0000 0.57320  0.31580  0.51970  Biso   1.000  H
  Mo79     1.0000 0.69636  0.08286  0.43969  Biso   1.000  Mo
  Mo80     1.0000 0.72183  0.98841  0.35604  Biso   1.000  Mo
  Mo81     1.0000 0.60686  0.08452  0.43708  Biso   1.000  Mo
  Mo82     1.0000 0.55226  0.14989  0.39073  Biso   1.000  Mo
  Mo83     1.0000 0.54654  0.03354  0.39040  Biso   1.000  Mo
  Mo84     1.0000 0.60558  0.98442  0.34874  Biso   1.000  Mo
  Zn27     1.0000 0.66024  0.18834  0.41526  Biso   1.000  Zn
  Zn28     1.0000 0.64920  0.98562  0.40748  Biso   1.000  Zn
  O309     1.0000 0.16060  0.55070  0.85722  Biso   1.000  O
  O310     1.0000 0.15900  0.63640  0.85965  Biso   1.000  O
  O311     1.0000 0.21290  0.59840  0.81917  Biso   1.000  O
  O312     1.0000 0.11820  0.59750  0.81551  Biso   1.000  O
  O313     1.0000 0.21510  0.68850  0.89589  Biso   1.000  O
  O314     1.0000 0.26070  0.54180  0.85853  Biso   1.000  O
  O315     1.0000 0.25990  0.65170  0.86461  Biso   1.000  O
  O316     1.0000 0.06120  0.64480  0.85490  Biso   1.000  O
  O317     1.0000 0.24200  0.63160  0.93125  Biso   1.000  O
  O318     1.0000 0.21090  0.50780  0.82188  Biso   1.000  O
  O319     1.0000 0.29200  0.58950  0.89593  Biso   1.000  O
  O320     1.0000 0.30990  0.67890  0.90762  Biso   1.000  O
  O321     1.0000 0.16010  0.72910  0.86300  Biso   1.000  O
  O322     1.0000 0.01290  0.59080  0.81067  Biso   1.000  O
  O323     1.0000 0.30650  0.49410  0.89837  Biso   1.000  O
  O324     1.0000 0.21020  0.68650  0.82796  Biso   1.000  O
  O325     1.0000 0.17150  0.54620  0.78024  Biso   1.000  O
  O326     1.0000 0.16830  0.65690  0.78353  Biso   1.000  O
  O327     1.0000 0.11670  0.68700  0.82359  Biso   1.000  O
  N15      1.0000 0.81730  0.60500  0.67955  Biso   1.000  N
  O328     1.0000 0.25220  0.74790  0.85851  Biso   1.000  O
  O329     1.0000 0.06610  0.74260  0.85584  Biso   1.000  O
  C169     1.0000 0.97260  0.62310  0.77810  Biso   1.000  C
  C170     1.0000 0.95410  0.58320  0.77220  Biso   1.000  C
  H113     1.0000 0.96280  0.55710  0.78060  Biso   1.000  H
  O330     1.0000 0.03690  0.65700  0.79850  Biso   1.000  O
  C171     1.0000 0.00670  0.62550  0.79830  Biso   1.000  C
  C172     1.0000 0.88200  0.61160  0.71720  Biso   1.000  C
  C173     1.0000 0.92060  0.58030  0.75270  Biso   1.000  C
  H114     1.0000 0.90340  0.55400  0.75090  Biso   1.000  H
  C174     1.0000 0.91420  0.61620  0.73710  Biso   1.000  C
  C175     1.0000 0.85060  0.57810  0.71660  Biso   1.000  C
  H115     1.0000 0.85050  0.55650  0.72910  Biso   1.000  H
  C176     1.0000 0.81670  0.57470  0.69690  Biso   1.000  C
  H116     1.0000 0.79520  0.55150  0.69690  Biso   1.000  H
  C177     1.0000 0.96550  0.65850  0.76260  Biso   1.000  C
  H117     1.0000 0.97920  0.68640  0.76570  Biso   1.000  H
  C178     1.0000 0.88380  0.63400  0.69750  Biso   1.000  C
  H118     1.0000 0.90840  0.65320  0.69500  Biso   1.000  H
  C179     1.0000 0.84850  0.63120  0.67840  Biso   1.000  C
  H119     1.0000 0.85050  0.65040  0.66490  Biso   1.000  H
  C180     1.0000 0.93670  0.65280  0.74140  Biso   1.000  C
  H120     1.0000 0.93420  0.67680  0.73030  Biso   1.000  H
  Mo85     1.0000 0.16714  0.55364  0.81031  Biso   1.000  Mo
  Mo86     1.0000 0.26159  0.52817  0.89396  Biso   1.000  Mo
  Mo87     1.0000 0.16548  0.64314  0.81292  Biso   1.000  Mo
  Mo88     1.0000 0.10011  0.69774  0.85927  Biso   1.000  Mo
  Mo89     1.0000 0.21646  0.70346  0.85960  Biso   1.000  Mo
  Mo90     1.0000 0.26558  0.64442  0.90126  Biso   1.000  Mo
  Zn29     1.0000 0.06166  0.58976  0.83474  Biso   1.000  Zn
  Zn30     1.0000 0.26438  0.60080  0.84252  Biso   1.000  Zn
  O331     1.0000 0.66060  0.05070  0.35722  Biso   1.000  O
  O332     1.0000 0.65900  0.13640  0.35965  Biso   1.000  O
  O333     1.0000 0.71290  0.09840  0.31917  Biso   1.000  O
  O334     1.0000 0.61820  0.09750  0.31551  Biso   1.000  O
  O335     1.0000 0.71510  0.18850  0.39589  Biso   1.000  O
  O336     1.0000 0.76070  0.04180  0.35853  Biso   1.000  O
  O337     1.0000 0.75990  0.15170  0.36461  Biso   1.000  O
  O338     1.0000 0.56120  0.14480  0.35490  Biso   1.000  O
  O339     1.0000 0.74200  0.13160  0.43125  Biso   1.000  O
  O340     1.0000 0.71090  0.00780  0.32188  Biso   1.000  O
  O341     1.0000 0.79200  0.08950  0.39593  Biso   1.000  O
  O342     1.0000 0.80990  0.17890  0.40762  Biso   1.000  O
  O343     1.0000 0.66010  0.22910  0.36300  Biso   1.000  O
  O344     1.0000 0.51290  0.09080  0.31067  Biso   1.000  O
  O345     1.0000 0.80650  0.99410  0.39837  Biso   1.000  O
  O346     1.0000 0.71020  0.18650  0.32796  Biso   1.000  O
  O347     1.0000 0.67150  0.04620  0.28024  Biso   1.000  O
  O348     1.0000 0.66830  0.15690  0.28353  Biso   1.000  O
  O349     1.0000 0.61670  0.18700  0.32359  Biso   1.000  O
  N16      1.0000 0.31730  0.10500  0.17955  Biso   1.000  N
  O350     1.0000 0.75220  0.24790  0.35851  Biso   1.000  O
  O351     1.0000 0.56610  0.24260  0.35584  Biso   1.000  O
  C181     1.0000 0.47260  0.12310  0.27810  Biso   1.000  C
  C182     1.0000 0.45410  0.08320  0.27220  Biso   1.000  C
  H121     1.0000 0.46280  0.05710  0.28060  Biso   1.000  H
  O352     1.0000 0.53690  0.15700  0.29850  Biso   1.000  O
  C183     1.0000 0.50670  0.12550  0.29830  Biso   1.000  C
  C184     1.0000 0.38200  0.11160  0.21720  Biso   1.000  C
  C185     1.0000 0.42060  0.08030  0.25270  Biso   1.000  C
  H122     1.0000 0.40340  0.05400  0.25090  Biso   1.000  H
  C186     1.0000 0.41420  0.11620  0.23710  Biso   1.000  C
  C187     1.0000 0.35060  0.07810  0.21660  Biso   1.000  C
  H123     1.0000 0.35050  0.05650  0.22910  Biso   1.000  H
  C188     1.0000 0.31670  0.07470  0.19690  Biso   1.000  C
  H124     1.0000 0.29520  0.05150  0.19690  Biso   1.000  H
  C189     1.0000 0.46550  0.15850  0.26260  Biso   1.000  C
  H125     1.0000 0.47920  0.18640  0.26570  Biso   1.000  H
  C190     1.0000 0.38380  0.13400  0.19750  Biso   1.000  C
  H126     1.0000 0.40840  0.15320  0.19500  Biso   1.000  H
  C191     1.0000 0.34850  0.13120  0.17840  Biso   1.000  C
  H127     1.0000 0.35050  0.15040  0.16490  Biso   1.000  H
  C192     1.0000 0.43670  0.15280  0.24140  Biso   1.000  C
  H128     1.0000 0.43420  0.17680  0.23030  Biso   1.000  H
  Mo91     1.0000 0.66714  0.05364  0.31031  Biso   1.000  Mo
  Mo92     1.0000 0.76159  0.02817  0.39396  Biso   1.000  Mo
  Mo93     1.0000 0.66548  0.14314  0.31292  Biso   1.000  Mo
  Mo94     1.0000 0.60011  0.19774  0.35927  Biso   1.000  Mo
  Mo95     1.0000 0.71646  0.20346  0.35960  Biso   1.000  Mo
  Mo96     1.0000 0.76558  0.14442  0.40126  Biso   1.000  Mo
  Zn31     1.0000 0.56166  0.08976  0.33474  Biso   1.000  Zn
  Zn32     1.0000 0.76438  0.10080  0.34252  Biso   1.000  Zn
  P5       1.0000 0.65820  0.59180  0.62500  Biso   1.000  P
  P6       1.0000 0.15820  0.09180  0.12500  Biso   1.000  P
  P7       1.0000 0.15820  0.59180  0.87500  Biso   1.000  P
  P8       1.0000 0.65820  0.09180  0.37500  Biso   1.000  P
  O353     1.0000 0.83940  0.55070  0.35722  Biso   1.000  O
  O354     1.0000 0.84100  0.63640  0.35965  Biso   1.000  O
  O355     1.0000 0.78710  0.59840  0.31917  Biso   1.000  O
  O356     1.0000 0.88180  0.59750  0.31551  Biso   1.000  O
  O357     1.0000 0.78490  0.68850  0.39589  Biso   1.000  O
  O358     1.0000 0.73930  0.54180  0.35853  Biso   1.000  O
  O359     1.0000 0.74010  0.65170  0.36461  Biso   1.000  O
  O360     1.0000 0.93880  0.64480  0.35490  Biso   1.000  O
  O361     1.0000 0.75800  0.63160  0.43125  Biso   1.000  O
  O362     1.0000 0.78910  0.50780  0.32188  Biso   1.000  O
  O363     1.0000 0.70800  0.58950  0.39593  Biso   1.000  O
  O364     1.0000 0.69010  0.67890  0.40762  Biso   1.000  O
  O365     1.0000 0.83990  0.72910  0.36300  Biso   1.000  O
  O366     1.0000 0.98710  0.59080  0.31067  Biso   1.000  O
  O367     1.0000 0.69350  0.49410  0.39837  Biso   1.000  O
  O368     1.0000 0.78980  0.68650  0.32796  Biso   1.000  O
  O369     1.0000 0.82850  0.54620  0.28024  Biso   1.000  O
  O370     1.0000 0.83170  0.65690  0.28353  Biso   1.000  O
  O371     1.0000 0.88330  0.68700  0.32359  Biso   1.000  O
  N17      1.0000 0.18270  0.60500  0.17955  Biso   1.000  N
  O372     1.0000 0.74780  0.74790  0.35851  Biso   1.000  O
  O373     1.0000 0.93390  0.74260  0.35584  Biso   1.000  O
  C193     1.0000 0.02740  0.62310  0.27810  Biso   1.000  C
  C194     1.0000 0.04590  0.58320  0.27220  Biso   1.000  C
  H129     1.0000 0.03720  0.55710  0.28060  Biso   1.000  H
  O374     1.0000 0.96310  0.65700  0.29850  Biso   1.000  O
  C195     1.0000 0.99330  0.62550  0.29830  Biso   1.000  C
  C196     1.0000 0.11800  0.61160  0.21720  Biso   1.000  C
  C197     1.0000 0.07940  0.58030  0.25270  Biso   1.000  C
  H130     1.0000 0.09660  0.55400  0.25090  Biso   1.000  H
  C198     1.0000 0.08580  0.61620  0.23710  Biso   1.000  C
  C199     1.0000 0.14940  0.57810  0.21660  Biso   1.000  C
  H131     1.0000 0.14950  0.55650  0.22910  Biso   1.000  H
  C200     1.0000 0.18330  0.57470  0.19690  Biso   1.000  C
  H132     1.0000 0.20480  0.55150  0.19690  Biso   1.000  H
  C201     1.0000 0.03450  0.65850  0.26260  Biso   1.000  C
  H133     1.0000 0.02080  0.68640  0.26570  Biso   1.000  H
  C202     1.0000 0.11620  0.63400  0.19750  Biso   1.000  C
  H134     1.0000 0.09160  0.65320  0.19500  Biso   1.000  H
  C203     1.0000 0.15150  0.63120  0.17840  Biso   1.000  C
  H135     1.0000 0.14950  0.65040  0.16490  Biso   1.000  H
  C204     1.0000 0.06330  0.65280  0.24140  Biso   1.000  C
  H136     1.0000 0.06580  0.67680  0.23030  Biso   1.000  H
  Mo97     1.0000 0.83286  0.55364  0.31031  Biso   1.000  Mo
  Mo98     1.0000 0.73841  0.52817  0.39396  Biso   1.000  Mo
  Mo99     1.0000 0.83452  0.64314  0.31292  Biso   1.000  Mo
  Mo100    1.0000 0.89989  0.69774  0.35927  Biso   1.000  Mo
  Mo101    1.0000 0.78354  0.70346  0.35960  Biso   1.000  Mo
  Mo102    1.0000 0.73442  0.64442  0.40126  Biso   1.000  Mo
  Zn33     1.0000 0.93834  0.58976  0.33474  Biso   1.000  Zn
  Zn34     1.0000 0.73562  0.60080  0.34252  Biso   1.000  Zn
  O375     1.0000 0.33940  0.05070  0.85722  Biso   1.000  O
  O376     1.0000 0.34100  0.13640  0.85965  Biso   1.000  O
  O377     1.0000 0.28710  0.09840  0.81917  Biso   1.000  O
  O378     1.0000 0.38180  0.09750  0.81551  Biso   1.000  O
  O379     1.0000 0.28490  0.18850  0.89589  Biso   1.000  O
  O380     1.0000 0.23930  0.04180  0.85853  Biso   1.000  O
  O381     1.0000 0.24010  0.15170  0.86461  Biso   1.000  O
  O382     1.0000 0.43880  0.14480  0.85490  Biso   1.000  O
  O383     1.0000 0.25800  0.13160  0.93125  Biso   1.000  O
  O384     1.0000 0.28910  0.00780  0.82188  Biso   1.000  O
  O385     1.0000 0.20800  0.08950  0.89593  Biso   1.000  O
  O386     1.0000 0.19010  0.17890  0.90762  Biso   1.000  O
  O387     1.0000 0.33990  0.22910  0.86300  Biso   1.000  O
  O388     1.0000 0.48710  0.09080  0.81067  Biso   1.000  O
  O389     1.0000 0.19350  0.99410  0.89837  Biso   1.000  O
  O390     1.0000 0.28980  0.18650  0.82796  Biso   1.000  O
  O391     1.0000 0.32850  0.04620  0.78024  Biso   1.000  O
  O392     1.0000 0.33170  0.15690  0.78353  Biso   1.000  O
  O393     1.0000 0.38330  0.18700  0.82359  Biso   1.000  O
  N18      1.0000 0.68270  0.10500  0.67955  Biso   1.000  N
  O394     1.0000 0.24780  0.24790  0.85851  Biso   1.000  O
  O395     1.0000 0.43390  0.24260  0.85584  Biso   1.000  O
  C205     1.0000 0.52740  0.12310  0.77810  Biso   1.000  C
  C206     1.0000 0.54590  0.08320  0.77220  Biso   1.000  C
  H137     1.0000 0.53720  0.05710  0.78060  Biso   1.000  H
  O396     1.0000 0.46310  0.15700  0.79850  Biso   1.000  O
  C207     1.0000 0.49330  0.12550  0.79830  Biso   1.000  C
  C208     1.0000 0.61800  0.11160  0.71720  Biso   1.000  C
  C209     1.0000 0.57940  0.08030  0.75270  Biso   1.000  C
  H138     1.0000 0.59660  0.05400  0.75090  Biso   1.000  H
  C210     1.0000 0.58580  0.11620  0.73710  Biso   1.000  C
  C211     1.0000 0.64940  0.07810  0.71660  Biso   1.000  C
  H139     1.0000 0.64950  0.05650  0.72910  Biso   1.000  H
  C212     1.0000 0.68330  0.07470  0.69690  Biso   1.000  C
  H140     1.0000 0.70480  0.05150  0.69690  Biso   1.000  H
  C213     1.0000 0.53450  0.15850  0.76260  Biso   1.000  C
  H141     1.0000 0.52080  0.18640  0.76570  Biso   1.000  H
  C214     1.0000 0.61620  0.13400  0.69750  Biso   1.000  C
  H142     1.0000 0.59160  0.15320  0.69500  Biso   1.000  H
  C215     1.0000 0.65150  0.13120  0.67840  Biso   1.000  C
  H143     1.0000 0.64950  0.15040  0.66490  Biso   1.000  H
  C216     1.0000 0.56330  0.15280  0.74140  Biso   1.000  C
  H144     1.0000 0.56580  0.17680  0.73030  Biso   1.000  H
  Mo103    1.0000 0.33286  0.05364  0.81031  Biso   1.000  Mo
  Mo104    1.0000 0.23841  0.02817  0.89396  Biso   1.000  Mo
  Mo105    1.0000 0.33452  0.14314  0.81292  Biso   1.000  Mo
  Mo106    1.0000 0.39989  0.19774  0.85927  Biso   1.000  Mo
  Mo107    1.0000 0.28354  0.20346  0.85960  Biso   1.000  Mo
  Mo108    1.0000 0.23442  0.14442  0.90126  Biso   1.000  Mo
  Zn35     1.0000 0.43834  0.08976  0.83474  Biso   1.000  Zn
  Zn36     1.0000 0.23562  0.10080  0.84252  Biso   1.000  Zn
  O397     1.0000 0.80070  0.58940  0.39278  Biso   1.000  O
  O398     1.0000 0.88640  0.59100  0.39035  Biso   1.000  O
  O399     1.0000 0.84840  0.53710  0.43083  Biso   1.000  O
  O400     1.0000 0.84750  0.63180  0.43449  Biso   1.000  O
  O401     1.0000 0.93850  0.53490  0.35411  Biso   1.000  O
  O402     1.0000 0.79180  0.48930  0.39147  Biso   1.000  O
  O403     1.0000 0.90170  0.49010  0.38539  Biso   1.000  O
  O404     1.0000 0.89480  0.68880  0.39510  Biso   1.000  O
  O405     1.0000 0.88160  0.50800  0.31875  Biso   1.000  O
  O406     1.0000 0.75780  0.53910  0.42812  Biso   1.000  O
  O407     1.0000 0.83950  0.45800  0.35407  Biso   1.000  O
  O408     1.0000 0.92890  0.44010  0.34238  Biso   1.000  O
  O409     1.0000 0.97910  0.58990  0.38700  Biso   1.000  O
  O410     1.0000 0.84080  0.73710  0.43933  Biso   1.000  O
  O411     1.0000 0.74410  0.44350  0.35163  Biso   1.000  O
  O412     1.0000 0.93650  0.53980  0.42204  Biso   1.000  O
  O413     1.0000 0.79620  0.57850  0.46976  Biso   1.000  O
  O414     1.0000 0.90690  0.58170  0.46647  Biso   1.000  O
  O415     1.0000 0.93700  0.63330  0.42641  Biso   1.000  O
  N19      1.0000 0.85500  0.93270  0.57045  Biso   1.000  N
  O416     1.0000 0.99790  0.49780  0.39149  Biso   1.000  O
  O417     1.0000 0.99260  0.68390  0.39416  Biso   1.000  O
  C217     1.0000 0.87310  0.77740  0.47190  Biso   1.000  C
  C218     1.0000 0.83320  0.79590  0.47780  Biso   1.000  C
  H145     1.0000 0.80710  0.78720  0.46940  Biso   1.000  H
  O418     1.0000 0.90700  0.71310  0.45150  Biso   1.000  O
  C219     1.0000 0.87550  0.74330  0.45170  Biso   1.000  C
  C220     1.0000 0.86160  0.86800  0.53280  Biso   1.000  C
  C221     1.0000 0.83030  0.82940  0.49730  Biso   1.000  C
  H146     1.0000 0.80400  0.84660  0.49910  Biso   1.000  H
  C222     1.0000 0.86620  0.83580  0.51290  Biso   1.000  C
  C223     1.0000 0.82810  0.89940  0.53340  Biso   1.000  C
  H147     1.0000 0.80650  0.89950  0.52090  Biso   1.000  H
  C224     1.0000 0.82470  0.93330  0.55310  Biso   1.000  C
  H148     1.0000 0.80150  0.95480  0.55310  Biso   1.000  H
  C225     1.0000 0.90850  0.78450  0.48740  Biso   1.000  C
  H149     1.0000 0.93640  0.77080  0.48430  Biso   1.000  H
  C226     1.0000 0.88400  0.86620  0.55250  Biso   1.000  C
  H150     1.0000 0.90320  0.84160  0.55500  Biso   1.000  H
  C227     1.0000 0.88120  0.90150  0.57160  Biso   1.000  C
  H151     1.0000 0.90040  0.89950  0.58510  Biso   1.000  H
  C228     1.0000 0.90280  0.81330  0.50860  Biso   1.000  C
  H152     1.0000 0.92680  0.81580  0.51970  Biso   1.000  H
  Mo109    1.0000 0.80364  0.58286  0.43969  Biso   1.000  Mo
  Mo110    1.0000 0.77817  0.48841  0.35604  Biso   1.000  Mo
  Mo111    1.0000 0.89314  0.58452  0.43708  Biso   1.000  Mo
  Mo112    1.0000 0.94774  0.64989  0.39073  Biso   1.000  Mo
  Mo113    1.0000 0.95346  0.53354  0.39040  Biso   1.000  Mo
  Mo114    1.0000 0.89442  0.48442  0.34874  Biso   1.000  Mo
  Zn37     1.0000 0.83976  0.68834  0.41526  Biso   1.000  Zn
  Zn38     1.0000 0.85080  0.48562  0.40748  Biso   1.000  Zn
  O419     1.0000 0.30070  0.08940  0.89278  Biso   1.000  O
  O420     1.0000 0.38640  0.09100  0.89035  Biso   1.000  O
  O421     1.0000 0.34840  0.03710  0.93083  Biso   1.000  O
  O422     1.0000 0.34750  0.13180  0.93449  Biso   1.000  O
  O423     1.0000 0.43850  0.03490  0.85411  Biso   1.000  O
  O424     1.0000 0.29180  0.98930  0.89147  Biso   1.000  O
  O425     1.0000 0.40170  0.99010  0.88539  Biso   1.000  O
  O426     1.0000 0.39480  0.18880  0.89510  Biso   1.000  O
  O427     1.0000 0.38160  0.00800  0.81875  Biso   1.000  O
  O428     1.0000 0.25780  0.03910  0.92812  Biso   1.000  O
  O429     1.0000 0.33950  0.95800  0.85407  Biso   1.000  O
  O430     1.0000 0.42890  0.94010  0.84238  Biso   1.000  O
  O431     1.0000 0.47910  0.08990  0.88700  Biso   1.000  O
  O432     1.0000 0.34080  0.23710  0.93933  Biso   1.000  O
  O433     1.0000 0.24410  0.94350  0.85163  Biso   1.000  O
  O434     1.0000 0.43650  0.03980  0.92204  Biso   1.000  O
  O435     1.0000 0.29620  0.07850  0.96976  Biso   1.000  O
  O436     1.0000 0.40690  0.08170  0.96647  Biso   1.000  O
  O437     1.0000 0.43700  0.13330  0.92641  Biso   1.000  O
  N20      1.0000 0.35500  0.43270  0.07045  Biso   1.000  N
  O438     1.0000 0.49790  0.99780  0.89149  Biso   1.000  O
  O439     1.0000 0.49260  0.18390  0.89416  Biso   1.000  O
  C229     1.0000 0.37310  0.27740  0.97190  Biso   1.000  C
  C230     1.0000 0.33320  0.29590  0.97780  Biso   1.000  C
  H153     1.0000 0.30710  0.28720  0.96940  Biso   1.000  H
  O440     1.0000 0.40700  0.21310  0.95150  Biso   1.000  O
  C231     1.0000 0.37550  0.24330  0.95170  Biso   1.000  C
  C232     1.0000 0.36160  0.36800  0.03280  Biso   1.000  C
  C233     1.0000 0.33030  0.32940  0.99730  Biso   1.000  C
  H154     1.0000 0.30400  0.34660  0.99910  Biso   1.000  H
  C234     1.0000 0.36620  0.33580  0.01290  Biso   1.000  C
  C235     1.0000 0.32810  0.39940  0.03340  Biso   1.000  C
  H155     1.0000 0.30650  0.39950  0.02090  Biso   1.000  H
  C236     1.0000 0.32470  0.43330  0.05310  Biso   1.000  C
  H156     1.0000 0.30150  0.45480  0.05310  Biso   1.000  H
  C237     1.0000 0.40850  0.28450  0.98740  Biso   1.000  C
  H157     1.0000 0.43640  0.27080  0.98430  Biso   1.000  H
  C238     1.0000 0.38400  0.36620  0.05250  Biso   1.000  C
  H158     1.0000 0.40320  0.34160  0.05500  Biso   1.000  H
  C239     1.0000 0.38120  0.40150  0.07160  Biso   1.000  C
  H159     1.0000 0.40040  0.39950  0.08510  Biso   1.000  H
  C240     1.0000 0.40280  0.31330  0.00860  Biso   1.000  C
  H160     1.0000 0.42680  0.31580  0.01970  Biso   1.000  H
  Mo115    1.0000 0.30364  0.08286  0.93969  Biso   1.000  Mo
  Mo116    1.0000 0.27817  0.98841  0.85604  Biso   1.000  Mo
  Mo117    1.0000 0.39314  0.08452  0.93708  Biso   1.000  Mo
  Mo118    1.0000 0.44774  0.14989  0.89073  Biso   1.000  Mo
  Mo119    1.0000 0.45346  0.03354  0.89040  Biso   1.000  Mo
  Mo120    1.0000 0.39442  0.98442  0.84874  Biso   1.000  Mo
  Zn39     1.0000 0.33976  0.18834  0.91526  Biso   1.000  Zn
  Zn40     1.0000 0.35080  0.98562  0.90748  Biso   1.000  Zn
  O441     1.0000 0.33940  0.55070  0.14278  Biso   1.000  O
  O442     1.0000 0.34100  0.63640  0.14035  Biso   1.000  O
  O443     1.0000 0.28710  0.59840  0.18083  Biso   1.000  O
  O444     1.0000 0.38180  0.59750  0.18449  Biso   1.000  O
  O445     1.0000 0.28490  0.68850  0.10411  Biso   1.000  O
  O446     1.0000 0.23930  0.54180  0.14147  Biso   1.000  O
  O447     1.0000 0.24010  0.65170  0.13539  Biso   1.000  O
  O448     1.0000 0.43880  0.64480  0.14510  Biso   1.000  O
  O449     1.0000 0.25800  0.63160  0.06875  Biso   1.000  O
  O450     1.0000 0.28910  0.50780  0.17812  Biso   1.000  O
  O451     1.0000 0.20800  0.58950  0.10407  Biso   1.000  O
  O452     1.0000 0.19010  0.67890  0.09238  Biso   1.000  O
  O453     1.0000 0.33990  0.72910  0.13700  Biso   1.000  O
  O454     1.0000 0.48710  0.59080  0.18933  Biso   1.000  O
  O455     1.0000 0.19350  0.49410  0.10163  Biso   1.000  O
  O456     1.0000 0.28980  0.68650  0.17204  Biso   1.000  O
  O457     1.0000 0.32850  0.54620  0.21976  Biso   1.000  O
  O458     1.0000 0.33170  0.65690  0.21647  Biso   1.000  O
  O459     1.0000 0.38330  0.68700  0.17641  Biso   1.000  O
  N21      1.0000 0.68270  0.60500  0.32045  Biso   1.000  N
  O460     1.0000 0.24780  0.74790  0.14149  Biso   1.000  O
  O461     1.0000 0.43390  0.74260  0.14416  Biso   1.000  O
  C241     1.0000 0.52740  0.62310  0.22190  Biso   1.000  C
  C242     1.0000 0.54590  0.58320  0.22780  Biso   1.000  C
  H161     1.0000 0.53720  0.55710  0.21940  Biso   1.000  H
  O462     1.0000 0.46310  0.65700  0.20150  Biso   1.000  O
  C243     1.0000 0.49330  0.62550  0.20170  Biso   1.000  C
  C244     1.0000 0.61800  0.61160  0.28280  Biso   1.000  C
  C245     1.0000 0.57940  0.58030  0.24730  Biso   1.000  C
  H162     1.0000 0.59660  0.55400  0.24910  Biso   1.000  H
  C246     1.0000 0.58580  0.61620  0.26290  Biso   1.000  C
  C247     1.0000 0.64940  0.57810  0.28340  Biso   1.000  C
  H163     1.0000 0.64950  0.55650  0.27090  Biso   1.000  H
  C248     1.0000 0.68330  0.57470  0.30310  Biso   1.000  C
  H164     1.0000 0.70480  0.55150  0.30310  Biso   1.000  H
  C249     1.0000 0.53450  0.65850  0.23740  Biso   1.000  C
  H165     1.0000 0.52080  0.68640  0.23430  Biso   1.000  H
  C250     1.0000 0.61620  0.63400  0.30250  Biso   1.000  C
  H166     1.0000 0.59160  0.65320  0.30500  Biso   1.000  H
  C251     1.0000 0.65150  0.63120  0.32160  Biso   1.000  C
  H167     1.0000 0.64950  0.65040  0.33510  Biso   1.000  H
  C252     1.0000 0.56330  0.65280  0.25860  Biso   1.000  C
  H168     1.0000 0.56580  0.67680  0.26970  Biso   1.000  H
  Mo121    1.0000 0.33286  0.55364  0.18969  Biso   1.000  Mo
  Mo122    1.0000 0.23841  0.52817  0.10604  Biso   1.000  Mo
  Mo123    1.0000 0.33452  0.64314  0.18708  Biso   1.000  Mo
  Mo124    1.0000 0.39989  0.69774  0.14073  Biso   1.000  Mo
  Mo125    1.0000 0.28354  0.70346  0.14040  Biso   1.000  Mo
  Mo126    1.0000 0.23442  0.64442  0.09874  Biso   1.000  Mo
  Zn41     1.0000 0.43834  0.58976  0.16526  Biso   1.000  Zn
  Zn42     1.0000 0.23562  0.60080  0.15748  Biso   1.000  Zn
  O463     1.0000 0.83940  0.05070  0.64278  Biso   1.000  O
  O464     1.0000 0.84100  0.13640  0.64035  Biso   1.000  O
  O465     1.0000 0.78710  0.09840  0.68083  Biso   1.000  O
  O466     1.0000 0.88180  0.09750  0.68449  Biso   1.000  O
  O467     1.0000 0.78490  0.18850  0.60411  Biso   1.000  O
  O468     1.0000 0.73930  0.04180  0.64147  Biso   1.000  O
  O469     1.0000 0.74010  0.15170  0.63539  Biso   1.000  O
  O470     1.0000 0.93880  0.14480  0.64510  Biso   1.000  O
  O471     1.0000 0.75800  0.13160  0.56875  Biso   1.000  O
  O472     1.0000 0.78910  0.00780  0.67812  Biso   1.000  O
  O473     1.0000 0.70800  0.08950  0.60407  Biso   1.000  O
  O474     1.0000 0.69010  0.17890  0.59238  Biso   1.000  O
  O475     1.0000 0.83990  0.22910  0.63700  Biso   1.000  O
  O476     1.0000 0.98710  0.09080  0.68933  Biso   1.000  O
  O477     1.0000 0.69350  0.99410  0.60163  Biso   1.000  O
  O478     1.0000 0.78980  0.18650  0.67204  Biso   1.000  O
  O479     1.0000 0.82850  0.04620  0.71976  Biso   1.000  O
  O480     1.0000 0.83170  0.15690  0.71647  Biso   1.000  O
  O481     1.0000 0.88330  0.18700  0.67641  Biso   1.000  O
  N22      1.0000 0.18270  0.10500  0.82045  Biso   1.000  N
  O482     1.0000 0.74780  0.24790  0.64149  Biso   1.000  O
  O483     1.0000 0.93390  0.24260  0.64416  Biso   1.000  O
  C253     1.0000 0.02740  0.12310  0.72190  Biso   1.000  C
  C254     1.0000 0.04590  0.08320  0.72780  Biso   1.000  C
  H169     1.0000 0.03720  0.05710  0.71940  Biso   1.000  H
  O484     1.0000 0.96310  0.15700  0.70150  Biso   1.000  O
  C255     1.0000 0.99330  0.12550  0.70170  Biso   1.000  C
  C256     1.0000 0.11800  0.11160  0.78280  Biso   1.000  C
  C257     1.0000 0.07940  0.08030  0.74730  Biso   1.000  C
  H170     1.0000 0.09660  0.05400  0.74910  Biso   1.000  H
  C258     1.0000 0.08580  0.11620  0.76290  Biso   1.000  C
  C259     1.0000 0.14940  0.07810  0.78340  Biso   1.000  C
  H171     1.0000 0.14950  0.05650  0.77090  Biso   1.000  H
  C260     1.0000 0.18330  0.07470  0.80310  Biso   1.000  C
  H172     1.0000 0.20480  0.05150  0.80310  Biso   1.000  H
  C261     1.0000 0.03450  0.15850  0.73740  Biso   1.000  C
  H173     1.0000 0.02080  0.18640  0.73430  Biso   1.000  H
  C262     1.0000 0.11620  0.13400  0.80250  Biso   1.000  C
  H174     1.0000 0.09160  0.15320  0.80500  Biso   1.000  H
  C263     1.0000 0.15150  0.13120  0.82160  Biso   1.000  C
  H175     1.0000 0.14950  0.15040  0.83510  Biso   1.000  H
  C264     1.0000 0.06330  0.15280  0.75860  Biso   1.000  C
  H176     1.0000 0.06580  0.17680  0.76970  Biso   1.000  H
  Mo127    1.0000 0.83286  0.05364  0.68969  Biso   1.000  Mo
  Mo128    1.0000 0.73841  0.02817  0.60604  Biso   1.000  Mo
  Mo129    1.0000 0.83452  0.14314  0.68708  Biso   1.000  Mo
  Mo130    1.0000 0.89989  0.19774  0.64073  Biso   1.000  Mo
  Mo131    1.0000 0.78354  0.20346  0.64040  Biso   1.000  Mo
  Mo132    1.0000 0.73442  0.14442  0.59874  Biso   1.000  Mo
  Zn43     1.0000 0.93834  0.08976  0.66526  Biso   1.000  Zn
  Zn44     1.0000 0.73562  0.10080  0.65748  Biso   1.000  Zn
  O485     1.0000 0.30070  0.58940  0.10722  Biso   1.000  O
  O486     1.0000 0.38640  0.59100  0.10965  Biso   1.000  O
  O487     1.0000 0.34840  0.53710  0.06917  Biso   1.000  O
  O488     1.0000 0.34750  0.63180  0.06551  Biso   1.000  O
  O489     1.0000 0.43850  0.53490  0.14589  Biso   1.000  O
  O490     1.0000 0.29180  0.48930  0.10853  Biso   1.000  O
  O491     1.0000 0.40170  0.49010  0.11461  Biso   1.000  O
  O492     1.0000 0.39480  0.68880  0.10490  Biso   1.000  O
  O493     1.0000 0.38160  0.50800  0.18125  Biso   1.000  O
  O494     1.0000 0.25780  0.53910  0.07188  Biso   1.000  O
  O495     1.0000 0.33950  0.45800  0.14593  Biso   1.000  O
  O496     1.0000 0.42890  0.44010  0.15762  Biso   1.000  O
  O497     1.0000 0.47910  0.58990  0.11300  Biso   1.000  O
  O498     1.0000 0.34080  0.73710  0.06067  Biso   1.000  O
  O499     1.0000 0.24410  0.44350  0.14837  Biso   1.000  O
  O500     1.0000 0.43650  0.53980  0.07796  Biso   1.000  O
  O501     1.0000 0.29620  0.57850  0.03024  Biso   1.000  O
  O502     1.0000 0.40690  0.58170  0.03353  Biso   1.000  O
  O503     1.0000 0.43700  0.63330  0.07359  Biso   1.000  O
  N23      1.0000 0.35500  0.93270  0.92955  Biso   1.000  N
  O504     1.0000 0.49790  0.49780  0.10851  Biso   1.000  O
  O505     1.0000 0.49260  0.68390  0.10584  Biso   1.000  O
  C265     1.0000 0.37310  0.77740  0.02810  Biso   1.000  C
  C266     1.0000 0.33320  0.79590  0.02220  Biso   1.000  C
  H177     1.0000 0.30710  0.78720  0.03060  Biso   1.000  H
  O506     1.0000 0.40700  0.71310  0.04850  Biso   1.000  O
  C267     1.0000 0.37550  0.74330  0.04830  Biso   1.000  C
  C268     1.0000 0.36160  0.86800  0.96720  Biso   1.000  C
  C269     1.0000 0.33030  0.82940  0.00270  Biso   1.000  C
  H178     1.0000 0.30400  0.84660  0.00090  Biso   1.000  H
  C270     1.0000 0.36620  0.83580  0.98710  Biso   1.000  C
  C271     1.0000 0.32810  0.89940  0.96660  Biso   1.000  C
  H179     1.0000 0.30650  0.89950  0.97910  Biso   1.000  H
  C272     1.0000 0.32470  0.93330  0.94690  Biso   1.000  C
  H180     1.0000 0.30150  0.95480  0.94690  Biso   1.000  H
  C273     1.0000 0.40850  0.78450  0.01260  Biso   1.000  C
  H181     1.0000 0.43640  0.77080  0.01570  Biso   1.000  H
  C274     1.0000 0.38400  0.86620  0.94750  Biso   1.000  C
  H182     1.0000 0.40320  0.84160  0.94500  Biso   1.000  H
  C275     1.0000 0.38120  0.90150  0.92840  Biso   1.000  C
  H183     1.0000 0.40040  0.89950  0.91490  Biso   1.000  H
  C276     1.0000 0.40280  0.81330  0.99140  Biso   1.000  C
  H184     1.0000 0.42680  0.81580  0.98030  Biso   1.000  H
  Mo133    1.0000 0.30364  0.58286  0.06031  Biso   1.000  Mo
  Mo134    1.0000 0.27817  0.48841  0.14396  Biso   1.000  Mo
  Mo135    1.0000 0.39314  0.58452  0.06292  Biso   1.000  Mo
  Mo136    1.0000 0.44774  0.64989  0.10927  Biso   1.000  Mo
  Mo137    1.0000 0.45346  0.53354  0.10960  Biso   1.000  Mo
  Mo138    1.0000 0.39442  0.48442  0.15126  Biso   1.000  Mo
  Zn45     1.0000 0.33976  0.68834  0.08474  Biso   1.000  Zn
  Zn46     1.0000 0.35080  0.48562  0.09252  Biso   1.000  Zn
  O507     1.0000 0.80070  0.08940  0.60722  Biso   1.000  O
  O508     1.0000 0.88640  0.09100  0.60965  Biso   1.000  O
  O509     1.0000 0.84840  0.03710  0.56917  Biso   1.000  O
  O510     1.0000 0.84750  0.13180  0.56551  Biso   1.000  O
  O511     1.0000 0.93850  0.03490  0.64589  Biso   1.000  O
  O512     1.0000 0.79180  0.98930  0.60853  Biso   1.000  O
  O513     1.0000 0.90170  0.99010  0.61461  Biso   1.000  O
  O514     1.0000 0.89480  0.18880  0.60490  Biso   1.000  O
  O515     1.0000 0.88160  0.00800  0.68125  Biso   1.000  O
  O516     1.0000 0.75780  0.03910  0.57188  Biso   1.000  O
  O517     1.0000 0.83950  0.95800  0.64593  Biso   1.000  O
  O518     1.0000 0.92890  0.94010  0.65762  Biso   1.000  O
  O519     1.0000 0.97910  0.08990  0.61300  Biso   1.000  O
  O520     1.0000 0.84080  0.23710  0.56067  Biso   1.000  O
  O521     1.0000 0.74410  0.94350  0.64837  Biso   1.000  O
  O522     1.0000 0.93650  0.03980  0.57796  Biso   1.000  O
  O523     1.0000 0.79620  0.07850  0.53024  Biso   1.000  O
  O524     1.0000 0.90690  0.08170  0.53353  Biso   1.000  O
  O525     1.0000 0.93700  0.13330  0.57359  Biso   1.000  O
  N24      1.0000 0.85500  0.43270  0.42955  Biso   1.000  N
  O526     1.0000 0.99790  0.99780  0.60851  Biso   1.000  O
  O527     1.0000 0.99260  0.18390  0.60584  Biso   1.000  O
  C277     1.0000 0.87310  0.27740  0.52810  Biso   1.000  C
  C278     1.0000 0.83320  0.29590  0.52220  Biso   1.000  C
  H185     1.0000 0.80710  0.28720  0.53060  Biso   1.000  H
  O528     1.0000 0.90700  0.21310  0.54850  Biso   1.000  O
  C279     1.0000 0.87550  0.24330  0.54830  Biso   1.000  C
  C280     1.0000 0.86160  0.36800  0.46720  Biso   1.000  C
  C281     1.0000 0.83030  0.32940  0.50270  Biso   1.000  C
  H186     1.0000 0.80400  0.34660  0.50090  Biso   1.000  H
  C282     1.0000 0.86620  0.33580  0.48710  Biso   1.000  C
  C283     1.0000 0.82810  0.39940  0.46660  Biso   1.000  C
  H187     1.0000 0.80650  0.39950  0.47910  Biso   1.000  H
  C284     1.0000 0.82470  0.43330  0.44690  Biso   1.000  C
  H188     1.0000 0.80150  0.45480  0.44690  Biso   1.000  H
  C285     1.0000 0.90850  0.28450  0.51260  Biso   1.000  C
  H189     1.0000 0.93640  0.27080  0.51570  Biso   1.000  H
  C286     1.0000 0.88400  0.36620  0.44750  Biso   1.000  C
  H190     1.0000 0.90320  0.34160  0.44500  Biso   1.000  H
  C287     1.0000 0.88120  0.40150  0.42840  Biso   1.000  C
  H191     1.0000 0.90040  0.39950  0.41490  Biso   1.000  H
  C288     1.0000 0.90280  0.31330  0.49140  Biso   1.000  C
  H192     1.0000 0.92680  0.31580  0.48030  Biso   1.000  H
  Mo139    1.0000 0.80364  0.08286  0.56031  Biso   1.000  Mo
  Mo140    1.0000 0.77817  0.98841  0.64396  Biso   1.000  Mo
  Mo141    1.0000 0.89314  0.08452  0.56292  Biso   1.000  Mo
  Mo142    1.0000 0.94774  0.14989  0.60927  Biso   1.000  Mo
  Mo143    1.0000 0.95346  0.03354  0.60960  Biso   1.000  Mo
  Mo144    1.0000 0.89442  0.98442  0.65126  Biso   1.000  Mo
  Zn47     1.0000 0.83976  0.18834  0.58474  Biso   1.000  Zn
  Zn48     1.0000 0.85080  0.98562  0.59252  Biso   1.000  Zn
  P9       1.0000 0.84180  0.59180  0.37500  Biso   1.000  P
  P10      1.0000 0.34180  0.09180  0.87500  Biso   1.000  P
  P11      1.0000 0.34180  0.59180  0.12500  Biso   1.000  P
  P12      1.0000 0.84180  0.09180  0.62500  Biso   1.000  P
  O529     1.0000 0.66060  0.44930  0.85722  Biso   1.000  O
  O530     1.0000 0.65900  0.36360  0.85965  Biso   1.000  O
  O531     1.0000 0.71290  0.40160  0.81917  Biso   1.000  O
  O532     1.0000 0.61820  0.40250  0.81551  Biso   1.000  O
  O533     1.0000 0.71510  0.31150  0.89589  Biso   1.000  O
  O534     1.0000 0.76070  0.45820  0.85853  Biso   1.000  O
  O535     1.0000 0.75990  0.34830  0.86461  Biso   1.000  O
  O536     1.0000 0.56120  0.35520  0.85490  Biso   1.000  O
  O537     1.0000 0.74200  0.36840  0.93125  Biso   1.000  O
  O538     1.0000 0.71090  0.49220  0.82188  Biso   1.000  O
  O539     1.0000 0.79200  0.41050  0.89593  Biso   1.000  O
  O540     1.0000 0.80990  0.32110  0.90762  Biso   1.000  O
  O541     1.0000 0.66010  0.27090  0.86300  Biso   1.000  O
  O542     1.0000 0.51290  0.40920  0.81067  Biso   1.000  O
  O543     1.0000 0.80650  0.50590  0.89837  Biso   1.000  O
  O544     1.0000 0.71020  0.31350  0.82796  Biso   1.000  O
  O545     1.0000 0.67150  0.45380  0.78024  Biso   1.000  O
  O546     1.0000 0.66830  0.34310  0.78353  Biso   1.000  O
  O547     1.0000 0.61670  0.31300  0.82359  Biso   1.000  O
  N25      1.0000 0.31730  0.39500  0.67955  Biso   1.000  N
  O548     1.0000 0.75220  0.25210  0.85851  Biso   1.000  O
  O549     1.0000 0.56610  0.25740  0.85584  Biso   1.000  O
  C289     1.0000 0.47260  0.37690  0.77810  Biso   1.000  C
  C290     1.0000 0.45410  0.41680  0.77220  Biso   1.000  C
  H193     1.0000 0.46280  0.44290  0.78060  Biso   1.000  H
  O550     1.0000 0.53690  0.34300  0.79850  Biso   1.000  O
  C291     1.0000 0.50670  0.37450  0.79830  Biso   1.000  C
  C292     1.0000 0.38200  0.38840  0.71720  Biso   1.000  C
  C293     1.0000 0.42060  0.41970  0.75270  Biso   1.000  C
  H194     1.0000 0.40340  0.44600  0.75090  Biso   1.000  H
  C294     1.0000 0.41420  0.38380  0.73710  Biso   1.000  C
  C295     1.0000 0.35060  0.42190  0.71660  Biso   1.000  C
  H195     1.0000 0.35050  0.44350  0.72910  Biso   1.000  H
  C296     1.0000 0.31670  0.42530  0.69690  Biso   1.000  C
  H196     1.0000 0.29520  0.44850  0.69690  Biso   1.000  H
  C297     1.0000 0.46550  0.34150  0.76260  Biso   1.000  C
  H197     1.0000 0.47920  0.31360  0.76570  Biso   1.000  H
  C298     1.0000 0.38380  0.36600  0.69750  Biso   1.000  C
  H198     1.0000 0.40840  0.34680  0.69500  Biso   1.000  H
  C299     1.0000 0.34850  0.36880  0.67840  Biso   1.000  C
  H199     1.0000 0.35050  0.34960  0.66490  Biso   1.000  H
  C300     1.0000 0.43670  0.34720  0.74140  Biso   1.000  C
  H200     1.0000 0.43420  0.32320  0.73030  Biso   1.000  H
  Mo145    1.0000 0.66714  0.44636  0.81031  Biso   1.000  Mo
  Mo146    1.0000 0.76159  0.47183  0.89396  Biso   1.000  Mo
  Mo147    1.0000 0.66548  0.35686  0.81292  Biso   1.000  Mo
  Mo148    1.0000 0.60011  0.30226  0.85927  Biso   1.000  Mo
  Mo149    1.0000 0.71646  0.29654  0.85960  Biso   1.000  Mo
  Mo150    1.0000 0.76558  0.35558  0.90126  Biso   1.000  Mo
  Zn49     1.0000 0.56166  0.41024  0.83474  Biso   1.000  Zn
  Zn50     1.0000 0.76438  0.39920  0.84252  Biso   1.000  Zn
  O551     1.0000 0.16060  0.94930  0.35722  Biso   1.000  O
  O552     1.0000 0.15900  0.86360  0.35965  Biso   1.000  O
  O553     1.0000 0.21290  0.90160  0.31917  Biso   1.000  O
  O554     1.0000 0.11820  0.90250  0.31551  Biso   1.000  O
  O555     1.0000 0.21510  0.81150  0.39589  Biso   1.000  O
  O556     1.0000 0.26070  0.95820  0.35853  Biso   1.000  O
  O557     1.0000 0.25990  0.84830  0.36461  Biso   1.000  O
  O558     1.0000 0.06120  0.85520  0.35490  Biso   1.000  O
  O559     1.0000 0.24200  0.86840  0.43125  Biso   1.000  O
  O560     1.0000 0.21090  0.99220  0.32188  Biso   1.000  O
  O561     1.0000 0.29200  0.91050  0.39593  Biso   1.000  O
  O562     1.0000 0.30990  0.82110  0.40762  Biso   1.000  O
  O563     1.0000 0.16010  0.77090  0.36300  Biso   1.000  O
  O564     1.0000 0.01290  0.90920  0.31067  Biso   1.000  O
  O565     1.0000 0.30650  0.00590  0.39837  Biso   1.000  O
  O566     1.0000 0.21020  0.81350  0.32796  Biso   1.000  O
  O567     1.0000 0.17150  0.95380  0.28024  Biso   1.000  O
  O568     1.0000 0.16830  0.84310  0.28353  Biso   1.000  O
  O569     1.0000 0.11670  0.81300  0.32359  Biso   1.000  O
  N26      1.0000 0.81730  0.89500  0.17955  Biso   1.000  N
  O570     1.0000 0.25220  0.75210  0.35851  Biso   1.000  O
  O571     1.0000 0.06610  0.75740  0.35584  Biso   1.000  O
  C301     1.0000 0.97260  0.87690  0.27810  Biso   1.000  C
  C302     1.0000 0.95410  0.91680  0.27220  Biso   1.000  C
  H201     1.0000 0.96280  0.94290  0.28060  Biso   1.000  H
  O572     1.0000 0.03690  0.84300  0.29850  Biso   1.000  O
  C303     1.0000 0.00670  0.87450  0.29830  Biso   1.000  C
  C304     1.0000 0.88200  0.88840  0.21720  Biso   1.000  C
  C305     1.0000 0.92060  0.91970  0.25270  Biso   1.000  C
  H202     1.0000 0.90340  0.94600  0.25090  Biso   1.000  H
  C306     1.0000 0.91420  0.88380  0.23710  Biso   1.000  C
  C307     1.0000 0.85060  0.92190  0.21660  Biso   1.000  C
  H203     1.0000 0.85050  0.94350  0.22910  Biso   1.000  H
  C308     1.0000 0.81670  0.92530  0.19690  Biso   1.000  C
  H204     1.0000 0.79520  0.94850  0.19690  Biso   1.000  H
  C309     1.0000 0.96550  0.84150  0.26260  Biso   1.000  C
  H205     1.0000 0.97920  0.81360  0.26570  Biso   1.000  H
  C310     1.0000 0.88380  0.86600  0.19750  Biso   1.000  C
  H206     1.0000 0.90840  0.84680  0.19500  Biso   1.000  H
  C311     1.0000 0.84850  0.86880  0.17840  Biso   1.000  C
  H207     1.0000 0.85050  0.84960  0.16490  Biso   1.000  H
  C312     1.0000 0.93670  0.84720  0.24140  Biso   1.000  C
  H208     1.0000 0.93420  0.82320  0.23030  Biso   1.000  H
  Mo151    1.0000 0.16714  0.94636  0.31031  Biso   1.000  Mo
  Mo152    1.0000 0.26159  0.97183  0.39396  Biso   1.000  Mo
  Mo153    1.0000 0.16548  0.85686  0.31292  Biso   1.000  Mo
  Mo154    1.0000 0.10011  0.80226  0.35927  Biso   1.000  Mo
  Mo155    1.0000 0.21646  0.79654  0.35960  Biso   1.000  Mo
  Mo156    1.0000 0.26558  0.85558  0.40126  Biso   1.000  Mo
  Zn51     1.0000 0.06166  0.91024  0.33474  Biso   1.000  Zn
  Zn52     1.0000 0.26438  0.89920  0.34252  Biso   1.000  Zn
  O573     1.0000 0.69930  0.41060  0.89278  Biso   1.000  O
  O574     1.0000 0.61360  0.40900  0.89035  Biso   1.000  O
  O575     1.0000 0.65160  0.46290  0.93083  Biso   1.000  O
  O576     1.0000 0.65250  0.36820  0.93449  Biso   1.000  O
  O577     1.0000 0.56150  0.46510  0.85411  Biso   1.000  O
  O578     1.0000 0.70820  0.51070  0.89147  Biso   1.000  O
  O579     1.0000 0.59830  0.50990  0.88539  Biso   1.000  O
  O580     1.0000 0.60520  0.31120  0.89510  Biso   1.000  O
  O581     1.0000 0.61840  0.49200  0.81875  Biso   1.000  O
  O582     1.0000 0.74220  0.46090  0.92812  Biso   1.000  O
  O583     1.0000 0.66050  0.54200  0.85407  Biso   1.000  O
  O584     1.0000 0.57110  0.55990  0.84238  Biso   1.000  O
  O585     1.0000 0.52090  0.41010  0.88700  Biso   1.000  O
  O586     1.0000 0.65920  0.26290  0.93933  Biso   1.000  O
  O587     1.0000 0.75590  0.55650  0.85163  Biso   1.000  O
  O588     1.0000 0.56350  0.46020  0.92204  Biso   1.000  O
  O589     1.0000 0.70380  0.42150  0.96976  Biso   1.000  O
  O590     1.0000 0.59310  0.41830  0.96647  Biso   1.000  O
  O591     1.0000 0.56300  0.36670  0.92641  Biso   1.000  O
  N27      1.0000 0.64500  0.06730  0.07045  Biso   1.000  N
  O592     1.0000 0.50210  0.50220  0.89149  Biso   1.000  O
  O593     1.0000 0.50740  0.31610  0.89416  Biso   1.000  O
  C313     1.0000 0.62690  0.22260  0.97190  Biso   1.000  C
  C314     1.0000 0.66680  0.20410  0.97780  Biso   1.000  C
  H209     1.0000 0.69290  0.21280  0.96940  Biso   1.000  H
  O594     1.0000 0.59300  0.28690  0.95150  Biso   1.000  O
  C315     1.0000 0.62450  0.25670  0.95170  Biso   1.000  C
  C316     1.0000 0.63840  0.13200  0.03280  Biso   1.000  C
  C317     1.0000 0.66970  0.17060  0.99730  Biso   1.000  C
  H210     1.0000 0.69600  0.15340  0.99910  Biso   1.000  H
  C318     1.0000 0.63380  0.16420  0.01290  Biso   1.000  C
  C319     1.0000 0.67190  0.10060  0.03340  Biso   1.000  C
  H211     1.0000 0.69350  0.10050  0.02090  Biso   1.000  H
  C320     1.0000 0.67530  0.06670  0.05310  Biso   1.000  C
  H212     1.0000 0.69850  0.04520  0.05310  Biso   1.000  H
  C321     1.0000 0.59150  0.21550  0.98740  Biso   1.000  C
  H213     1.0000 0.56360  0.22920  0.98430  Biso   1.000  H
  C322     1.0000 0.61600  0.13380  0.05250  Biso   1.000  C
  H214     1.0000 0.59680  0.15840  0.05500  Biso   1.000  H
  C323     1.0000 0.61880  0.09850  0.07160  Biso   1.000  C
  H215     1.0000 0.59960  0.10050  0.08510  Biso   1.000  H
  C324     1.0000 0.59720  0.18670  0.00860  Biso   1.000  C
  H216     1.0000 0.57320  0.18420  0.01970  Biso   1.000  H
  Mo157    1.0000 0.69636  0.41714  0.93969  Biso   1.000  Mo
  Mo158    1.0000 0.72183  0.51159  0.85604  Biso   1.000  Mo
  Mo159    1.0000 0.60686  0.41548  0.93708  Biso   1.000  Mo
  Mo160    1.0000 0.55226  0.35011  0.89073  Biso   1.000  Mo
  Mo161    1.0000 0.54654  0.46646  0.89040  Biso   1.000  Mo
  Mo162    1.0000 0.60558  0.51558  0.84874  Biso   1.000  Mo
  Zn53     1.0000 0.66024  0.31166  0.91526  Biso   1.000  Zn
  Zn54     1.0000 0.64920  0.51438  0.90748  Biso   1.000  Zn
  O595     1.0000 0.19930  0.91060  0.39278  Biso   1.000  O
  O596     1.0000 0.11360  0.90900  0.39035  Biso   1.000  O
  O597     1.0000 0.15160  0.96290  0.43083  Biso   1.000  O
  O598     1.0000 0.15250  0.86820  0.43449  Biso   1.000  O
  O599     1.0000 0.06150  0.96510  0.35411  Biso   1.000  O
  O600     1.0000 0.20820  0.01070  0.39147  Biso   1.000  O
  O601     1.0000 0.09830  0.00990  0.38539  Biso   1.000  O
  O602     1.0000 0.10520  0.81120  0.39510  Biso   1.000  O
  O603     1.0000 0.11840  0.99200  0.31875  Biso   1.000  O
  O604     1.0000 0.24220  0.96090  0.42812  Biso   1.000  O
  O605     1.0000 0.16050  0.04200  0.35407  Biso   1.000  O
  O606     1.0000 0.07110  0.05990  0.34238  Biso   1.000  O
  O607     1.0000 0.02090  0.91010  0.38700  Biso   1.000  O
  O608     1.0000 0.15920  0.76290  0.43933  Biso   1.000  O
  O609     1.0000 0.25590  0.05650  0.35163  Biso   1.000  O
  O610     1.0000 0.06350  0.96020  0.42204  Biso   1.000  O
  O611     1.0000 0.20380  0.92150  0.46976  Biso   1.000  O
  O612     1.0000 0.09310  0.91830  0.46647  Biso   1.000  O
  O613     1.0000 0.06300  0.86670  0.42641  Biso   1.000  O
  N28      1.0000 0.14500  0.56730  0.57045  Biso   1.000  N
  O614     1.0000 0.00210  0.00220  0.39149  Biso   1.000  O
  O615     1.0000 0.00740  0.81610  0.39416  Biso   1.000  O
  C325     1.0000 0.12690  0.72260  0.47190  Biso   1.000  C
  C326     1.0000 0.16680  0.70410  0.47780  Biso   1.000  C
  H217     1.0000 0.19290  0.71280  0.46940  Biso   1.000  H
  O616     1.0000 0.09300  0.78690  0.45150  Biso   1.000  O
  C327     1.0000 0.12450  0.75670  0.45170  Biso   1.000  C
  C328     1.0000 0.13840  0.63200  0.53280  Biso   1.000  C
  C329     1.0000 0.16970  0.67060  0.49730  Biso   1.000  C
  H218     1.0000 0.19600  0.65340  0.49910  Biso   1.000  H
  C330     1.0000 0.13380  0.66420  0.51290  Biso   1.000  C
  C331     1.0000 0.17190  0.60060  0.53340  Biso   1.000  C
  H219     1.0000 0.19350  0.60050  0.52090  Biso   1.000  H
  C332     1.0000 0.17530  0.56670  0.55310  Biso   1.000  C
  H220     1.0000 0.19850  0.54520  0.55310  Biso   1.000  H
  C333     1.0000 0.09150  0.71550  0.48740  Biso   1.000  C
  H221     1.0000 0.06360  0.72920  0.48430  Biso   1.000  H
  C334     1.0000 0.11600  0.63380  0.55250  Biso   1.000  C
  H222     1.0000 0.09680  0.65840  0.55500  Biso   1.000  H
  C335     1.0000 0.11880  0.59850  0.57160  Biso   1.000  C
  H223     1.0000 0.09960  0.60050  0.58510  Biso   1.000  H
  C336     1.0000 0.09720  0.68670  0.50860  Biso   1.000  C
  H224     1.0000 0.07320  0.68420  0.51970  Biso   1.000  H
  Mo163    1.0000 0.19636  0.91714  0.43969  Biso   1.000  Mo
  Mo164    1.0000 0.22183  0.01159  0.35604  Biso   1.000  Mo
  Mo165    1.0000 0.10686  0.91548  0.43708  Biso   1.000  Mo
  Mo166    1.0000 0.05226  0.85011  0.39073  Biso   1.000  Mo
  Mo167    1.0000 0.04654  0.96646  0.39040  Biso   1.000  Mo
  Mo168    1.0000 0.10558  0.01558  0.34874  Biso   1.000  Mo
  Zn55     1.0000 0.16024  0.81166  0.41526  Biso   1.000  Zn
  Zn56     1.0000 0.14920  0.01438  0.40748  Biso   1.000  Zn
  O617     1.0000 0.16060  0.44930  0.64278  Biso   1.000  O
  O618     1.0000 0.15900  0.36360  0.64035  Biso   1.000  O
  O619     1.0000 0.21290  0.40160  0.68083  Biso   1.000  O
  O620     1.0000 0.11820  0.40250  0.68449  Biso   1.000  O
  O621     1.0000 0.21510  0.31150  0.60411  Biso   1.000  O
  O622     1.0000 0.26070  0.45820  0.64147  Biso   1.000  O
  O623     1.0000 0.25990  0.34830  0.63539  Biso   1.000  O
  O624     1.0000 0.06120  0.35520  0.64510  Biso   1.000  O
  O625     1.0000 0.24200  0.36840  0.56875  Biso   1.000  O
  O626     1.0000 0.21090  0.49220  0.67812  Biso   1.000  O
  O627     1.0000 0.29200  0.41050  0.60407  Biso   1.000  O
  O628     1.0000 0.30990  0.32110  0.59238  Biso   1.000  O
  O629     1.0000 0.16010  0.27090  0.63700  Biso   1.000  O
  O630     1.0000 0.01290  0.40920  0.68933  Biso   1.000  O
  O631     1.0000 0.30650  0.50590  0.60163  Biso   1.000  O
  O632     1.0000 0.21020  0.31350  0.67204  Biso   1.000  O
  O633     1.0000 0.17150  0.45380  0.71976  Biso   1.000  O
  O634     1.0000 0.16830  0.34310  0.71647  Biso   1.000  O
  O635     1.0000 0.11670  0.31300  0.67641  Biso   1.000  O
  N29      1.0000 0.81730  0.39500  0.82045  Biso   1.000  N
  O636     1.0000 0.25220  0.25210  0.64149  Biso   1.000  O
  O637     1.0000 0.06610  0.25740  0.64416  Biso   1.000  O
  C337     1.0000 0.97260  0.37690  0.72190  Biso   1.000  C
  C338     1.0000 0.95410  0.41680  0.72780  Biso   1.000  C
  H225     1.0000 0.96280  0.44290  0.71940  Biso   1.000  H
  O638     1.0000 0.03690  0.34300  0.70150  Biso   1.000  O
  C339     1.0000 0.00670  0.37450  0.70170  Biso   1.000  C
  C340     1.0000 0.88200  0.38840  0.78280  Biso   1.000  C
  C341     1.0000 0.92060  0.41970  0.74730  Biso   1.000  C
  H226     1.0000 0.90340  0.44600  0.74910  Biso   1.000  H
  C342     1.0000 0.91420  0.38380  0.76290  Biso   1.000  C
  C343     1.0000 0.85060  0.42190  0.78340  Biso   1.000  C
  H227     1.0000 0.85050  0.44350  0.77090  Biso   1.000  H
  C344     1.0000 0.81670  0.42530  0.80310  Biso   1.000  C
  H228     1.0000 0.79520  0.44850  0.80310  Biso   1.000  H
  C345     1.0000 0.96550  0.34150  0.73740  Biso   1.000  C
  H229     1.0000 0.97920  0.31360  0.73430  Biso   1.000  H
  C346     1.0000 0.88380  0.36600  0.80250  Biso   1.000  C
  H230     1.0000 0.90840  0.34680  0.80500  Biso   1.000  H
  C347     1.0000 0.84850  0.36880  0.82160  Biso   1.000  C
  H231     1.0000 0.85050  0.34960  0.83510  Biso   1.000  H
  C348     1.0000 0.93670  0.34720  0.75860  Biso   1.000  C
  H232     1.0000 0.93420  0.32320  0.76970  Biso   1.000  H
  Mo169    1.0000 0.16714  0.44636  0.68969  Biso   1.000  Mo
  Mo170    1.0000 0.26159  0.47183  0.60604  Biso   1.000  Mo
  Mo171    1.0000 0.16548  0.35686  0.68708  Biso   1.000  Mo
  Mo172    1.0000 0.10011  0.30226  0.64073  Biso   1.000  Mo
  Mo173    1.0000 0.21646  0.29654  0.64040  Biso   1.000  Mo
  Mo174    1.0000 0.26558  0.35558  0.59874  Biso   1.000  Mo
  Zn57     1.0000 0.06166  0.41024  0.66526  Biso   1.000  Zn
  Zn58     1.0000 0.26438  0.39920  0.65748  Biso   1.000  Zn
  O639     1.0000 0.66060  0.94930  0.14278  Biso   1.000  O
  O640     1.0000 0.65900  0.86360  0.14035  Biso   1.000  O
  O641     1.0000 0.71290  0.90160  0.18083  Biso   1.000  O
  O642     1.0000 0.61820  0.90250  0.18449  Biso   1.000  O
  O643     1.0000 0.71510  0.81150  0.10411  Biso   1.000  O
  O644     1.0000 0.76070  0.95820  0.14147  Biso   1.000  O
  O645     1.0000 0.75990  0.84830  0.13539  Biso   1.000  O
  O646     1.0000 0.56120  0.85520  0.14510  Biso   1.000  O
  O647     1.0000 0.74200  0.86840  0.06875  Biso   1.000  O
  O648     1.0000 0.71090  0.99220  0.17812  Biso   1.000  O
  O649     1.0000 0.79200  0.91050  0.10407  Biso   1.000  O
  O650     1.0000 0.80990  0.82110  0.09238  Biso   1.000  O
  O651     1.0000 0.66010  0.77090  0.13700  Biso   1.000  O
  O652     1.0000 0.51290  0.90920  0.18933  Biso   1.000  O
  O653     1.0000 0.80650  0.00590  0.10163  Biso   1.000  O
  O654     1.0000 0.71020  0.81350  0.17204  Biso   1.000  O
  O655     1.0000 0.67150  0.95380  0.21976  Biso   1.000  O
  O656     1.0000 0.66830  0.84310  0.21647  Biso   1.000  O
  O657     1.0000 0.61670  0.81300  0.17641  Biso   1.000  O
  N30      1.0000 0.31730  0.89500  0.32045  Biso   1.000  N
  O658     1.0000 0.75220  0.75210  0.14149  Biso   1.000  O
  O659     1.0000 0.56610  0.75740  0.14416  Biso   1.000  O
  C349     1.0000 0.47260  0.87690  0.22190  Biso   1.000  C
  C350     1.0000 0.45410  0.91680  0.22780  Biso   1.000  C
  H233     1.0000 0.46280  0.94290  0.21940  Biso   1.000  H
  O660     1.0000 0.53690  0.84300  0.20150  Biso   1.000  O
  C351     1.0000 0.50670  0.87450  0.20170  Biso   1.000  C
  C352     1.0000 0.38200  0.88840  0.28280  Biso   1.000  C
  C353     1.0000 0.42060  0.91970  0.24730  Biso   1.000  C
  H234     1.0000 0.40340  0.94600  0.24910  Biso   1.000  H
  C354     1.0000 0.41420  0.88380  0.26290  Biso   1.000  C
  C355     1.0000 0.35060  0.92190  0.28340  Biso   1.000  C
  H235     1.0000 0.35050  0.94350  0.27090  Biso   1.000  H
  C356     1.0000 0.31670  0.92530  0.30310  Biso   1.000  C
  H236     1.0000 0.29520  0.94850  0.30310  Biso   1.000  H
  C357     1.0000 0.46550  0.84150  0.23740  Biso   1.000  C
  H237     1.0000 0.47920  0.81360  0.23430  Biso   1.000  H
  C358     1.0000 0.38380  0.86600  0.30250  Biso   1.000  C
  H238     1.0000 0.40840  0.84680  0.30500  Biso   1.000  H
  C359     1.0000 0.34850  0.86880  0.32160  Biso   1.000  C
  H239     1.0000 0.35050  0.84960  0.33510  Biso   1.000  H
  C360     1.0000 0.43670  0.84720  0.25860  Biso   1.000  C
  H240     1.0000 0.43420  0.82320  0.26970  Biso   1.000  H
  Mo175    1.0000 0.66714  0.94636  0.18969  Biso   1.000  Mo
  Mo176    1.0000 0.76159  0.97183  0.10604  Biso   1.000  Mo
  Mo177    1.0000 0.66548  0.85686  0.18708  Biso   1.000  Mo
  Mo178    1.0000 0.60011  0.80226  0.14073  Biso   1.000  Mo
  Mo179    1.0000 0.71646  0.79654  0.14040  Biso   1.000  Mo
  Mo180    1.0000 0.76558  0.85558  0.09874  Biso   1.000  Mo
  Zn59     1.0000 0.56166  0.91024  0.16526  Biso   1.000  Zn
  Zn60     1.0000 0.76438  0.89920  0.15748  Biso   1.000  Zn
  O661     1.0000 0.19930  0.41060  0.60722  Biso   1.000  O
  O662     1.0000 0.11360  0.40900  0.60965  Biso   1.000  O
  O663     1.0000 0.15160  0.46290  0.56917  Biso   1.000  O
  O664     1.0000 0.15250  0.36820  0.56551  Biso   1.000  O
  O665     1.0000 0.06150  0.46510  0.64589  Biso   1.000  O
  O666     1.0000 0.20820  0.51070  0.60853  Biso   1.000  O
  O667     1.0000 0.09830  0.50990  0.61461  Biso   1.000  O
  O668     1.0000 0.10520  0.31120  0.60490  Biso   1.000  O
  O669     1.0000 0.11840  0.49200  0.68125  Biso   1.000  O
  O670     1.0000 0.24220  0.46090  0.57188  Biso   1.000  O
  O671     1.0000 0.16050  0.54200  0.64593  Biso   1.000  O
  O672     1.0000 0.07110  0.55990  0.65762  Biso   1.000  O
  O673     1.0000 0.02090  0.41010  0.61300  Biso   1.000  O
  O674     1.0000 0.15920  0.26290  0.56067  Biso   1.000  O
  O675     1.0000 0.25590  0.55650  0.64837  Biso   1.000  O
  O676     1.0000 0.06350  0.46020  0.57796  Biso   1.000  O
  O677     1.0000 0.20380  0.42150  0.53024  Biso   1.000  O
  O678     1.0000 0.09310  0.41830  0.53353  Biso   1.000  O
  O679     1.0000 0.06300  0.36670  0.57359  Biso   1.000  O
  N31      1.0000 0.14500  0.06730  0.42955  Biso   1.000  N
  O680     1.0000 0.00210  0.50220  0.60851  Biso   1.000  O
  O681     1.0000 0.00740  0.31610  0.60584  Biso   1.000  O
  C361     1.0000 0.12690  0.22260  0.52810  Biso   1.000  C
  C362     1.0000 0.16680  0.20410  0.52220  Biso   1.000  C
  H241     1.0000 0.19290  0.21280  0.53060  Biso   1.000  H
  O682     1.0000 0.09300  0.28690  0.54850  Biso   1.000  O
  C363     1.0000 0.12450  0.25670  0.54830  Biso   1.000  C
  C364     1.0000 0.13840  0.13200  0.46720  Biso   1.000  C
  C365     1.0000 0.16970  0.17060  0.50270  Biso   1.000  C
  H242     1.0000 0.19600  0.15340  0.50090  Biso   1.000  H
  C366     1.0000 0.13380  0.16420  0.48710  Biso   1.000  C
  C367     1.0000 0.17190  0.10060  0.46660  Biso   1.000  C
  H243     1.0000 0.19350  0.10050  0.47910  Biso   1.000  H
  C368     1.0000 0.17530  0.06670  0.44690  Biso   1.000  C
  H244     1.0000 0.19850  0.04520  0.44690  Biso   1.000  H
  C369     1.0000 0.09150  0.21550  0.51260  Biso   1.000  C
  H245     1.0000 0.06360  0.22920  0.51570  Biso   1.000  H
  C370     1.0000 0.11600  0.13380  0.44750  Biso   1.000  C
  H246     1.0000 0.09680  0.15840  0.44500  Biso   1.000  H
  C371     1.0000 0.11880  0.09850  0.42840  Biso   1.000  C
  H247     1.0000 0.09960  0.10050  0.41490  Biso   1.000  H
  C372     1.0000 0.09720  0.18670  0.49140  Biso   1.000  C
  H248     1.0000 0.07320  0.18420  0.48030  Biso   1.000  H
  Mo181    1.0000 0.19636  0.41714  0.56031  Biso   1.000  Mo
  Mo182    1.0000 0.22183  0.51159  0.64396  Biso   1.000  Mo
  Mo183    1.0000 0.10686  0.41548  0.56292  Biso   1.000  Mo
  Mo184    1.0000 0.05226  0.35011  0.60927  Biso   1.000  Mo
  Mo185    1.0000 0.04654  0.46646  0.60960  Biso   1.000  Mo
  Mo186    1.0000 0.10558  0.51558  0.65126  Biso   1.000  Mo
  Zn61     1.0000 0.16024  0.31166  0.58474  Biso   1.000  Zn
  Zn62     1.0000 0.14920  0.51438  0.59252  Biso   1.000  Zn
  O683     1.0000 0.69930  0.91060  0.10722  Biso   1.000  O
  O684     1.0000 0.61360  0.90900  0.10965  Biso   1.000  O
  O685     1.0000 0.65160  0.96290  0.06917  Biso   1.000  O
  O686     1.0000 0.65250  0.86820  0.06551  Biso   1.000  O
  O687     1.0000 0.56150  0.96510  0.14589  Biso   1.000  O
  O688     1.0000 0.70820  0.01070  0.10853  Biso   1.000  O
  O689     1.0000 0.59830  0.00990  0.11461  Biso   1.000  O
  O690     1.0000 0.60520  0.81120  0.10490  Biso   1.000  O
  O691     1.0000 0.61840  0.99200  0.18125  Biso   1.000  O
  O692     1.0000 0.74220  0.96090  0.07188  Biso   1.000  O
  O693     1.0000 0.66050  0.04200  0.14593  Biso   1.000  O
  O694     1.0000 0.57110  0.05990  0.15762  Biso   1.000  O
  O695     1.0000 0.52090  0.91010  0.11300  Biso   1.000  O
  O696     1.0000 0.65920  0.76290  0.06067  Biso   1.000  O
  O697     1.0000 0.75590  0.05650  0.14837  Biso   1.000  O
  O698     1.0000 0.56350  0.96020  0.07796  Biso   1.000  O
  O699     1.0000 0.70380  0.92150  0.03024  Biso   1.000  O
  O700     1.0000 0.59310  0.91830  0.03353  Biso   1.000  O
  O701     1.0000 0.56300  0.86670  0.07359  Biso   1.000  O
  N32      1.0000 0.64500  0.56730  0.92955  Biso   1.000  N
  O702     1.0000 0.50210  0.00220  0.10851  Biso   1.000  O
  O703     1.0000 0.50740  0.81610  0.10584  Biso   1.000  O
  C373     1.0000 0.62690  0.72260  0.02810  Biso   1.000  C
  C374     1.0000 0.66680  0.70410  0.02220  Biso   1.000  C
  H249     1.0000 0.69290  0.71280  0.03060  Biso   1.000  H
  O704     1.0000 0.59300  0.78690  0.04850  Biso   1.000  O
  C375     1.0000 0.62450  0.75670  0.04830  Biso   1.000  C
  C376     1.0000 0.63840  0.63200  0.96720  Biso   1.000  C
  C377     1.0000 0.66970  0.67060  0.00270  Biso   1.000  C
  H250     1.0000 0.69600  0.65340  0.00090  Biso   1.000  H
  C378     1.0000 0.63380  0.66420  0.98710  Biso   1.000  C
  C379     1.0000 0.67190  0.60060  0.96660  Biso   1.000  C
  H251     1.0000 0.69350  0.60050  0.97910  Biso   1.000  H
  C380     1.0000 0.67530  0.56670  0.94690  Biso   1.000  C
  H252     1.0000 0.69850  0.54520  0.94690  Biso   1.000  H
  C381     1.0000 0.59150  0.71550  0.01260  Biso   1.000  C
  H253     1.0000 0.56360  0.72920  0.01570  Biso   1.000  H
  C382     1.0000 0.61600  0.63380  0.94750  Biso   1.000  C
  H254     1.0000 0.59680  0.65840  0.94500  Biso   1.000  H
  C383     1.0000 0.61880  0.59850  0.92840  Biso   1.000  C
  H255     1.0000 0.59960  0.60050  0.91490  Biso   1.000  H
  C384     1.0000 0.59720  0.68670  0.99140  Biso   1.000  C
  H256     1.0000 0.57320  0.68420  0.98030  Biso   1.000  H
  Mo187    1.0000 0.69636  0.91714  0.06031  Biso   1.000  Mo
  Mo188    1.0000 0.72183  0.01159  0.14396  Biso   1.000  Mo
  Mo189    1.0000 0.60686  0.91548  0.06292  Biso   1.000  Mo
  Mo190    1.0000 0.55226  0.85011  0.10927  Biso   1.000  Mo
  Mo191    1.0000 0.54654  0.96646  0.10960  Biso   1.000  Mo
  Mo192    1.0000 0.60558  0.01558  0.15126  Biso   1.000  Mo
  Zn63     1.0000 0.66024  0.81166  0.08474  Biso   1.000  Zn
  Zn64     1.0000 0.64920  0.01438  0.09252  Biso   1.000  Zn
  P13      1.0000 0.65820  0.40820  0.87500  Biso   1.000  P
  P14      1.0000 0.15820  0.90820  0.37500  Biso   1.000  P
  P15      1.0000 0.15820  0.40820  0.62500  Biso   1.000  P
  P16      1.0000 0.65820  0.90820  0.12500  Biso   1.000  P
