data_image0
_cell_length_a       22.9765
_cell_length_b       22.9765
_cell_length_c       22.9765
_cell_angle_alpha    109.471
_cell_angle_beta     109.471
_cell_angle_gamma    109.471

_symmetry_space_group_name_H-M    P 1
_symmetry_int_tables_number       1

loop_
  _symmetry_equiv_pos_as_xyz
  'x, y, z'

loop_
  _atom_site_label
  _atom_site_occupancy
  _atom_site_fract_x
  _atom_site_fract_y
  _atom_site_fract_z
  _atom_site_thermal_displace_type
  _atom_site_B_iso_or_equiv
  _atom_site_type_symbol
  Zn1      1.0000 0.07264  0.03632  0.28632  Biso   1.000  Zn
  Zn2      1.0000 0.25000  0.78632  0.21368  Biso   1.000  Zn
  Zn3      1.0000 0.25000  0.46368  0.53632  Biso   1.000  Zn
  Zn4      1.0000 0.42736  0.71368  0.96368  Biso   1.000  Zn
  Zn5      1.0000 0.03632  0.25000  0.96368  Biso   1.000  Zn
  Zn6      1.0000 0.46368  0.42736  0.21368  Biso   1.000  Zn
  Zn7      1.0000 0.78632  0.07264  0.53632  Biso   1.000  Zn
  Zn8      1.0000 0.71368  0.25000  0.28632  Biso   1.000  Zn
  Zn9      1.0000 0.78632  0.71368  0.75000  Biso   1.000  Zn
  Zn10     1.0000 0.03632  0.78632  0.57264  Biso   1.000  Zn
  Zn11     1.0000 0.71368  0.46368  0.92736  Biso   1.000  Zn
  Zn12     1.0000 0.46368  0.03632  0.75000  Biso   1.000  Zn
  Zn13     1.0000 0.92736  0.96368  0.71368  Biso   1.000  Zn
  Zn14     1.0000 0.75000  0.21368  0.78632  Biso   1.000  Zn
  Zn15     1.0000 0.75000  0.53632  0.46368  Biso   1.000  Zn
  Zn16     1.0000 0.57264  0.28632  0.03632  Biso   1.000  Zn
  Zn17     1.0000 0.96368  0.75000  0.03632  Biso   1.000  Zn
  Zn18     1.0000 0.53632  0.57264  0.78632  Biso   1.000  Zn
  Zn19     1.0000 0.21368  0.92736  0.46368  Biso   1.000  Zn
  Zn20     1.0000 0.28632  0.75000  0.71368  Biso   1.000  Zn
  Zn21     1.0000 0.21368  0.28632  0.25000  Biso   1.000  Zn
  Zn22     1.0000 0.96368  0.21368  0.42736  Biso   1.000  Zn
  Zn23     1.0000 0.28632  0.53632  0.07264  Biso   1.000  Zn
  Zn24     1.0000 0.53632  0.96368  0.25000  Biso   1.000  Zn
  H1       1.0000 0.23080  0.09970  0.31010  Biso   1.000  H
  H2       1.0000 0.28920  0.20340  0.29840  Biso   1.000  H
  H3       1.0000 0.05510  0.15720  0.17870  Biso   1.000  H
  H4       1.0000 0.02310  0.10520  0.20350  Biso   1.000  H
  H5       1.0000 0.00800  0.20200  0.24420  Biso   1.000  H
  H6       1.0000 0.09220  0.25430  0.28510  Biso   1.000  H
  H7       1.0000 0.05950  0.20100  0.31050  Biso   1.000  H
  H8       1.0000 0.28960  0.92070  0.18990  Biso   1.000  H
  H9       1.0000 0.40500  0.99080  0.20160  Biso   1.000  H
  H10      1.0000 0.47850  0.87640  0.32130  Biso   1.000  H
  H11      1.0000 0.40170  0.81960  0.29650  Biso   1.000  H
  H12      1.0000 0.45780  0.76380  0.25580  Biso   1.000  H
  H13      1.0000 0.46920  0.80710  0.21490  Biso   1.000  H
  H14      1.0000 0.39050  0.74900  0.18950  Biso   1.000  H
  H15      1.0000 0.21040  0.40030  0.63110  Biso   1.000  H
  H16      1.0000 0.09500  0.29660  0.58580  Biso   1.000  H
  H17      1.0000 0.02150  0.34280  0.39790  Biso   1.000  H
  H18      1.0000 0.09830  0.39480  0.41790  Biso   1.000  H
  H19      1.0000 0.04220  0.29800  0.30600  Biso   1.000  H
  H20      1.0000 0.03080  0.24570  0.33790  Biso   1.000  H
  H21      1.0000 0.10950  0.29900  0.35850  Biso   1.000  H
  H22      1.0000 0.26920  0.57930  0.86890  Biso   1.000  H
  H23      1.0000 0.21080  0.50920  0.91420  Biso   1.000  H
  H24      1.0000 0.44490  0.62360  0.10210  Biso   1.000  H
  H25      1.0000 0.47690  0.68040  0.08210  Biso   1.000  H
  H26      1.0000 0.49200  0.73620  0.19400  Biso   1.000  H
  H27      1.0000 0.40780  0.69290  0.16210  Biso   1.000  H
  H28      1.0000 0.44050  0.75100  0.14150  Biso   1.000  H
  H29      1.0000 0.13110  0.21040  0.90030  Biso   1.000  H
  H30      1.0000 0.08580  0.09500  0.79660  Biso   1.000  H
  H31      1.0000 0.89790  0.02150  0.84280  Biso   1.000  H
  H32      1.0000 0.91790  0.09830  0.89480  Biso   1.000  H
  H33      1.0000 0.80600  0.04220  0.79800  Biso   1.000  H
  H34      1.0000 0.83790  0.03080  0.74570  Biso   1.000  H
  H35      1.0000 0.85850  0.10950  0.79900  Biso   1.000  H
  H36      1.0000 0.36890  0.26920  0.07930  Biso   1.000  H
  H37      1.0000 0.41420  0.21080  0.00920  Biso   1.000  H
  H38      1.0000 0.60210  0.44490  0.12360  Biso   1.000  H
  H39      1.0000 0.58210  0.47690  0.18040  Biso   1.000  H
  H40      1.0000 0.69400  0.49200  0.23620  Biso   1.000  H
  H41      1.0000 0.66210  0.40780  0.19290  Biso   1.000  H
  H42      1.0000 0.64150  0.44050  0.25100  Biso   1.000  H
  H43      1.0000 0.81010  0.23080  0.59970  Biso   1.000  H
  H44      1.0000 0.79840  0.28920  0.70340  Biso   1.000  H
  H45      1.0000 0.67870  0.05510  0.65720  Biso   1.000  H
  H46      1.0000 0.70350  0.02310  0.60520  Biso   1.000  H
  H47      1.0000 0.74420  0.00800  0.70200  Biso   1.000  H
  H48      1.0000 0.78510  0.09220  0.75430  Biso   1.000  H
  H49      1.0000 0.81050  0.05950  0.70100  Biso   1.000  H
  H50      1.0000 0.68990  0.28960  0.42070  Biso   1.000  H
  H51      1.0000 0.70160  0.40500  0.49080  Biso   1.000  H
  H52      1.0000 0.82130  0.47850  0.37640  Biso   1.000  H
  H53      1.0000 0.79650  0.40170  0.31960  Biso   1.000  H
  H54      1.0000 0.75580  0.45780  0.26380  Biso   1.000  H
  H55      1.0000 0.71490  0.46920  0.30710  Biso   1.000  H
  H56      1.0000 0.68950  0.39050  0.24900  Biso   1.000  H
  H57      1.0000 0.92070  0.68990  0.78960  Biso   1.000  H
  H58      1.0000 0.99080  0.70160  0.90500  Biso   1.000  H
  H59      1.0000 0.87640  0.82130  0.97850  Biso   1.000  H
  H60      1.0000 0.81960  0.79650  0.90170  Biso   1.000  H
  H61      1.0000 0.76380  0.75580  0.95780  Biso   1.000  H
  H62      1.0000 0.80710  0.71490  0.96920  Biso   1.000  H
  H63      1.0000 0.74900  0.68950  0.89050  Biso   1.000  H
  H64      1.0000 0.09970  0.81010  0.73080  Biso   1.000  H
  H65      1.0000 0.20340  0.79840  0.78920  Biso   1.000  H
  H66      1.0000 0.15720  0.67870  0.55510  Biso   1.000  H
  H67      1.0000 0.10520  0.70350  0.52310  Biso   1.000  H
  H68      1.0000 0.20200  0.74420  0.50800  Biso   1.000  H
  H69      1.0000 0.25430  0.78510  0.59220  Biso   1.000  H
  H70      1.0000 0.20100  0.81050  0.55950  Biso   1.000  H
  H71      1.0000 0.57930  0.36890  0.76920  Biso   1.000  H
  H72      1.0000 0.50920  0.41420  0.71080  Biso   1.000  H
  H73      1.0000 0.62360  0.60210  0.94490  Biso   1.000  H
  H74      1.0000 0.68040  0.58210  0.97690  Biso   1.000  H
  H75      1.0000 0.73620  0.69400  0.99200  Biso   1.000  H
  H76      1.0000 0.69290  0.66210  0.90780  Biso   1.000  H
  H77      1.0000 0.75100  0.64150  0.94050  Biso   1.000  H
  H78      1.0000 0.40030  0.13110  0.71040  Biso   1.000  H
  H79      1.0000 0.29660  0.08580  0.59500  Biso   1.000  H
  H80      1.0000 0.34280  0.89790  0.52150  Biso   1.000  H
  H81      1.0000 0.39480  0.91790  0.59830  Biso   1.000  H
  H82      1.0000 0.29800  0.80600  0.54220  Biso   1.000  H
  H83      1.0000 0.24570  0.83790  0.53080  Biso   1.000  H
  H84      1.0000 0.29900  0.85850  0.60950  Biso   1.000  H
  H85      1.0000 0.40030  0.26920  0.18990  Biso   1.000  H
  H86      1.0000 0.29660  0.21080  0.20160  Biso   1.000  H
  H87      1.0000 0.34280  0.44490  0.32130  Biso   1.000  H
  H88      1.0000 0.39480  0.47690  0.29650  Biso   1.000  H
  H89      1.0000 0.29800  0.49200  0.25580  Biso   1.000  H
  H90      1.0000 0.24570  0.40780  0.21490  Biso   1.000  H
  H91      1.0000 0.29900  0.44050  0.18950  Biso   1.000  H
  H92      1.0000 0.57930  0.21040  0.31010  Biso   1.000  H
  H93      1.0000 0.50920  0.09500  0.29840  Biso   1.000  H
  H94      1.0000 0.62360  0.02150  0.17870  Biso   1.000  H
  H95      1.0000 0.68040  0.09830  0.20350  Biso   1.000  H
  H96      1.0000 0.73620  0.04220  0.24420  Biso   1.000  H
  H97      1.0000 0.69290  0.03080  0.28510  Biso   1.000  H
  H98      1.0000 0.75100  0.10950  0.31050  Biso   1.000  H
  H99      1.0000 0.09970  0.28960  0.86890  Biso   1.000  H
  H100     1.0000 0.20340  0.40500  0.91420  Biso   1.000  H
  H101     1.0000 0.15720  0.47850  0.10210  Biso   1.000  H
  H102     1.0000 0.10520  0.40170  0.08210  Biso   1.000  H
  H103     1.0000 0.20200  0.45780  0.19400  Biso   1.000  H
  H104     1.0000 0.25430  0.46920  0.16210  Biso   1.000  H
  H105     1.0000 0.20100  0.39050  0.14150  Biso   1.000  H
  H106     1.0000 0.92070  0.23080  0.63110  Biso   1.000  H
  H107     1.0000 0.99080  0.28920  0.58580  Biso   1.000  H
  H108     1.0000 0.87640  0.05510  0.39790  Biso   1.000  H
  H109     1.0000 0.81960  0.02310  0.41790  Biso   1.000  H
  H110     1.0000 0.76380  0.00800  0.30600  Biso   1.000  H
  H111     1.0000 0.80710  0.09220  0.33790  Biso   1.000  H
  H112     1.0000 0.74900  0.05950  0.35850  Biso   1.000  H
  H113     1.0000 0.28960  0.36890  0.59970  Biso   1.000  H
  H114     1.0000 0.40500  0.41420  0.70340  Biso   1.000  H
  H115     1.0000 0.47850  0.60210  0.65720  Biso   1.000  H
  H116     1.0000 0.40170  0.58210  0.60520  Biso   1.000  H
  H117     1.0000 0.45780  0.69400  0.70200  Biso   1.000  H
  H118     1.0000 0.46920  0.66210  0.75430  Biso   1.000  H
  H119     1.0000 0.39050  0.64150  0.70100  Biso   1.000  H
  H120     1.0000 0.23080  0.13110  0.42070  Biso   1.000  H
  H121     1.0000 0.28920  0.08580  0.49080  Biso   1.000  H
  H122     1.0000 0.05510  0.89790  0.37640  Biso   1.000  H
  H123     1.0000 0.02310  0.91790  0.31960  Biso   1.000  H
  H124     1.0000 0.00800  0.80600  0.26380  Biso   1.000  H
  H125     1.0000 0.09220  0.83790  0.30710  Biso   1.000  H
  H126     1.0000 0.05950  0.85850  0.24900  Biso   1.000  H
  H127     1.0000 0.26920  0.68990  0.90030  Biso   1.000  H
  H128     1.0000 0.21080  0.70160  0.79660  Biso   1.000  H
  H129     1.0000 0.44490  0.82130  0.84280  Biso   1.000  H
  H130     1.0000 0.47690  0.79650  0.89480  Biso   1.000  H
  H131     1.0000 0.49200  0.75580  0.79800  Biso   1.000  H
  H132     1.0000 0.40780  0.71490  0.74570  Biso   1.000  H
  H133     1.0000 0.44050  0.68950  0.79900  Biso   1.000  H
  H134     1.0000 0.21040  0.81010  0.07930  Biso   1.000  H
  H135     1.0000 0.09500  0.79840  0.00920  Biso   1.000  H
  H136     1.0000 0.02150  0.67870  0.12360  Biso   1.000  H
  H137     1.0000 0.09830  0.70350  0.18040  Biso   1.000  H
  H138     1.0000 0.04220  0.74420  0.23620  Biso   1.000  H
  H139     1.0000 0.03080  0.78510  0.19290  Biso   1.000  H
  H140     1.0000 0.10950  0.81050  0.25100  Biso   1.000  H
  H141     1.0000 0.81010  0.57930  0.71040  Biso   1.000  H
  H142     1.0000 0.79840  0.50920  0.59500  Biso   1.000  H
  H143     1.0000 0.67870  0.62360  0.52150  Biso   1.000  H
  H144     1.0000 0.70350  0.68040  0.59830  Biso   1.000  H
  H145     1.0000 0.74420  0.73620  0.54220  Biso   1.000  H
  H146     1.0000 0.78510  0.69290  0.53080  Biso   1.000  H
  H147     1.0000 0.81050  0.75100  0.60950  Biso   1.000  H
  H148     1.0000 0.68990  0.40030  0.76920  Biso   1.000  H
  H149     1.0000 0.70160  0.29660  0.71080  Biso   1.000  H
  H150     1.0000 0.82130  0.34280  0.94490  Biso   1.000  H
  H151     1.0000 0.79650  0.39480  0.97690  Biso   1.000  H
  H152     1.0000 0.75580  0.29800  0.99200  Biso   1.000  H
  H153     1.0000 0.71490  0.24570  0.90780  Biso   1.000  H
  H154     1.0000 0.68950  0.29900  0.94050  Biso   1.000  H
  H155     1.0000 0.13110  0.92070  0.73080  Biso   1.000  H
  H156     1.0000 0.08580  0.99080  0.78920  Biso   1.000  H
  H157     1.0000 0.89790  0.87640  0.55510  Biso   1.000  H
  H158     1.0000 0.91790  0.81960  0.52310  Biso   1.000  H
  H159     1.0000 0.80600  0.76380  0.50800  Biso   1.000  H
  H160     1.0000 0.83790  0.80710  0.59220  Biso   1.000  H
  H161     1.0000 0.85850  0.74900  0.55950  Biso   1.000  H
  H162     1.0000 0.36890  0.09970  0.78960  Biso   1.000  H
  H163     1.0000 0.41420  0.20340  0.90500  Biso   1.000  H
  H164     1.0000 0.60210  0.15720  0.97850  Biso   1.000  H
  H165     1.0000 0.58210  0.10520  0.90170  Biso   1.000  H
  H166     1.0000 0.69400  0.20200  0.95780  Biso   1.000  H
  H167     1.0000 0.66210  0.25430  0.96920  Biso   1.000  H
  H168     1.0000 0.64150  0.20100  0.89050  Biso   1.000  H
  H169     1.0000 0.76920  0.90030  0.68990  Biso   1.000  H
  H170     1.0000 0.71080  0.79660  0.70160  Biso   1.000  H
  H171     1.0000 0.94490  0.84280  0.82130  Biso   1.000  H
  H172     1.0000 0.97690  0.89480  0.79650  Biso   1.000  H
  H173     1.0000 0.99200  0.79800  0.75580  Biso   1.000  H
  H174     1.0000 0.90780  0.74570  0.71490  Biso   1.000  H
  H175     1.0000 0.94050  0.79900  0.68950  Biso   1.000  H
  H176     1.0000 0.71040  0.07930  0.81010  Biso   1.000  H
  H177     1.0000 0.59500  0.00920  0.79840  Biso   1.000  H
  H178     1.0000 0.52150  0.12360  0.67870  Biso   1.000  H
  H179     1.0000 0.59830  0.18040  0.70350  Biso   1.000  H
  H180     1.0000 0.54220  0.23620  0.74420  Biso   1.000  H
  H181     1.0000 0.53080  0.19290  0.78510  Biso   1.000  H
  H182     1.0000 0.60950  0.25100  0.81050  Biso   1.000  H
  H183     1.0000 0.78960  0.59970  0.36890  Biso   1.000  H
  H184     1.0000 0.90500  0.70340  0.41420  Biso   1.000  H
  H185     1.0000 0.97850  0.65720  0.60210  Biso   1.000  H
  H186     1.0000 0.90170  0.60520  0.58210  Biso   1.000  H
  H187     1.0000 0.95780  0.70200  0.69400  Biso   1.000  H
  H188     1.0000 0.96920  0.75430  0.66210  Biso   1.000  H
  H189     1.0000 0.89050  0.70100  0.64150  Biso   1.000  H
  H190     1.0000 0.73080  0.42070  0.13110  Biso   1.000  H
  H191     1.0000 0.78920  0.49080  0.08580  Biso   1.000  H
  H192     1.0000 0.55510  0.37640  0.89790  Biso   1.000  H
  H193     1.0000 0.52310  0.31960  0.91790  Biso   1.000  H
  H194     1.0000 0.50800  0.26380  0.80600  Biso   1.000  H
  H195     1.0000 0.59220  0.30710  0.83790  Biso   1.000  H
  H196     1.0000 0.55950  0.24900  0.85850  Biso   1.000  H
  H197     1.0000 0.86890  0.78960  0.09970  Biso   1.000  H
  H198     1.0000 0.91420  0.90500  0.20340  Biso   1.000  H
  H199     1.0000 0.10210  0.97850  0.15720  Biso   1.000  H
  H200     1.0000 0.08210  0.90170  0.10520  Biso   1.000  H
  H201     1.0000 0.19400  0.95780  0.20200  Biso   1.000  H
  H202     1.0000 0.16210  0.96920  0.25430  Biso   1.000  H
  H203     1.0000 0.14150  0.89050  0.20100  Biso   1.000  H
  H204     1.0000 0.63110  0.73080  0.92070  Biso   1.000  H
  H205     1.0000 0.58580  0.78920  0.99080  Biso   1.000  H
  H206     1.0000 0.39790  0.55510  0.87640  Biso   1.000  H
  H207     1.0000 0.41790  0.52310  0.81960  Biso   1.000  H
  H208     1.0000 0.30600  0.50800  0.76380  Biso   1.000  H
  H209     1.0000 0.33790  0.59220  0.80710  Biso   1.000  H
  H210     1.0000 0.35850  0.55950  0.74900  Biso   1.000  H
  H211     1.0000 0.18990  0.76920  0.40030  Biso   1.000  H
  H212     1.0000 0.20160  0.71080  0.29660  Biso   1.000  H
  H213     1.0000 0.32130  0.94490  0.34280  Biso   1.000  H
  H214     1.0000 0.29650  0.97690  0.39480  Biso   1.000  H
  H215     1.0000 0.25580  0.99200  0.29800  Biso   1.000  H
  H216     1.0000 0.21490  0.90780  0.24570  Biso   1.000  H
  H217     1.0000 0.18950  0.94050  0.29900  Biso   1.000  H
  H218     1.0000 0.31010  0.71040  0.57930  Biso   1.000  H
  H219     1.0000 0.29840  0.59500  0.50920  Biso   1.000  H
  H220     1.0000 0.17870  0.52150  0.62360  Biso   1.000  H
  H221     1.0000 0.20350  0.59830  0.68040  Biso   1.000  H
  H222     1.0000 0.24420  0.54220  0.73620  Biso   1.000  H
  H223     1.0000 0.28510  0.53080  0.69290  Biso   1.000  H
  H224     1.0000 0.31050  0.60950  0.75100  Biso   1.000  H
  H225     1.0000 0.07930  0.31010  0.21040  Biso   1.000  H
  H226     1.0000 0.00920  0.29840  0.09500  Biso   1.000  H
  H227     1.0000 0.12360  0.17870  0.02150  Biso   1.000  H
  H228     1.0000 0.18040  0.20350  0.09830  Biso   1.000  H
  H229     1.0000 0.23620  0.24420  0.04220  Biso   1.000  H
  H230     1.0000 0.19290  0.28510  0.03080  Biso   1.000  H
  H231     1.0000 0.25100  0.31050  0.10950  Biso   1.000  H
  H232     1.0000 0.90030  0.18990  0.26920  Biso   1.000  H
  H233     1.0000 0.79660  0.20160  0.21080  Biso   1.000  H
  H234     1.0000 0.84280  0.32130  0.44490  Biso   1.000  H
  H235     1.0000 0.89480  0.29650  0.47690  Biso   1.000  H
  H236     1.0000 0.79800  0.25580  0.49200  Biso   1.000  H
  H237     1.0000 0.74570  0.21490  0.40780  Biso   1.000  H
  H238     1.0000 0.79900  0.18950  0.44050  Biso   1.000  H
  H239     1.0000 0.42070  0.63110  0.23080  Biso   1.000  H
  H240     1.0000 0.49080  0.58580  0.28920  Biso   1.000  H
  H241     1.0000 0.37640  0.39790  0.05510  Biso   1.000  H
  H242     1.0000 0.31960  0.41790  0.02310  Biso   1.000  H
  H243     1.0000 0.26380  0.30600  0.00800  Biso   1.000  H
  H244     1.0000 0.30710  0.33790  0.09220  Biso   1.000  H
  H245     1.0000 0.24900  0.35850  0.05950  Biso   1.000  H
  H246     1.0000 0.59970  0.86890  0.28960  Biso   1.000  H
  H247     1.0000 0.70340  0.91420  0.40500  Biso   1.000  H
  H248     1.0000 0.65720  0.10210  0.47850  Biso   1.000  H
  H249     1.0000 0.60520  0.08210  0.40170  Biso   1.000  H
  H250     1.0000 0.70200  0.19400  0.45780  Biso   1.000  H
  H251     1.0000 0.75430  0.16210  0.46920  Biso   1.000  H
  H252     1.0000 0.70100  0.14150  0.39050  Biso   1.000  H
  H253     1.0000 0.59970  0.73080  0.81010  Biso   1.000  H
  H254     1.0000 0.70340  0.78920  0.79840  Biso   1.000  H
  H255     1.0000 0.65720  0.55510  0.67870  Biso   1.000  H
  H256     1.0000 0.60520  0.52310  0.70350  Biso   1.000  H
  H257     1.0000 0.70200  0.50800  0.74420  Biso   1.000  H
  H258     1.0000 0.75430  0.59220  0.78510  Biso   1.000  H
  H259     1.0000 0.70100  0.55950  0.81050  Biso   1.000  H
  H260     1.0000 0.42070  0.78960  0.68990  Biso   1.000  H
  H261     1.0000 0.49080  0.90500  0.70160  Biso   1.000  H
  H262     1.0000 0.37640  0.97850  0.82130  Biso   1.000  H
  H263     1.0000 0.31960  0.90170  0.79650  Biso   1.000  H
  H264     1.0000 0.26380  0.95780  0.75580  Biso   1.000  H
  H265     1.0000 0.30710  0.96920  0.71490  Biso   1.000  H
  H266     1.0000 0.24900  0.89050  0.68950  Biso   1.000  H
  H267     1.0000 0.90030  0.71040  0.13110  Biso   1.000  H
  H268     1.0000 0.79660  0.59500  0.08580  Biso   1.000  H
  H269     1.0000 0.84280  0.52150  0.89790  Biso   1.000  H
  H270     1.0000 0.89480  0.59830  0.91790  Biso   1.000  H
  H271     1.0000 0.79800  0.54220  0.80600  Biso   1.000  H
  H272     1.0000 0.74570  0.53080  0.83790  Biso   1.000  H
  H273     1.0000 0.79900  0.60950  0.85850  Biso   1.000  H
  H274     1.0000 0.07930  0.76920  0.36890  Biso   1.000  H
  H275     1.0000 0.00920  0.71080  0.41420  Biso   1.000  H
  H276     1.0000 0.12360  0.94490  0.60210  Biso   1.000  H
  H277     1.0000 0.18040  0.97690  0.58210  Biso   1.000  H
  H278     1.0000 0.23620  0.99200  0.69400  Biso   1.000  H
  H279     1.0000 0.19290  0.90780  0.66210  Biso   1.000  H
  H280     1.0000 0.25100  0.94050  0.64150  Biso   1.000  H
  H281     1.0000 0.71040  0.63110  0.40030  Biso   1.000  H
  H282     1.0000 0.59500  0.58580  0.29660  Biso   1.000  H
  H283     1.0000 0.52150  0.39790  0.34280  Biso   1.000  H
  H284     1.0000 0.59830  0.41790  0.39480  Biso   1.000  H
  H285     1.0000 0.54220  0.30600  0.29800  Biso   1.000  H
  H286     1.0000 0.53080  0.33790  0.24570  Biso   1.000  H
  H287     1.0000 0.60950  0.35850  0.29900  Biso   1.000  H
  H288     1.0000 0.76920  0.86890  0.57930  Biso   1.000  H
  H289     1.0000 0.71080  0.91420  0.50920  Biso   1.000  H
  H290     1.0000 0.94490  0.10210  0.62360  Biso   1.000  H
  H291     1.0000 0.97690  0.08210  0.68040  Biso   1.000  H
  H292     1.0000 0.99200  0.19400  0.73620  Biso   1.000  H
  H293     1.0000 0.90780  0.16210  0.69290  Biso   1.000  H
  H294     1.0000 0.94050  0.14150  0.75100  Biso   1.000  H
  H295     1.0000 0.73080  0.31010  0.09970  Biso   1.000  H
  H296     1.0000 0.78920  0.29840  0.20340  Biso   1.000  H
  H297     1.0000 0.55510  0.17870  0.15720  Biso   1.000  H
  H298     1.0000 0.52310  0.20350  0.10520  Biso   1.000  H
  H299     1.0000 0.50800  0.24420  0.20200  Biso   1.000  H
  H300     1.0000 0.59220  0.28510  0.25430  Biso   1.000  H
  H301     1.0000 0.55950  0.31050  0.20100  Biso   1.000  H
  H302     1.0000 0.78960  0.18990  0.92070  Biso   1.000  H
  H303     1.0000 0.90500  0.20160  0.99080  Biso   1.000  H
  H304     1.0000 0.97850  0.32130  0.87640  Biso   1.000  H
  H305     1.0000 0.90170  0.29650  0.81960  Biso   1.000  H
  H306     1.0000 0.95780  0.25580  0.76380  Biso   1.000  H
  H307     1.0000 0.96920  0.21490  0.80710  Biso   1.000  H
  H308     1.0000 0.89050  0.18950  0.74900  Biso   1.000  H
  H309     1.0000 0.18990  0.42070  0.28960  Biso   1.000  H
  H310     1.0000 0.20160  0.49080  0.40500  Biso   1.000  H
  H311     1.0000 0.32130  0.37640  0.47850  Biso   1.000  H
  H312     1.0000 0.29650  0.31960  0.40170  Biso   1.000  H
  H313     1.0000 0.25580  0.26380  0.45780  Biso   1.000  H
  H314     1.0000 0.21490  0.30710  0.46920  Biso   1.000  H
  H315     1.0000 0.18950  0.24900  0.39050  Biso   1.000  H
  H316     1.0000 0.31010  0.59970  0.23080  Biso   1.000  H
  H317     1.0000 0.29840  0.70340  0.28920  Biso   1.000  H
  H318     1.0000 0.17870  0.65720  0.05510  Biso   1.000  H
  H319     1.0000 0.20350  0.60520  0.02310  Biso   1.000  H
  H320     1.0000 0.24420  0.70200  0.00800  Biso   1.000  H
  H321     1.0000 0.28510  0.75430  0.09220  Biso   1.000  H
  H322     1.0000 0.31050  0.70100  0.05950  Biso   1.000  H
  H323     1.0000 0.86890  0.07930  0.26920  Biso   1.000  H
  H324     1.0000 0.91420  0.00920  0.21080  Biso   1.000  H
  H325     1.0000 0.10210  0.12360  0.44490  Biso   1.000  H
  H326     1.0000 0.08210  0.18040  0.47690  Biso   1.000  H
  H327     1.0000 0.19400  0.23620  0.49200  Biso   1.000  H
  H328     1.0000 0.16210  0.19290  0.40780  Biso   1.000  H
  H329     1.0000 0.14150  0.25100  0.44050  Biso   1.000  H
  H330     1.0000 0.63110  0.90030  0.21040  Biso   1.000  H
  H331     1.0000 0.58580  0.79660  0.09500  Biso   1.000  H
  H332     1.0000 0.39790  0.84280  0.02150  Biso   1.000  H
  H333     1.0000 0.41790  0.89480  0.09830  Biso   1.000  H
  H334     1.0000 0.30600  0.79800  0.04220  Biso   1.000  H
  H335     1.0000 0.33790  0.74570  0.03080  Biso   1.000  H
  H336     1.0000 0.35850  0.79900  0.10950  Biso   1.000  H
  C1       1.0000 0.20867  0.12355  0.29324  Biso   1.000  C
  C2       1.0000 0.24073  0.18040  0.28649  Biso   1.000  C
  C3       1.0000 0.13056  0.15283  0.25119  Biso   1.000  C
  C4       1.0000 0.06149  0.15169  0.22008  Biso   1.000  C
  C5       1.0000 0.05470  0.20700  0.26910  Biso   1.000  C
  C6       1.0000 0.33031  0.91543  0.20676  Biso   1.000  C
  C7       1.0000 0.39391  0.95424  0.21351  Biso   1.000  C
  C8       1.0000 0.40164  0.87937  0.24881  Biso   1.000  C
  C9       1.0000 0.43161  0.84141  0.27992  Biso   1.000  C
  C10      1.0000 0.43790  0.78560  0.23090  Biso   1.000  C
  C11      1.0000 0.16969  0.37645  0.58512  Biso   1.000  C
  C12      1.0000 0.10609  0.31960  0.56033  Biso   1.000  C
  C13      1.0000 0.09836  0.34717  0.47773  Biso   1.000  C
  C14      1.0000 0.06839  0.34831  0.40980  Biso   1.000  C
  C15      1.0000 0.06210  0.29300  0.34770  Biso   1.000  C
  C16      1.0000 0.29133  0.58457  0.91488  Biso   1.000  C
  C17      1.0000 0.25927  0.54576  0.93967  Biso   1.000  C
  C18      1.0000 0.36944  0.62063  0.02227  Biso   1.000  C
  C19      1.0000 0.43851  0.65859  0.09020  Biso   1.000  C
  C20      1.0000 0.44530  0.71440  0.15230  Biso   1.000  C
  C21      1.0000 0.08512  0.16969  0.87645  Biso   1.000  C
  C22      1.0000 0.06033  0.10609  0.81960  Biso   1.000  C
  C23      1.0000 0.97773  0.09836  0.84717  Biso   1.000  C
  C24      1.0000 0.90980  0.06839  0.84831  Biso   1.000  C
  C25      1.0000 0.84770  0.06210  0.79300  Biso   1.000  C
  C26      1.0000 0.41488  0.29133  0.08457  Biso   1.000  C
  C27      1.0000 0.43967  0.25927  0.04576  Biso   1.000  C
  C28      1.0000 0.52227  0.36944  0.12063  Biso   1.000  C
  C29      1.0000 0.59020  0.43851  0.15859  Biso   1.000  C
  C30      1.0000 0.65230  0.44530  0.21440  Biso   1.000  C
  C31      1.0000 0.79324  0.20867  0.62355  Biso   1.000  C
  C32      1.0000 0.78649  0.24073  0.68040  Biso   1.000  C
  C33      1.0000 0.75119  0.13056  0.65283  Biso   1.000  C
  C34      1.0000 0.72008  0.06149  0.65169  Biso   1.000  C
  C35      1.0000 0.76910  0.05470  0.70700  Biso   1.000  C
  C36      1.0000 0.70676  0.33031  0.41543  Biso   1.000  C
  C37      1.0000 0.71351  0.39391  0.45424  Biso   1.000  C
  C38      1.0000 0.74881  0.40164  0.37937  Biso   1.000  C
  C39      1.0000 0.77992  0.43161  0.34141  Biso   1.000  C
  C40      1.0000 0.73090  0.43790  0.28560  Biso   1.000  C
  C41      1.0000 0.91543  0.70676  0.83031  Biso   1.000  C
  C42      1.0000 0.95424  0.71351  0.89391  Biso   1.000  C
  C43      1.0000 0.87937  0.74881  0.90164  Biso   1.000  C
  C44      1.0000 0.84141  0.77992  0.93161  Biso   1.000  C
  C45      1.0000 0.78560  0.73090  0.93790  Biso   1.000  C
  C46      1.0000 0.12355  0.79324  0.70867  Biso   1.000  C
  C47      1.0000 0.18040  0.78649  0.74073  Biso   1.000  C
  C48      1.0000 0.15283  0.75119  0.63056  Biso   1.000  C
  C49      1.0000 0.15169  0.72008  0.56149  Biso   1.000  C
  C50      1.0000 0.20700  0.76910  0.55470  Biso   1.000  C
  C51      1.0000 0.58457  0.41488  0.79133  Biso   1.000  C
  C52      1.0000 0.54576  0.43967  0.75927  Biso   1.000  C
  C53      1.0000 0.62063  0.52227  0.86944  Biso   1.000  C
  C54      1.0000 0.65859  0.59020  0.93851  Biso   1.000  C
  C55      1.0000 0.71440  0.65230  0.94530  Biso   1.000  C
  C56      1.0000 0.37645  0.08512  0.66969  Biso   1.000  C
  C57      1.0000 0.31960  0.06033  0.60609  Biso   1.000  C
  C58      1.0000 0.34717  0.97773  0.59836  Biso   1.000  C
  C59      1.0000 0.34831  0.90980  0.56839  Biso   1.000  C
  C60      1.0000 0.29300  0.84770  0.56210  Biso   1.000  C
  C61      1.0000 0.37645  0.29133  0.20676  Biso   1.000  C
  C62      1.0000 0.31960  0.25927  0.21351  Biso   1.000  C
  C63      1.0000 0.34717  0.36944  0.24881  Biso   1.000  C
  C64      1.0000 0.34831  0.43851  0.27992  Biso   1.000  C
  C65      1.0000 0.29300  0.44530  0.23090  Biso   1.000  C
  C66      1.0000 0.58457  0.16969  0.29324  Biso   1.000  C
  C67      1.0000 0.54576  0.10609  0.28649  Biso   1.000  C
  C68      1.0000 0.62063  0.09836  0.25119  Biso   1.000  C
  C69      1.0000 0.65859  0.06839  0.22008  Biso   1.000  C
  C70      1.0000 0.71440  0.06210  0.26910  Biso   1.000  C
  C71      1.0000 0.12355  0.33031  0.91488  Biso   1.000  C
  C72      1.0000 0.18040  0.39391  0.93967  Biso   1.000  C
  C73      1.0000 0.15283  0.40164  0.02227  Biso   1.000  C
  C74      1.0000 0.15169  0.43161  0.09020  Biso   1.000  C
  C75      1.0000 0.20700  0.43790  0.15230  Biso   1.000  C
  C76      1.0000 0.91543  0.20867  0.58512  Biso   1.000  C
  C77      1.0000 0.95424  0.24073  0.56033  Biso   1.000  C
  C78      1.0000 0.87937  0.13056  0.47773  Biso   1.000  C
  C79      1.0000 0.84141  0.06149  0.40980  Biso   1.000  C
  C80      1.0000 0.78560  0.05470  0.34770  Biso   1.000  C
  C81      1.0000 0.33031  0.41488  0.62355  Biso   1.000  C
  C82      1.0000 0.39391  0.43967  0.68040  Biso   1.000  C
  C83      1.0000 0.40164  0.52227  0.65283  Biso   1.000  C
  C84      1.0000 0.43161  0.59020  0.65169  Biso   1.000  C
  C85      1.0000 0.43790  0.65230  0.70700  Biso   1.000  C
  C86      1.0000 0.20867  0.08512  0.41543  Biso   1.000  C
  C87      1.0000 0.24073  0.06033  0.45424  Biso   1.000  C
  C88      1.0000 0.13056  0.97773  0.37937  Biso   1.000  C
  C89      1.0000 0.06149  0.90980  0.34141  Biso   1.000  C
  C90      1.0000 0.05470  0.84770  0.28560  Biso   1.000  C
  C91      1.0000 0.29133  0.70676  0.87645  Biso   1.000  C
  C92      1.0000 0.25927  0.71351  0.81960  Biso   1.000  C
  C93      1.0000 0.36944  0.74881  0.84717  Biso   1.000  C
  C94      1.0000 0.43851  0.77992  0.84831  Biso   1.000  C
  C95      1.0000 0.44530  0.73090  0.79300  Biso   1.000  C
  C96      1.0000 0.16969  0.79324  0.08457  Biso   1.000  C
  C97      1.0000 0.10609  0.78649  0.04576  Biso   1.000  C
  C98      1.0000 0.09836  0.75119  0.12063  Biso   1.000  C
  C99      1.0000 0.06839  0.72008  0.15859  Biso   1.000  C
  C100     1.0000 0.06210  0.76910  0.21440  Biso   1.000  C
  C101     1.0000 0.79324  0.58457  0.66969  Biso   1.000  C
  C102     1.0000 0.78649  0.54576  0.60609  Biso   1.000  C
  C103     1.0000 0.75119  0.62063  0.59836  Biso   1.000  C
  C104     1.0000 0.72008  0.65859  0.56839  Biso   1.000  C
  C105     1.0000 0.76910  0.71440  0.56210  Biso   1.000  C
  C106     1.0000 0.70676  0.37645  0.79133  Biso   1.000  C
  C107     1.0000 0.71351  0.31960  0.75927  Biso   1.000  C
  C108     1.0000 0.74881  0.34717  0.86944  Biso   1.000  C
  C109     1.0000 0.77992  0.34831  0.93851  Biso   1.000  C
  C110     1.0000 0.73090  0.29300  0.94530  Biso   1.000  C
  C111     1.0000 0.08512  0.91543  0.70867  Biso   1.000  C
  C112     1.0000 0.06033  0.95424  0.74073  Biso   1.000  C
  C113     1.0000 0.97773  0.87937  0.63056  Biso   1.000  C
  C114     1.0000 0.90980  0.84141  0.56149  Biso   1.000  C
  C115     1.0000 0.84770  0.78560  0.55470  Biso   1.000  C
  C116     1.0000 0.41488  0.12355  0.83031  Biso   1.000  C
  C117     1.0000 0.43967  0.18040  0.89391  Biso   1.000  C
  C118     1.0000 0.52227  0.15283  0.90164  Biso   1.000  C
  C119     1.0000 0.59020  0.15169  0.93161  Biso   1.000  C
  C120     1.0000 0.65230  0.20700  0.93790  Biso   1.000  C
  C121     1.0000 0.79133  0.87645  0.70676  Biso   1.000  C
  C122     1.0000 0.75927  0.81960  0.71351  Biso   1.000  C
  C123     1.0000 0.86944  0.84717  0.74881  Biso   1.000  C
  C124     1.0000 0.93851  0.84831  0.77992  Biso   1.000  C
  C125     1.0000 0.94530  0.79300  0.73090  Biso   1.000  C
  C126     1.0000 0.66969  0.08457  0.79324  Biso   1.000  C
  C127     1.0000 0.60609  0.04576  0.78649  Biso   1.000  C
  C128     1.0000 0.59836  0.12063  0.75119  Biso   1.000  C
  C129     1.0000 0.56839  0.15859  0.72008  Biso   1.000  C
  C130     1.0000 0.56210  0.21440  0.76910  Biso   1.000  C
  C131     1.0000 0.83031  0.62355  0.41488  Biso   1.000  C
  C132     1.0000 0.89391  0.68040  0.43967  Biso   1.000  C
  C133     1.0000 0.90164  0.65283  0.52227  Biso   1.000  C
  C134     1.0000 0.93161  0.65169  0.59020  Biso   1.000  C
  C135     1.0000 0.93790  0.70700  0.65230  Biso   1.000  C
  C136     1.0000 0.70867  0.41543  0.08512  Biso   1.000  C
  C137     1.0000 0.74073  0.45424  0.06033  Biso   1.000  C
  C138     1.0000 0.63056  0.37937  0.97773  Biso   1.000  C
  C139     1.0000 0.56149  0.34141  0.90980  Biso   1.000  C
  C140     1.0000 0.55470  0.28560  0.84770  Biso   1.000  C
  C141     1.0000 0.91488  0.83031  0.12355  Biso   1.000  C
  C142     1.0000 0.93967  0.89391  0.18040  Biso   1.000  C
  C143     1.0000 0.02227  0.90164  0.15283  Biso   1.000  C
  C144     1.0000 0.09020  0.93161  0.15169  Biso   1.000  C
  C145     1.0000 0.15230  0.93790  0.20700  Biso   1.000  C
  C146     1.0000 0.58512  0.70867  0.91543  Biso   1.000  C
  C147     1.0000 0.56033  0.74073  0.95424  Biso   1.000  C
  C148     1.0000 0.47773  0.63056  0.87937  Biso   1.000  C
  C149     1.0000 0.40980  0.56149  0.84141  Biso   1.000  C
  C150     1.0000 0.34770  0.55470  0.78560  Biso   1.000  C
  C151     1.0000 0.20676  0.79133  0.37645  Biso   1.000  C
  C152     1.0000 0.21351  0.75927  0.31960  Biso   1.000  C
  C153     1.0000 0.24881  0.86944  0.34717  Biso   1.000  C
  C154     1.0000 0.27992  0.93851  0.34831  Biso   1.000  C
  C155     1.0000 0.23090  0.94530  0.29300  Biso   1.000  C
  C156     1.0000 0.29324  0.66969  0.58457  Biso   1.000  C
  C157     1.0000 0.28649  0.60609  0.54576  Biso   1.000  C
  C158     1.0000 0.25119  0.59836  0.62063  Biso   1.000  C
  C159     1.0000 0.22008  0.56839  0.65859  Biso   1.000  C
  C160     1.0000 0.26910  0.56210  0.71440  Biso   1.000  C
  C161     1.0000 0.08457  0.29324  0.16969  Biso   1.000  C
  C162     1.0000 0.04576  0.28649  0.10609  Biso   1.000  C
  C163     1.0000 0.12063  0.25119  0.09836  Biso   1.000  C
  C164     1.0000 0.15859  0.22008  0.06839  Biso   1.000  C
  C165     1.0000 0.21440  0.26910  0.06210  Biso   1.000  C
  C166     1.0000 0.87645  0.20676  0.29133  Biso   1.000  C
  C167     1.0000 0.81960  0.21351  0.25927  Biso   1.000  C
  C168     1.0000 0.84717  0.24881  0.36944  Biso   1.000  C
  C169     1.0000 0.84831  0.27992  0.43851  Biso   1.000  C
  C170     1.0000 0.79300  0.23090  0.44530  Biso   1.000  C
  C171     1.0000 0.41543  0.58512  0.20867  Biso   1.000  C
  C172     1.0000 0.45424  0.56033  0.24073  Biso   1.000  C
  C173     1.0000 0.37937  0.47773  0.13056  Biso   1.000  C
  C174     1.0000 0.34141  0.40980  0.06149  Biso   1.000  C
  C175     1.0000 0.28560  0.34770  0.05470  Biso   1.000  C
  C176     1.0000 0.62355  0.91488  0.33031  Biso   1.000  C
  C177     1.0000 0.68040  0.93967  0.39391  Biso   1.000  C
  C178     1.0000 0.65283  0.02227  0.40164  Biso   1.000  C
  C179     1.0000 0.65169  0.09020  0.43161  Biso   1.000  C
  C180     1.0000 0.70700  0.15230  0.43790  Biso   1.000  C
  C181     1.0000 0.62355  0.70867  0.79324  Biso   1.000  C
  C182     1.0000 0.68040  0.74073  0.78649  Biso   1.000  C
  C183     1.0000 0.65283  0.63056  0.75119  Biso   1.000  C
  C184     1.0000 0.65169  0.56149  0.72008  Biso   1.000  C
  C185     1.0000 0.70700  0.55470  0.76910  Biso   1.000  C
  C186     1.0000 0.41543  0.83031  0.70676  Biso   1.000  C
  C187     1.0000 0.45424  0.89391  0.71351  Biso   1.000  C
  C188     1.0000 0.37937  0.90164  0.74881  Biso   1.000  C
  C189     1.0000 0.34141  0.93161  0.77992  Biso   1.000  C
  C190     1.0000 0.28560  0.93790  0.73090  Biso   1.000  C
  C191     1.0000 0.87645  0.66969  0.08512  Biso   1.000  C
  C192     1.0000 0.81960  0.60609  0.06033  Biso   1.000  C
  C193     1.0000 0.84717  0.59836  0.97773  Biso   1.000  C
  C194     1.0000 0.84831  0.56839  0.90980  Biso   1.000  C
  C195     1.0000 0.79300  0.56210  0.84770  Biso   1.000  C
  C196     1.0000 0.08457  0.79133  0.41488  Biso   1.000  C
  C197     1.0000 0.04576  0.75927  0.43967  Biso   1.000  C
  C198     1.0000 0.12063  0.86944  0.52227  Biso   1.000  C
  C199     1.0000 0.15859  0.93851  0.59020  Biso   1.000  C
  C200     1.0000 0.21440  0.94530  0.65230  Biso   1.000  C
  C201     1.0000 0.66969  0.58512  0.37645  Biso   1.000  C
  C202     1.0000 0.60609  0.56033  0.31960  Biso   1.000  C
  C203     1.0000 0.59836  0.47773  0.34717  Biso   1.000  C
  C204     1.0000 0.56839  0.40980  0.34831  Biso   1.000  C
  C205     1.0000 0.56210  0.34770  0.29300  Biso   1.000  C
  C206     1.0000 0.79133  0.91488  0.58457  Biso   1.000  C
  C207     1.0000 0.75927  0.93967  0.54576  Biso   1.000  C
  C208     1.0000 0.86944  0.02227  0.62063  Biso   1.000  C
  C209     1.0000 0.93851  0.09020  0.65859  Biso   1.000  C
  C210     1.0000 0.94530  0.15230  0.71440  Biso   1.000  C
  C211     1.0000 0.70867  0.29324  0.12355  Biso   1.000  C
  C212     1.0000 0.74073  0.28649  0.18040  Biso   1.000  C
  C213     1.0000 0.63056  0.25119  0.15283  Biso   1.000  C
  C214     1.0000 0.56149  0.22008  0.15169  Biso   1.000  C
  C215     1.0000 0.55470  0.26910  0.20700  Biso   1.000  C
  C216     1.0000 0.83031  0.20676  0.91543  Biso   1.000  C
  C217     1.0000 0.89391  0.21351  0.95424  Biso   1.000  C
  C218     1.0000 0.90164  0.24881  0.87937  Biso   1.000  C
  C219     1.0000 0.93161  0.27992  0.84141  Biso   1.000  C
  C220     1.0000 0.93790  0.23090  0.78560  Biso   1.000  C
  C221     1.0000 0.20676  0.41543  0.33031  Biso   1.000  C
  C222     1.0000 0.21351  0.45424  0.39391  Biso   1.000  C
  C223     1.0000 0.24881  0.37937  0.40164  Biso   1.000  C
  C224     1.0000 0.27992  0.34141  0.43161  Biso   1.000  C
  C225     1.0000 0.23090  0.28560  0.43790  Biso   1.000  C
  C226     1.0000 0.29324  0.62355  0.20867  Biso   1.000  C
  C227     1.0000 0.28649  0.68040  0.24073  Biso   1.000  C
  C228     1.0000 0.25119  0.65283  0.13056  Biso   1.000  C
  C229     1.0000 0.22008  0.65169  0.06149  Biso   1.000  C
  C230     1.0000 0.26910  0.70700  0.05470  Biso   1.000  C
  C231     1.0000 0.91488  0.08457  0.29133  Biso   1.000  C
  C232     1.0000 0.93967  0.04576  0.25927  Biso   1.000  C
  C233     1.0000 0.02227  0.12063  0.36944  Biso   1.000  C
  C234     1.0000 0.09020  0.15859  0.43851  Biso   1.000  C
  C235     1.0000 0.15230  0.21440  0.44530  Biso   1.000  C
  C236     1.0000 0.58512  0.87645  0.16969  Biso   1.000  C
  C237     1.0000 0.56033  0.81960  0.10609  Biso   1.000  C
  C238     1.0000 0.47773  0.84717  0.09836  Biso   1.000  C
  C239     1.0000 0.40980  0.84831  0.06839  Biso   1.000  C
  C240     1.0000 0.34770  0.79300  0.06210  Biso   1.000  C
  N1       1.0000 0.13855  0.10612  0.27155  Biso   1.000  N
  N2       1.0000 0.19097  0.19908  0.25943  Biso   1.000  N
  N3       1.0000 0.33457  0.86700  0.22845  Biso   1.000  N
  N4       1.0000 0.43965  0.93154  0.24057  Biso   1.000  N
  N5       1.0000 0.16543  0.39388  0.53243  Biso   1.000  N
  N6       1.0000 0.06035  0.30092  0.49189  Biso   1.000  N
  N7       1.0000 0.36145  0.63300  0.96757  Biso   1.000  N
  N8       1.0000 0.30903  0.56846  0.00811  Biso   1.000  N
  N9       1.0000 0.03243  0.16543  0.89388  Biso   1.000  N
  N10      1.0000 0.99189  0.06035  0.80092  Biso   1.000  N
  N11      1.0000 0.46757  0.36145  0.13300  Biso   1.000  N
  N12      1.0000 0.50811  0.30903  0.06846  Biso   1.000  N
  N13      1.0000 0.77155  0.13855  0.60612  Biso   1.000  N
  N14      1.0000 0.75943  0.19097  0.69908  Biso   1.000  N
  N15      1.0000 0.72845  0.33457  0.36700  Biso   1.000  N
  N16      1.0000 0.74057  0.43965  0.43154  Biso   1.000  N
  N17      1.0000 0.86700  0.72845  0.83457  Biso   1.000  N
  N18      1.0000 0.93154  0.74057  0.93965  Biso   1.000  N
  N19      1.0000 0.10612  0.77155  0.63855  Biso   1.000  N
  N20      1.0000 0.19908  0.75943  0.69097  Biso   1.000  N
  N21      1.0000 0.63300  0.46757  0.86145  Biso   1.000  N
  N22      1.0000 0.56846  0.50811  0.80903  Biso   1.000  N
  N23      1.0000 0.39388  0.03243  0.66543  Biso   1.000  N
  N24      1.0000 0.30092  0.99189  0.56035  Biso   1.000  N
  N25      1.0000 0.39388  0.36145  0.22845  Biso   1.000  N
  N26      1.0000 0.30092  0.30903  0.24057  Biso   1.000  N
  N27      1.0000 0.63300  0.16543  0.27155  Biso   1.000  N
  N28      1.0000 0.56846  0.06035  0.25943  Biso   1.000  N
  N29      1.0000 0.10612  0.33457  0.96757  Biso   1.000  N
  N30      1.0000 0.19908  0.43965  0.00811  Biso   1.000  N
  N31      1.0000 0.86700  0.13855  0.53243  Biso   1.000  N
  N32      1.0000 0.93154  0.19097  0.49189  Biso   1.000  N
  N33      1.0000 0.33457  0.46757  0.60612  Biso   1.000  N
  N34      1.0000 0.43965  0.50811  0.69908  Biso   1.000  N
  N35      1.0000 0.13855  0.03243  0.36700  Biso   1.000  N
  N36      1.0000 0.19097  0.99189  0.43154  Biso   1.000  N
  N37      1.0000 0.36145  0.72845  0.89388  Biso   1.000  N
  N38      1.0000 0.30903  0.74057  0.80092  Biso   1.000  N
  N39      1.0000 0.16543  0.77155  0.13300  Biso   1.000  N
  N40      1.0000 0.06035  0.75943  0.06846  Biso   1.000  N
  N41      1.0000 0.77155  0.63300  0.66543  Biso   1.000  N
  N42      1.0000 0.75943  0.56846  0.56035  Biso   1.000  N
  N43      1.0000 0.72845  0.39388  0.86145  Biso   1.000  N
  N44      1.0000 0.74057  0.30092  0.80903  Biso   1.000  N
  N45      1.0000 0.03243  0.86700  0.63855  Biso   1.000  N
  N46      1.0000 0.99189  0.93154  0.69097  Biso   1.000  N
  N47      1.0000 0.46757  0.10612  0.83457  Biso   1.000  N
  N48      1.0000 0.50811  0.19908  0.93965  Biso   1.000  N
  N49      1.0000 0.86145  0.89388  0.72845  Biso   1.000  N
  N50      1.0000 0.80903  0.80092  0.74057  Biso   1.000  N
  N51      1.0000 0.66543  0.13300  0.77155  Biso   1.000  N
  N52      1.0000 0.56035  0.06846  0.75943  Biso   1.000  N
  N53      1.0000 0.83457  0.60612  0.46757  Biso   1.000  N
  N54      1.0000 0.93965  0.69908  0.50811  Biso   1.000  N
  N55      1.0000 0.63855  0.36700  0.03243  Biso   1.000  N
  N56      1.0000 0.69097  0.43154  0.99189  Biso   1.000  N
  N57      1.0000 0.96757  0.83457  0.10612  Biso   1.000  N
  N58      1.0000 0.00811  0.93965  0.19908  Biso   1.000  N
  N59      1.0000 0.53243  0.63855  0.86700  Biso   1.000  N
  N60      1.0000 0.49189  0.69097  0.93154  Biso   1.000  N
  N61      1.0000 0.22845  0.86145  0.39388  Biso   1.000  N
  N62      1.0000 0.24057  0.80903  0.30092  Biso   1.000  N
  N63      1.0000 0.27155  0.66543  0.63300  Biso   1.000  N
  N64      1.0000 0.25943  0.56035  0.56846  Biso   1.000  N
  N65      1.0000 0.13300  0.27155  0.16543  Biso   1.000  N
  N66      1.0000 0.06846  0.25943  0.06035  Biso   1.000  N
  N67      1.0000 0.89388  0.22845  0.36145  Biso   1.000  N
  N68      1.0000 0.80092  0.24057  0.30903  Biso   1.000  N
  N69      1.0000 0.36700  0.53243  0.13855  Biso   1.000  N
  N70      1.0000 0.43154  0.49189  0.19097  Biso   1.000  N
  N71      1.0000 0.60612  0.96757  0.33457  Biso   1.000  N
  N72      1.0000 0.69908  0.00811  0.43965  Biso   1.000  N
  N73      1.0000 0.60612  0.63855  0.77155  Biso   1.000  N
  N74      1.0000 0.69908  0.69097  0.75943  Biso   1.000  N
  N75      1.0000 0.36700  0.83457  0.72845  Biso   1.000  N
  N76      1.0000 0.43154  0.93965  0.74057  Biso   1.000  N
  N77      1.0000 0.89388  0.66543  0.03243  Biso   1.000  N
  N78      1.0000 0.80092  0.56035  0.99189  Biso   1.000  N
  N79      1.0000 0.13300  0.86145  0.46757  Biso   1.000  N
  N80      1.0000 0.06846  0.80903  0.50811  Biso   1.000  N
  N81      1.0000 0.66543  0.53243  0.39388  Biso   1.000  N
  N82      1.0000 0.56035  0.49189  0.30092  Biso   1.000  N
  N83      1.0000 0.86145  0.96757  0.63300  Biso   1.000  N
  N84      1.0000 0.80903  0.00811  0.56846  Biso   1.000  N
  N85      1.0000 0.63855  0.27155  0.10612  Biso   1.000  N
  N86      1.0000 0.69097  0.25943  0.19908  Biso   1.000  N
  N87      1.0000 0.83457  0.22845  0.86700  Biso   1.000  N
  N88      1.0000 0.93965  0.24057  0.93154  Biso   1.000  N
  N89      1.0000 0.22845  0.36700  0.33457  Biso   1.000  N
  N90      1.0000 0.24057  0.43154  0.43965  Biso   1.000  N
  N91      1.0000 0.27155  0.60612  0.13855  Biso   1.000  N
  N92      1.0000 0.25943  0.69908  0.19097  Biso   1.000  N
  N93      1.0000 0.96757  0.13300  0.36145  Biso   1.000  N
  N94      1.0000 0.00811  0.06846  0.30903  Biso   1.000  N
  N95      1.0000 0.53243  0.89388  0.16543  Biso   1.000  N
  N96      1.0000 0.49189  0.80092  0.06035  Biso   1.000  N
