data_image0
_cell_length_a       17.813
_cell_length_b       29.8909
_cell_length_c       29.8909
_cell_angle_alpha    84.9064
_cell_angle_beta     72.6645
_cell_angle_gamma    72.6646

_symmetry_space_group_name_H-M    P 1
_symmetry_int_tables_number       1

loop_
  _symmetry_equiv_pos_as_xyz
  'x, y, z'

loop_
  _atom_site_label
  _atom_site_occupancy
  _atom_site_fract_x
  _atom_site_fract_y
  _atom_site_fract_z
  _atom_site_thermal_displace_type
  _atom_site_B_iso_or_equiv
  _atom_site_type_symbol
  Mn1      1.0000 0.07886  0.91508  0.35766  Biso   1.000  Mn
  Mn2      1.0000 0.23983  0.87981  0.46933  Biso   1.000  Mn
  Mn3      1.0000 0.20912  0.00521  0.57379  Biso   1.000  Mn
  Mn4      1.0000 0.85160  0.58492  0.14234  Biso   1.000  Mn
  Mn5      1.0000 0.08897  0.62019  0.03067  Biso   1.000  Mn
  Mn6      1.0000 0.28812  0.49479  0.92621  Biso   1.000  Mn
  Mn7      1.0000 0.43652  0.64234  0.41508  Biso   1.000  Mn
  Mn8      1.0000 0.70916  0.53067  0.37981  Biso   1.000  Mn
  Mn9      1.0000 0.78291  0.42621  0.50521  Biso   1.000  Mn
  Mn10     1.0000 0.99394  0.85766  0.08492  Biso   1.000  Mn
  Mn11     1.0000 0.11964  0.96933  0.12019  Biso   1.000  Mn
  Mn12     1.0000 0.21433  0.07379  0.99479  Biso   1.000  Mn
  Mn13     1.0000 0.92114  0.08492  0.64234  Biso   1.000  Mn
  Mn14     1.0000 0.76017  0.12019  0.53067  Biso   1.000  Mn
  Mn15     1.0000 0.79088  0.99479  0.42621  Biso   1.000  Mn
  Mn16     1.0000 0.14840  0.41508  0.85766  Biso   1.000  Mn
  Mn17     1.0000 0.91103  0.37981  0.96933  Biso   1.000  Mn
  Mn18     1.0000 0.71188  0.50521  0.07379  Biso   1.000  Mn
  Mn19     1.0000 0.56348  0.35766  0.58492  Biso   1.000  Mn
  Mn20     1.0000 0.29084  0.46933  0.62019  Biso   1.000  Mn
  Mn21     1.0000 0.21709  0.57379  0.49479  Biso   1.000  Mn
  Mn22     1.0000 0.00606  0.14234  0.91508  Biso   1.000  Mn
  Mn23     1.0000 0.88036  0.03067  0.87981  Biso   1.000  Mn
  Mn24     1.0000 0.78567  0.92621  0.00521  Biso   1.000  Mn
  H1       1.0000 0.25850  0.75370  0.40350  Biso   1.000  H
  H2       1.0000 0.25390  0.69260  0.36380  Biso   1.000  H
  H3       1.0000 0.17400  0.70710  0.31330  Biso   1.000  H
  H4       1.0000 0.09650  0.78240  0.30340  Biso   1.000  H
  H5       1.0000 0.05800  0.01860  0.45840  Biso   1.000  H
  H6       1.0000 0.13990  0.98960  0.46920  Biso   1.000  H
  H7       1.0000 0.14260  0.02190  0.42490  Biso   1.000  H
  H8       1.0000 0.40480  0.33690  0.57510  Biso   1.000  H
  H9       1.0000 0.35160  0.27860  0.56780  Biso   1.000  H
  H10      1.0000 0.55170  0.18660  0.58760  Biso   1.000  H
  H11      1.0000 0.60210  0.24750  0.59010  Biso   1.000  H
  H12      1.0000 0.41930  0.18780  0.52960  Biso   1.000  H
  H13      1.0000 0.46240  0.15540  0.56440  Biso   1.000  H
  H14      1.0000 0.43440  0.98320  0.46400  Biso   1.000  H
  H15      1.0000 0.53760  0.97550  0.39290  Biso   1.000  H
  H16      1.0000 0.53900  0.92510  0.33610  Biso   1.000  H
  H17      1.0000 0.44200  0.88880  0.34760  Biso   1.000  H
  H18      1.0000 0.08160  0.89200  0.61700  Biso   1.000  H
  H19      1.0000 0.07780  0.94490  0.61890  Biso   1.000  H
  H20      1.0000 0.02210  0.93040  0.59440  Biso   1.000  H
  H21      1.0000 0.22830  0.81100  0.55340  Biso   1.000  H
  H22      1.0000 0.42170  0.75060  0.50940  Biso   1.000  H
  H23      1.0000 0.43160  0.73800  0.55980  Biso   1.000  H
  H24      1.0000 0.40310  0.70510  0.53450  Biso   1.000  H
  H25      1.0000 0.31440  0.71640  0.61500  Biso   1.000  H
  H26      1.0000 0.24580  0.76450  0.62470  Biso   1.000  H
  H27      1.0000 0.23950  0.72620  0.59460  Biso   1.000  H
  H28      1.0000 0.97130  0.98710  0.25030  Biso   1.000  H
  H29      1.0000 0.89750  0.03090  0.20170  Biso   1.000  H
  H30      1.0000 0.75880  0.07100  0.23380  Biso   1.000  H
  H31      1.0000 0.69850  0.06750  0.31190  Biso   1.000  H
  H32      1.0000 0.00360  0.87230  0.46310  Biso   1.000  H
  H33      1.0000 0.92010  0.88000  0.50260  Biso   1.000  H
  H34      1.0000 0.97640  0.91220  0.50020  Biso   1.000  H
  H35      1.0000 0.22890  0.06950  0.64630  Biso   1.000  H
  H36      1.0000 0.27560  0.13240  0.65220  Biso   1.000  H
  H37      1.0000 0.36110  0.13140  0.51400  Biso   1.000  H
  H38      1.0000 0.30880  0.07080  0.51100  Biso   1.000  H
  H39      1.0000 0.35140  0.18530  0.62170  Biso   1.000  H
  H40      1.0000 0.30940  0.21140  0.58380  Biso   1.000  H
  H41      1.0000 0.91570  0.74630  0.09650  Biso   1.000  H
  H42      1.0000 0.81030  0.80740  0.13620  Biso   1.000  H
  H43      1.0000 0.69440  0.79290  0.18670  Biso   1.000  H
  H44      1.0000 0.68230  0.71760  0.19660  Biso   1.000  H
  H45      1.0000 0.03500  0.48140  0.04160  Biso   1.000  H
  H46      1.0000 0.09870  0.51040  0.03080  Biso   1.000  H
  H47      1.0000 0.08940  0.47810  0.07510  Biso   1.000  H
  H48      1.0000 0.81680  0.16310  0.92490  Biso   1.000  H
  H49      1.0000 0.69800  0.22140  0.93220  Biso   1.000  H
  H50      1.0000 0.82590  0.31340  0.91240  Biso   1.000  H
  H51      1.0000 0.93970  0.25250  0.90990  Biso   1.000  H
  H52      1.0000 0.63670  0.31220  0.97040  Biso   1.000  H
  H53      1.0000 0.68220  0.34460  0.93560  Biso   1.000  H
  H54      1.0000 0.38160  0.51680  0.03600  Biso   1.000  H
  H55      1.0000 0.40600  0.52450  0.10710  Biso   1.000  H
  H56      1.0000 0.30020  0.57490  0.16390  Biso   1.000  H
  H57      1.0000 0.17840  0.61120  0.15240  Biso   1.000  H
  H58      1.0000 0.09060  0.60800  0.88300  Biso   1.000  H
  H59      1.0000 0.14160  0.55510  0.88110  Biso   1.000  H
  H60      1.0000 0.04690  0.56960  0.90560  Biso   1.000  H
  H61      1.0000 0.09270  0.68900  0.94660  Biso   1.000  H
  H62      1.0000 0.18170  0.74940  0.99060  Biso   1.000  H
  H63      1.0000 0.22940  0.76200  0.94020  Biso   1.000  H
  H64      1.0000 0.14270  0.79490  0.96550  Biso   1.000  H
  H65      1.0000 0.14580  0.78360  0.88500  Biso   1.000  H
  H66      1.0000 0.13500  0.73550  0.87530  Biso   1.000  H
  H67      1.0000 0.06030  0.77380  0.90540  Biso   1.000  H
  H68      1.0000 0.70870  0.51290  0.24970  Biso   1.000  H
  H69      1.0000 0.63010  0.46910  0.29830  Biso   1.000  H
  H70      1.0000 0.56360  0.42900  0.26620  Biso   1.000  H
  H71      1.0000 0.57790  0.43250  0.18810  Biso   1.000  H
  H72      1.0000 0.83900  0.62770  0.03690  Biso   1.000  H
  H73      1.0000 0.80270  0.62000  0.99740  Biso   1.000  H
  H74      1.0000 0.88880  0.58780  0.99980  Biso   1.000  H
  H75      1.0000 0.44470  0.43050  0.85370  Biso   1.000  H
  H76      1.0000 0.56020  0.36760  0.84780  Biso   1.000  H
  H77      1.0000 0.50650  0.36860  0.98600  Biso   1.000  H
  H78      1.0000 0.39060  0.42920  0.98900  Biso   1.000  H
  H79      1.0000 0.65840  0.31470  0.87830  Biso   1.000  H
  H80      1.0000 0.60460  0.28860  0.91620  Biso   1.000  H
  H81      1.0000 0.66200  0.59650  0.25370  Biso   1.000  H
  H82      1.0000 0.61770  0.63620  0.19260  Biso   1.000  H
  H83      1.0000 0.48730  0.68670  0.20710  Biso   1.000  H
  H84      1.0000 0.39990  0.69660  0.28240  Biso   1.000  H
  H85      1.0000 0.51640  0.54160  0.51860  Biso   1.000  H
  H86      1.0000 0.60910  0.53080  0.48960  Biso   1.000  H
  H87      1.0000 0.56750  0.57510  0.52190  Biso   1.000  H
  H88      1.0000 0.97990  0.42490  0.83690  Biso   1.000  H
  H89      1.0000 0.91940  0.43220  0.77860  Biso   1.000  H
  H90      1.0000 0.13930  0.41240  0.68660  Biso   1.000  H
  H91      1.0000 0.19220  0.40990  0.74750  Biso   1.000  H
  H92      1.0000 0.94890  0.47040  0.68780  Biso   1.000  H
  H93      1.0000 0.02680  0.43560  0.65540  Biso   1.000  H
  H94      1.0000 0.89840  0.53600  0.48320  Biso   1.000  H
  H95      1.0000 0.93050  0.60710  0.47550  Biso   1.000  H
  H96      1.0000 0.87510  0.66390  0.42510  Biso   1.000  H
  H97      1.0000 0.78960  0.65240  0.38880  Biso   1.000  H
  H98      1.0000 0.69860  0.38300  0.39200  Biso   1.000  H
  H99      1.0000 0.69670  0.38110  0.44490  Biso   1.000  H
  H100     1.0000 0.61650  0.40560  0.43040  Biso   1.000  H
  H101     1.0000 0.78170  0.44660  0.31100  Biso   1.000  H
  H102     1.0000 0.93110  0.49060  0.25060  Biso   1.000  H
  H103     1.0000 0.99140  0.44020  0.23800  Biso   1.000  H
  H104     1.0000 0.93760  0.46550  0.20510  Biso   1.000  H
  H105     1.0000 0.92940  0.38500  0.21640  Biso   1.000  H
  H106     1.0000 0.87050  0.37530  0.26450  Biso   1.000  H
  H107     1.0000 0.83410  0.40540  0.22620  Biso   1.000  H
  H108     1.0000 0.22160  0.74970  0.48710  Biso   1.000  H
  H109     1.0000 0.09920  0.79830  0.53090  Biso   1.000  H
  H110     1.0000 0.99260  0.76620  0.57100  Biso   1.000  H
  H111     1.0000 0.01040  0.68810  0.56750  Biso   1.000  H
  H112     1.0000 0.46670  0.53690  0.37230  Biso   1.000  H
  H113     1.0000 0.42270  0.49740  0.38000  Biso   1.000  H
  H114     1.0000 0.47660  0.49980  0.41220  Biso   1.000  H
  H115     1.0000 0.87520  0.35370  0.56950  Biso   1.000  H
  H116     1.0000 0.92780  0.34780  0.63240  Biso   1.000  H
  H117     1.0000 0.87510  0.48600  0.63140  Biso   1.000  H
  H118     1.0000 0.81980  0.48900  0.57080  Biso   1.000  H
  H119     1.0000 0.97310  0.37830  0.68530  Biso   1.000  H
  H120     1.0000 0.89320  0.41620  0.71140  Biso   1.000  H
  H121     1.0000 0.01220  0.90350  0.24630  Biso   1.000  H
  H122     1.0000 0.94650  0.86380  0.30740  Biso   1.000  H
  H123     1.0000 0.88110  0.81330  0.29290  Biso   1.000  H
  H124     1.0000 0.87890  0.80340  0.21760  Biso   1.000  H
  H125     1.0000 0.07660  0.95840  0.98140  Biso   1.000  H
  H126     1.0000 0.12950  0.96920  0.01040  Biso   1.000  H
  H127     1.0000 0.16450  0.92490  0.97810  Biso   1.000  H
  H128     1.0000 0.74170  0.07510  0.66310  Biso   1.000  H
  H129     1.0000 0.63020  0.06780  0.72140  Biso   1.000  H
  H130     1.0000 0.73830  0.08760  0.81340  Biso   1.000  H
  H131     1.0000 0.84960  0.09010  0.75250  Biso   1.000  H
  H132     1.0000 0.60710  0.02960  0.81220  Biso   1.000  H
  H133     1.0000 0.61780  0.06440  0.84460  Biso   1.000  H
  H134     1.0000 0.41760  0.96400  0.01680  Biso   1.000  H
  H135     1.0000 0.51310  0.89290  0.02450  Biso   1.000  H
  H136     1.0000 0.46410  0.83610  0.07490  Biso   1.000  H
  H137     1.0000 0.33080  0.84760  0.11120  Biso   1.000  H
  H138     1.0000 0.97360  0.11700  0.10800  Biso   1.000  H
  H139     1.0000 0.02270  0.11890  0.05510  Biso   1.000  H
  H140     1.0000 0.95250  0.09440  0.06960  Biso   1.000  H
  H141     1.0000 0.03930  0.05340  0.18900  Biso   1.000  H
  H142     1.0000 0.17230  0.00940  0.24940  Biso   1.000  H
  H143     1.0000 0.16960  0.05980  0.26200  Biso   1.000  H
  H144     1.0000 0.10820  0.03450  0.29490  Biso   1.000  H
  H145     1.0000 0.03080  0.11500  0.28360  Biso   1.000  H
  H146     1.0000 0.01030  0.12470  0.23550  Biso   1.000  H
  H147     1.0000 0.96570  0.09460  0.27380  Biso   1.000  H
  H148     1.0000 0.95840  0.75030  0.01290  Biso   1.000  H
  H149     1.0000 0.92840  0.70170  0.96910  Biso   1.000  H
  H150     1.0000 0.82980  0.73380  0.92900  Biso   1.000  H
  H151     1.0000 0.76600  0.81190  0.93250  Biso   1.000  H
  H152     1.0000 0.87590  0.96310  0.12770  Biso   1.000  H
  H153     1.0000 0.80010  0.00260  0.12000  Biso   1.000  H
  H154     1.0000 0.88860  0.00020  0.08780  Biso   1.000  H
  H155     1.0000 0.29840  0.14630  0.93050  Biso   1.000  H
  H156     1.0000 0.40800  0.15220  0.86760  Biso   1.000  H
  H157     1.0000 0.49250  0.01400  0.86860  Biso   1.000  H
  H158     1.0000 0.37960  0.01100  0.92920  Biso   1.000  H
  H159     1.0000 0.53670  0.12170  0.81470  Biso   1.000  H
  H160     1.0000 0.52080  0.08380  0.78860  Biso   1.000  H
  H161     1.0000 0.74150  0.24630  0.59650  Biso   1.000  H
  H162     1.0000 0.74610  0.30740  0.63620  Biso   1.000  H
  H163     1.0000 0.82600  0.29290  0.68670  Biso   1.000  H
  H164     1.0000 0.90350  0.21760  0.69660  Biso   1.000  H
  H165     1.0000 0.94200  0.98140  0.54160  Biso   1.000  H
  H166     1.0000 0.86010  0.01040  0.53080  Biso   1.000  H
  H167     1.0000 0.85740  0.97810  0.57510  Biso   1.000  H
  H168     1.0000 0.59520  0.66310  0.42490  Biso   1.000  H
  H169     1.0000 0.64840  0.72140  0.43220  Biso   1.000  H
  H170     1.0000 0.44830  0.81340  0.41240  Biso   1.000  H
  H171     1.0000 0.39790  0.75250  0.40990  Biso   1.000  H
  H172     1.0000 0.58070  0.81220  0.47040  Biso   1.000  H
  H173     1.0000 0.53760  0.84460  0.43560  Biso   1.000  H
  H174     1.0000 0.56560  0.01680  0.53600  Biso   1.000  H
  H175     1.0000 0.46240  0.02450  0.60710  Biso   1.000  H
  H176     1.0000 0.46100  0.07490  0.66390  Biso   1.000  H
  H177     1.0000 0.55800  0.11120  0.65240  Biso   1.000  H
  H178     1.0000 0.91840  0.10800  0.38300  Biso   1.000  H
  H179     1.0000 0.92220  0.05510  0.38110  Biso   1.000  H
  H180     1.0000 0.97790  0.06960  0.40560  Biso   1.000  H
  H181     1.0000 0.77170  0.18900  0.44660  Biso   1.000  H
  H182     1.0000 0.57830  0.24940  0.49060  Biso   1.000  H
  H183     1.0000 0.56840  0.26200  0.44020  Biso   1.000  H
  H184     1.0000 0.59690  0.29490  0.46550  Biso   1.000  H
  H185     1.0000 0.68560  0.28360  0.38500  Biso   1.000  H
  H186     1.0000 0.75420  0.23550  0.37530  Biso   1.000  H
  H187     1.0000 0.76050  0.27380  0.40540  Biso   1.000  H
  H188     1.0000 0.02870  0.01290  0.74970  Biso   1.000  H
  H189     1.0000 0.10250  0.96910  0.79830  Biso   1.000  H
  H190     1.0000 0.24120  0.92900  0.76620  Biso   1.000  H
  H191     1.0000 0.30150  0.93250  0.68810  Biso   1.000  H
  H192     1.0000 0.99640  0.12770  0.53690  Biso   1.000  H
  H193     1.0000 0.07990  0.12000  0.49740  Biso   1.000  H
  H194     1.0000 0.02360  0.08780  0.49980  Biso   1.000  H
  H195     1.0000 0.77110  0.93050  0.35370  Biso   1.000  H
  H196     1.0000 0.72440  0.86760  0.34780  Biso   1.000  H
  H197     1.0000 0.63890  0.86860  0.48600  Biso   1.000  H
  H198     1.0000 0.69120  0.92920  0.48900  Biso   1.000  H
  H199     1.0000 0.64860  0.81470  0.37830  Biso   1.000  H
  H200     1.0000 0.69060  0.78860  0.41620  Biso   1.000  H
  H201     1.0000 0.08430  0.25370  0.90350  Biso   1.000  H
  H202     1.0000 0.18970  0.19260  0.86380  Biso   1.000  H
  H203     1.0000 0.30560  0.20710  0.81330  Biso   1.000  H
  H204     1.0000 0.31770  0.28240  0.80340  Biso   1.000  H
  H205     1.0000 0.96500  0.51860  0.95840  Biso   1.000  H
  H206     1.0000 0.90130  0.48960  0.96920  Biso   1.000  H
  H207     1.0000 0.91060  0.52190  0.92490  Biso   1.000  H
  H208     1.0000 0.18320  0.83690  0.07510  Biso   1.000  H
  H209     1.0000 0.30200  0.77860  0.06780  Biso   1.000  H
  H210     1.0000 0.17410  0.68660  0.08760  Biso   1.000  H
  H211     1.0000 0.06030  0.74750  0.09010  Biso   1.000  H
  H212     1.0000 0.36330  0.68780  0.02960  Biso   1.000  H
  H213     1.0000 0.31780  0.65540  0.06440  Biso   1.000  H
  H214     1.0000 0.61840  0.48320  0.96400  Biso   1.000  H
  H215     1.0000 0.59400  0.47550  0.89290  Biso   1.000  H
  H216     1.0000 0.69980  0.42510  0.83610  Biso   1.000  H
  H217     1.0000 0.82160  0.38880  0.84760  Biso   1.000  H
  H218     1.0000 0.90940  0.39200  0.11700  Biso   1.000  H
  H219     1.0000 0.85840  0.44490  0.11890  Biso   1.000  H
  H220     1.0000 0.95310  0.43040  0.09440  Biso   1.000  H
  H221     1.0000 0.90730  0.31100  0.05340  Biso   1.000  H
  H222     1.0000 0.81830  0.25060  0.00940  Biso   1.000  H
  H223     1.0000 0.77060  0.23800  0.05980  Biso   1.000  H
  H224     1.0000 0.85730  0.20510  0.03450  Biso   1.000  H
  H225     1.0000 0.85420  0.21640  0.11500  Biso   1.000  H
  H226     1.0000 0.86500  0.26450  0.12470  Biso   1.000  H
  H227     1.0000 0.93970  0.22620  0.09460  Biso   1.000  H
  H228     1.0000 0.29130  0.48710  0.75030  Biso   1.000  H
  H229     1.0000 0.36990  0.53090  0.70170  Biso   1.000  H
  H230     1.0000 0.43640  0.57100  0.73380  Biso   1.000  H
  H231     1.0000 0.42210  0.56750  0.81190  Biso   1.000  H
  H232     1.0000 0.16100  0.37230  0.96310  Biso   1.000  H
  H233     1.0000 0.19730  0.38000  0.00260  Biso   1.000  H
  H234     1.0000 0.11120  0.41220  0.00020  Biso   1.000  H
  H235     1.0000 0.55530  0.56950  0.14630  Biso   1.000  H
  H236     1.0000 0.43980  0.63240  0.15220  Biso   1.000  H
  H237     1.0000 0.49350  0.63140  0.01400  Biso   1.000  H
  H238     1.0000 0.60940  0.57080  0.01100  Biso   1.000  H
  H239     1.0000 0.34160  0.68530  0.12170  Biso   1.000  H
  H240     1.0000 0.39540  0.71140  0.08380  Biso   1.000  H
  H241     1.0000 0.33800  0.40350  0.74630  Biso   1.000  H
  H242     1.0000 0.38230  0.36380  0.80740  Biso   1.000  H
  H243     1.0000 0.51270  0.31330  0.79290  Biso   1.000  H
  H244     1.0000 0.60010  0.30340  0.71760  Biso   1.000  H
  H245     1.0000 0.48360  0.45840  0.48140  Biso   1.000  H
  H246     1.0000 0.39090  0.46920  0.51040  Biso   1.000  H
  H247     1.0000 0.43250  0.42490  0.47810  Biso   1.000  H
  H248     1.0000 0.02010  0.57510  0.16310  Biso   1.000  H
  H249     1.0000 0.08060  0.56780  0.22140  Biso   1.000  H
  H250     1.0000 0.86070  0.58760  0.31340  Biso   1.000  H
  H251     1.0000 0.80780  0.59010  0.25250  Biso   1.000  H
  H252     1.0000 0.05110  0.52960  0.31220  Biso   1.000  H
  H253     1.0000 0.97320  0.56440  0.34460  Biso   1.000  H
  H254     1.0000 0.10160  0.46400  0.51680  Biso   1.000  H
  H255     1.0000 0.06950  0.39290  0.52450  Biso   1.000  H
  H256     1.0000 0.12490  0.33610  0.57490  Biso   1.000  H
  H257     1.0000 0.21040  0.34760  0.61120  Biso   1.000  H
  H258     1.0000 0.30140  0.61700  0.60800  Biso   1.000  H
  H259     1.0000 0.30330  0.61890  0.55510  Biso   1.000  H
  H260     1.0000 0.38350  0.59440  0.56960  Biso   1.000  H
  H261     1.0000 0.21830  0.55340  0.68900  Biso   1.000  H
  H262     1.0000 0.06890  0.50940  0.74940  Biso   1.000  H
  H263     1.0000 0.00860  0.55980  0.76200  Biso   1.000  H
  H264     1.0000 0.06240  0.53450  0.79490  Biso   1.000  H
  H265     1.0000 0.07060  0.61500  0.78360  Biso   1.000  H
  H266     1.0000 0.12950  0.62470  0.73550  Biso   1.000  H
  H267     1.0000 0.16590  0.59460  0.77380  Biso   1.000  H
  H268     1.0000 0.77840  0.25030  0.51290  Biso   1.000  H
  H269     1.0000 0.90080  0.20170  0.46910  Biso   1.000  H
  H270     1.0000 0.00740  0.23380  0.42900  Biso   1.000  H
  H271     1.0000 0.98960  0.31190  0.43250  Biso   1.000  H
  H272     1.0000 0.53330  0.46310  0.62770  Biso   1.000  H
  H273     1.0000 0.57730  0.50260  0.62000  Biso   1.000  H
  H274     1.0000 0.52340  0.50020  0.58780  Biso   1.000  H
  H275     1.0000 0.12480  0.64630  0.43050  Biso   1.000  H
  H276     1.0000 0.07220  0.65220  0.36760  Biso   1.000  H
  H277     1.0000 0.12490  0.51400  0.36860  Biso   1.000  H
  H278     1.0000 0.18020  0.51100  0.42920  Biso   1.000  H
  H279     1.0000 0.02690  0.62170  0.31470  Biso   1.000  H
  H280     1.0000 0.10680  0.58380  0.28860  Biso   1.000  H
  H281     1.0000 0.98780  0.09650  0.75370  Biso   1.000  H
  H282     1.0000 0.05350  0.13620  0.69260  Biso   1.000  H
  H283     1.0000 0.11890  0.18670  0.70710  Biso   1.000  H
  H284     1.0000 0.12110  0.19660  0.78240  Biso   1.000  H
  H285     1.0000 0.92340  0.04160  0.01860  Biso   1.000  H
  H286     1.0000 0.87050  0.03080  0.98960  Biso   1.000  H
  H287     1.0000 0.83550  0.07510  0.02190  Biso   1.000  H
  H288     1.0000 0.25830  0.92490  0.33690  Biso   1.000  H
  H289     1.0000 0.36980  0.93220  0.27860  Biso   1.000  H
  H290     1.0000 0.26170  0.91240  0.18660  Biso   1.000  H
  H291     1.0000 0.15040  0.90990  0.24750  Biso   1.000  H
  H292     1.0000 0.39290  0.97040  0.18780  Biso   1.000  H
  H293     1.0000 0.38220  0.93560  0.15540  Biso   1.000  H
  H294     1.0000 0.58240  0.03600  0.98320  Biso   1.000  H
  H295     1.0000 0.48690  0.10710  0.97550  Biso   1.000  H
  H296     1.0000 0.53590  0.16390  0.92510  Biso   1.000  H
  H297     1.0000 0.66920  0.15240  0.88880  Biso   1.000  H
  H298     1.0000 0.02640  0.88300  0.89200  Biso   1.000  H
  H299     1.0000 0.97730  0.88110  0.94490  Biso   1.000  H
  H300     1.0000 0.04750  0.90560  0.93040  Biso   1.000  H
  H301     1.0000 0.96070  0.94660  0.81100  Biso   1.000  H
  H302     1.0000 0.82770  0.99060  0.75060  Biso   1.000  H
  H303     1.0000 0.83040  0.94020  0.73800  Biso   1.000  H
  H304     1.0000 0.89180  0.96550  0.70510  Biso   1.000  H
  H305     1.0000 0.96920  0.88500  0.71640  Biso   1.000  H
  H306     1.0000 0.98970  0.87530  0.76450  Biso   1.000  H
  H307     1.0000 0.03430  0.90540  0.72620  Biso   1.000  H
  H308     1.0000 0.04160  0.24970  0.98710  Biso   1.000  H
  H309     1.0000 0.07160  0.29830  0.03090  Biso   1.000  H
  H310     1.0000 0.17020  0.26620  0.07100  Biso   1.000  H
  H311     1.0000 0.23400  0.18810  0.06750  Biso   1.000  H
  H312     1.0000 0.12410  0.03690  0.87230  Biso   1.000  H
  H313     1.0000 0.19990  0.99740  0.88000  Biso   1.000  H
  H314     1.0000 0.11140  0.99980  0.91220  Biso   1.000  H
  H315     1.0000 0.70160  0.85370  0.06950  Biso   1.000  H
  H316     1.0000 0.59200  0.84780  0.13240  Biso   1.000  H
  H317     1.0000 0.50750  0.98600  0.13140  Biso   1.000  H
  H318     1.0000 0.62040  0.98900  0.07080  Biso   1.000  H
  H319     1.0000 0.46330  0.87830  0.18530  Biso   1.000  H
  H320     1.0000 0.47920  0.91620  0.21140  Biso   1.000  H
  C1       1.0000 0.12880  0.81410  0.34770  Biso   1.000  C
  C2       1.0000 0.17780  0.80560  0.37880  Biso   1.000  C
  C3       1.0000 0.22510  0.75950  0.38370  Biso   1.000  C
  C4       1.0000 0.22300  0.72300  0.35980  Biso   1.000  C
  C5       1.0000 0.17520  0.73170  0.32990  Biso   1.000  C
  C6       1.0000 0.12850  0.77710  0.32390  Biso   1.000  C
  C7       1.0000 0.18220  0.84190  0.40650  Biso   1.000  C
  C8       1.0000 0.11830  0.96170  0.41670  Biso   1.000  C
  C9       1.0000 0.11440  0.00140  0.44480  Biso   1.000  C
  C10      1.0000 0.43600  0.30610  0.57650  Biso   1.000  C
  C11      1.0000 0.40370  0.27110  0.57190  Biso   1.000  C
  C12      1.0000 0.44820  0.22510  0.57330  Biso   1.000  C
  C13      1.0000 0.52160  0.21700  0.58300  Biso   1.000  C
  C14      1.0000 0.55020  0.25420  0.58580  Biso   1.000  C
  C15      1.0000 0.42190  0.18470  0.56170  Biso   1.000  C
  C16      1.0000 0.37940  0.91060  0.41460  Biso   1.000  C
  C17      1.0000 0.37460  0.94150  0.44870  Biso   1.000  C
  C18      1.0000 0.43560  0.96420  0.44060  Biso   1.000  C
  C19      1.0000 0.49800  0.95960  0.39840  Biso   1.000  C
  C20      1.0000 0.49780  0.92940  0.36440  Biso   1.000  C
  C21      1.0000 0.44110  0.90710  0.37150  Biso   1.000  C
  C22      1.0000 0.31070  0.95060  0.49300  Biso   1.000  C
  C23      1.0000 0.14220  0.91570  0.55390  Biso   1.000  C
  C24      1.0000 0.07470  0.92130  0.60030  Biso   1.000  C
  C25      1.0000 0.28410  0.79920  0.53880  Biso   1.000  C
  C26      1.0000 0.40000  0.73710  0.53910  Biso   1.000  C
  C27      1.0000 0.27690  0.74000  0.60220  Biso   1.000  C
  C28      1.0000 0.79800  0.02600  0.33120  Biso   1.000  C
  C29      1.0000 0.88220  0.00090  0.31070  Biso   1.000  C
  C30      1.0000 0.91650  0.00350  0.26310  Biso   1.000  C
  C31      1.0000 0.87250  0.02950  0.23370  Biso   1.000  C
  C32      1.0000 0.78950  0.05360  0.25300  Biso   1.000  C
  C33      1.0000 0.75380  0.05160  0.29980  Biso   1.000  C
  C34      1.0000 0.93170  0.97120  0.33900  Biso   1.000  C
  C35      1.0000 0.91480  0.92880  0.45100  Biso   1.000  C
  C36      1.0000 0.95750  0.89530  0.48210  Biso   1.000  C
  C37      1.0000 0.25690  0.08170  0.61890  Biso   1.000  C
  C38      1.0000 0.28480  0.12020  0.62280  Biso   1.000  C
  C39      1.0000 0.32480  0.13900  0.58400  Biso   1.000  C
  C40      1.0000 0.33400  0.11940  0.54180  Biso   1.000  C
  C41      1.0000 0.30390  0.08200  0.54020  Biso   1.000  C
  C42      1.0000 0.35070  0.18370  0.58950  Biso   1.000  C
  C43      1.0000 0.79060  0.68590  0.15230  Biso   1.000  C
  C44      1.0000 0.86220  0.69440  0.12120  Biso   1.000  C
  C45      1.0000 0.86830  0.74050  0.11630  Biso   1.000  C
  C46      1.0000 0.80580  0.77700  0.14020  Biso   1.000  C
  C47      1.0000 0.73680  0.76830  0.17010  Biso   1.000  C
  C48      1.0000 0.72950  0.72290  0.17610  Biso   1.000  C
  C49      1.0000 0.93060  0.65810  0.09350  Biso   1.000  C
  C50      1.0000 0.99670  0.53830  0.08330  Biso   1.000  C
  C51      1.0000 0.06060  0.49860  0.05520  Biso   1.000  C
  C52      1.0000 0.81860  0.19390  0.92350  Biso   1.000  C
  C53      1.0000 0.74670  0.22890  0.92810  Biso   1.000  C
  C54      1.0000 0.74660  0.27490  0.92670  Biso   1.000  C
  C55      1.0000 0.82160  0.28300  0.91700  Biso   1.000  C
  C56      1.0000 0.89020  0.24580  0.91420  Biso   1.000  C
  C57      1.0000 0.66830  0.31530  0.93830  Biso   1.000  C
  C58      1.0000 0.20460  0.58940  0.08540  Biso   1.000  C
  C59      1.0000 0.26480  0.55850  0.05130  Biso   1.000  C
  C60      1.0000 0.34040  0.53580  0.05940  Biso   1.000  C
  C61      1.0000 0.35600  0.54040  0.10160  Biso   1.000  C
  C62      1.0000 0.29160  0.57060  0.13560  Biso   1.000  C
  C63      1.0000 0.21970  0.59290  0.12850  Biso   1.000  C
  C64      1.0000 0.25430  0.54940  0.00700  Biso   1.000  C
  C65      1.0000 0.11180  0.58430  0.94610  Biso   1.000  C
  C66      1.0000 0.09630  0.57870  0.89970  Biso   1.000  C
  C67      1.0000 0.12210  0.70080  0.96120  Biso   1.000  C
  C68      1.0000 0.17620  0.76290  0.96090  Biso   1.000  C
  C69      1.0000 0.11910  0.76000  0.89780  Biso   1.000  C
  C70      1.0000 0.65520  0.47400  0.16880  Biso   1.000  C
  C71      1.0000 0.69380  0.49910  0.18930  Biso   1.000  C
  C72      1.0000 0.68310  0.49650  0.23690  Biso   1.000  C
  C73      1.0000 0.63570  0.47050  0.26630  Biso   1.000  C
  C74      1.0000 0.59610  0.44640  0.24700  Biso   1.000  C
  C75      1.0000 0.60520  0.44840  0.20020  Biso   1.000  C
  C76      1.0000 0.74190  0.52880  0.16100  Biso   1.000  C
  C77      1.0000 0.79460  0.57120  0.04900  Biso   1.000  C
  C78      1.0000 0.83490  0.60470  0.01790  Biso   1.000  C
  C79      1.0000 0.45750  0.41830  0.88110  Biso   1.000  C
  C80      1.0000 0.52780  0.37980  0.87720  Biso   1.000  C
  C81      1.0000 0.54780  0.36100  0.91600  Biso   1.000  C
  C82      1.0000 0.49520  0.38060  0.95820  Biso   1.000  C
  C83      1.0000 0.42610  0.41800  0.95980  Biso   1.000  C
  C84      1.0000 0.62390  0.31630  0.91050  Biso   1.000  C
  C85      1.0000 0.47650  0.65230  0.31410  Biso   1.000  C
  C86      1.0000 0.55660  0.62120  0.30560  Biso   1.000  C
  C87      1.0000 0.60880  0.61630  0.25950  Biso   1.000  C
  C88      1.0000 0.58280  0.64020  0.22300  Biso   1.000  C
  C89      1.0000 0.50510  0.67010  0.23170  Biso   1.000  C
  C90      1.0000 0.45240  0.67610  0.27710  Biso   1.000  C
  C91      1.0000 0.58870  0.59350  0.34190  Biso   1.000  C
  C92      1.0000 0.53500  0.58330  0.46170  Biso   1.000  C
  C93      1.0000 0.55920  0.55520  0.50140  Biso   1.000  C
  C94      1.0000 0.01250  0.42350  0.80610  Biso   1.000  C
  C95      1.0000 0.97560  0.42810  0.77110  Biso   1.000  C
  C96      1.0000 0.02150  0.42670  0.72510  Biso   1.000  C
  C97      1.0000 0.10460  0.41700  0.71700  Biso   1.000  C
  C98      1.0000 0.13600  0.41420  0.75420  Biso   1.000  C
  C99      1.0000 0.98360  0.43830  0.68470  Biso   1.000  C
  C100     1.0000 0.79400  0.58540  0.41060  Biso   1.000  C
  C101     1.0000 0.82330  0.55130  0.44150  Biso   1.000  C
  C102     1.0000 0.87620  0.55940  0.46420  Biso   1.000  C
  C103     1.0000 0.89640  0.60160  0.45960  Biso   1.000  C
  C104     1.0000 0.86220  0.63560  0.42940  Biso   1.000  C
  C105     1.0000 0.81260  0.62850  0.40710  Biso   1.000  C
  C106     1.0000 0.80370  0.50700  0.45060  Biso   1.000  C
  C107     1.0000 0.69610  0.44610  0.41570  Biso   1.000  C
  C108     1.0000 0.67500  0.39970  0.42130  Biso   1.000  C
  C109     1.0000 0.82290  0.46120  0.29920  Biso   1.000  C
  C110     1.0000 0.93910  0.46090  0.23710  Biso   1.000  C
  C111     1.0000 0.87910  0.39780  0.24000  Biso   1.000  C
  C112     1.0000 0.12920  0.66880  0.52600  Biso   1.000  C
  C113     1.0000 0.19290  0.68930  0.50090  Biso   1.000  C
  C114     1.0000 0.17960  0.73690  0.50350  Biso   1.000  C
  C115     1.0000 0.10620  0.76630  0.52950  Biso   1.000  C
  C116     1.0000 0.04250  0.74700  0.55360  Biso   1.000  C
  C117     1.0000 0.05360  0.70020  0.55160  Biso   1.000  C
  C118     1.0000 0.27070  0.66100  0.47120  Biso   1.000  C
  C119     1.0000 0.36580  0.54900  0.42880  Biso   1.000  C
  C120     1.0000 0.43960  0.51790  0.39530  Biso   1.000  C
  C121     1.0000 0.87580  0.38110  0.58170  Biso   1.000  C
  C122     1.0000 0.90760  0.37720  0.62020  Biso   1.000  C
  C123     1.0000 0.90880  0.41600  0.63900  Biso   1.000  C
  C124     1.0000 0.87580  0.45820  0.61940  Biso   1.000  C
  C125     1.0000 0.84410  0.45980  0.58200  Biso   1.000  C
  C126     1.0000 0.94020  0.41050  0.68370  Biso   1.000  C
  C127     1.0000 0.94290  0.84770  0.18590  Biso   1.000  C
  C128     1.0000 0.98340  0.87880  0.19440  Biso   1.000  C
  C129     1.0000 0.98460  0.88370  0.24050  Biso   1.000  C
  C130     1.0000 0.94600  0.85980  0.27700  Biso   1.000  C
  C131     1.0000 0.90690  0.82990  0.26830  Biso   1.000  C
  C132     1.0000 0.90560  0.82390  0.22290  Biso   1.000  C
  C133     1.0000 0.02410  0.90650  0.15810  Biso   1.000  C
  C134     1.0000 0.08000  0.91670  0.03830  Biso   1.000  C
  C135     1.0000 0.11580  0.94480  0.99860  Biso   1.000  C
  C136     1.0000 0.74210  0.07650  0.69390  Biso   1.000  C
  C137     1.0000 0.67480  0.07190  0.72890  Biso   1.000  C
  C138     1.0000 0.67330  0.07330  0.77490  Biso   1.000  C
  C139     1.0000 0.73860  0.08300  0.78300  Biso   1.000  C
  C140     1.0000 0.80440  0.08580  0.74580  Biso   1.000  C
  C141     1.0000 0.60660  0.06170  0.81530  Biso   1.000  C
  C142     1.0000 0.29000  0.91460  0.08940  Biso   1.000  C
  C143     1.0000 0.31610  0.94870  0.05850  Biso   1.000  C
  C144     1.0000 0.39980  0.94060  0.03580  Biso   1.000  C
  C145     1.0000 0.45760  0.89840  0.04040  Biso   1.000  C
  C146     1.0000 0.42720  0.86440  0.07060  Biso   1.000  C
  C147     1.0000 0.34820  0.87150  0.09290  Biso   1.000  C
  C148     1.0000 0.26130  0.99300  0.04940  Biso   1.000  C
  C149     1.0000 0.05790  0.05390  0.08430  Biso   1.000  C
  C150     1.0000 0.99600  0.10030  0.07870  Biso   1.000  C
  C151     1.0000 0.08330  0.03880  0.20080  Biso   1.000  C
  C152     1.0000 0.13710  0.03910  0.26290  Biso   1.000  C
  C153     1.0000 0.01690  0.10220  0.26000  Biso   1.000  C
  C154     1.0000 0.82400  0.83120  0.97400  Biso   1.000  C
  C155     1.0000 0.88310  0.81070  0.99910  Biso   1.000  C
  C156     1.0000 0.92000  0.76310  0.99650  Biso   1.000  C
  C157     1.0000 0.90200  0.73370  0.97050  Biso   1.000  C
  C158     1.0000 0.84310  0.75300  0.94640  Biso   1.000  C
  C159     1.0000 0.80540  0.79980  0.94840  Biso   1.000  C
  C160     1.0000 0.90290  0.83900  0.02880  Biso   1.000  C
  C161     1.0000 0.84360  0.95100  0.07120  Biso   1.000  C
  C162     1.0000 0.85280  0.98210  0.10470  Biso   1.000  C
  C163     1.0000 0.33860  0.11890  0.91830  Biso   1.000  C
  C164     1.0000 0.40500  0.12280  0.87980  Biso   1.000  C
  C165     1.0000 0.46380  0.08400  0.86100  Biso   1.000  C
  C166     1.0000 0.45340  0.04180  0.88060  Biso   1.000  C
  C167     1.0000 0.38590  0.04020  0.91800  Biso   1.000  C
  C168     1.0000 0.53440  0.08950  0.81630  Biso   1.000  C
  C169     1.0000 0.87120  0.18590  0.65230  Biso   1.000  C
  C170     1.0000 0.82220  0.19440  0.62120  Biso   1.000  C
  C171     1.0000 0.77490  0.24050  0.61630  Biso   1.000  C
  C172     1.0000 0.77700  0.27700  0.64020  Biso   1.000  C
  C173     1.0000 0.82480  0.26830  0.67010  Biso   1.000  C
  C174     1.0000 0.87150  0.22290  0.67610  Biso   1.000  C
  C175     1.0000 0.81780  0.15810  0.59350  Biso   1.000  C
  C176     1.0000 0.88170  0.03830  0.58330  Biso   1.000  C
  C177     1.0000 0.88560  0.99860  0.55520  Biso   1.000  C
  C178     1.0000 0.56400  0.69390  0.42350  Biso   1.000  C
  C179     1.0000 0.59630  0.72890  0.42810  Biso   1.000  C
  C180     1.0000 0.55180  0.77490  0.42670  Biso   1.000  C
  C181     1.0000 0.47840  0.78300  0.41700  Biso   1.000  C
  C182     1.0000 0.44980  0.74580  0.41420  Biso   1.000  C
  C183     1.0000 0.57810  0.81530  0.43830  Biso   1.000  C
  C184     1.0000 0.62060  0.08940  0.58540  Biso   1.000  C
  C185     1.0000 0.62540  0.05850  0.55130  Biso   1.000  C
  C186     1.0000 0.56440  0.03580  0.55940  Biso   1.000  C
  C187     1.0000 0.50200  0.04040  0.60160  Biso   1.000  C
  C188     1.0000 0.50220  0.07060  0.63560  Biso   1.000  C
  C189     1.0000 0.55890  0.09290  0.62850  Biso   1.000  C
  C190     1.0000 0.68930  0.04940  0.50700  Biso   1.000  C
  C191     1.0000 0.85780  0.08430  0.44610  Biso   1.000  C
  C192     1.0000 0.92530  0.07870  0.39970  Biso   1.000  C
  C193     1.0000 0.71590  0.20080  0.46120  Biso   1.000  C
  C194     1.0000 0.60000  0.26290  0.46090  Biso   1.000  C
  C195     1.0000 0.72310  0.26000  0.39780  Biso   1.000  C
  C196     1.0000 0.20200  0.97400  0.66880  Biso   1.000  C
  C197     1.0000 0.11780  0.99910  0.68930  Biso   1.000  C
  C198     1.0000 0.08350  0.99650  0.73690  Biso   1.000  C
  C199     1.0000 0.12750  0.97050  0.76630  Biso   1.000  C
  C200     1.0000 0.21050  0.94640  0.74700  Biso   1.000  C
  C201     1.0000 0.24620  0.94840  0.70020  Biso   1.000  C
  C202     1.0000 0.06830  0.02880  0.66100  Biso   1.000  C
  C203     1.0000 0.08520  0.07120  0.54900  Biso   1.000  C
  C204     1.0000 0.04250  0.10470  0.51790  Biso   1.000  C
  C205     1.0000 0.74310  0.91830  0.38110  Biso   1.000  C
  C206     1.0000 0.71520  0.87980  0.37720  Biso   1.000  C
  C207     1.0000 0.67520  0.86100  0.41600  Biso   1.000  C
  C208     1.0000 0.66600  0.88060  0.45820  Biso   1.000  C
  C209     1.0000 0.69610  0.91800  0.45980  Biso   1.000  C
  C210     1.0000 0.64930  0.81630  0.41050  Biso   1.000  C
  C211     1.0000 0.20940  0.31410  0.84770  Biso   1.000  C
  C212     1.0000 0.13780  0.30560  0.87880  Biso   1.000  C
  C213     1.0000 0.13170  0.25950  0.88370  Biso   1.000  C
  C214     1.0000 0.19420  0.22300  0.85980  Biso   1.000  C
  C215     1.0000 0.26320  0.23170  0.82990  Biso   1.000  C
  C216     1.0000 0.27050  0.27710  0.82390  Biso   1.000  C
  C217     1.0000 0.06940  0.34190  0.90650  Biso   1.000  C
  C218     1.0000 0.00330  0.46170  0.91670  Biso   1.000  C
  C219     1.0000 0.93940  0.50140  0.94480  Biso   1.000  C
  C220     1.0000 0.18140  0.80610  0.07650  Biso   1.000  C
  C221     1.0000 0.25330  0.77110  0.07190  Biso   1.000  C
  C222     1.0000 0.25340  0.72510  0.07330  Biso   1.000  C
  C223     1.0000 0.17840  0.71700  0.08300  Biso   1.000  C
  C224     1.0000 0.10980  0.75420  0.08580  Biso   1.000  C
  C225     1.0000 0.33170  0.68470  0.06170  Biso   1.000  C
  C226     1.0000 0.79540  0.41060  0.91460  Biso   1.000  C
  C227     1.0000 0.73520  0.44150  0.94870  Biso   1.000  C
  C228     1.0000 0.65960  0.46420  0.94060  Biso   1.000  C
  C229     1.0000 0.64400  0.45960  0.89840  Biso   1.000  C
  C230     1.0000 0.70840  0.42940  0.86440  Biso   1.000  C
  C231     1.0000 0.78030  0.40710  0.87150  Biso   1.000  C
  C232     1.0000 0.74570  0.45060  0.99300  Biso   1.000  C
  C233     1.0000 0.88820  0.41570  0.05390  Biso   1.000  C
  C234     1.0000 0.90370  0.42130  0.10030  Biso   1.000  C
  C235     1.0000 0.87790  0.29920  0.03880  Biso   1.000  C
  C236     1.0000 0.82380  0.23710  0.03910  Biso   1.000  C
  C237     1.0000 0.88090  0.24000  0.10220  Biso   1.000  C
  C238     1.0000 0.34480  0.52600  0.83120  Biso   1.000  C
  C239     1.0000 0.30620  0.50090  0.81070  Biso   1.000  C
  C240     1.0000 0.31690  0.50350  0.76310  Biso   1.000  C
  C241     1.0000 0.36430  0.52950  0.73370  Biso   1.000  C
  C242     1.0000 0.40390  0.55360  0.75300  Biso   1.000  C
  C243     1.0000 0.39480  0.55160  0.79980  Biso   1.000  C
  C244     1.0000 0.25810  0.47120  0.83900  Biso   1.000  C
  C245     1.0000 0.20540  0.42880  0.95100  Biso   1.000  C
  C246     1.0000 0.16510  0.39530  0.98210  Biso   1.000  C
  C247     1.0000 0.54250  0.58170  0.11890  Biso   1.000  C
  C248     1.0000 0.47220  0.62020  0.12280  Biso   1.000  C
  C249     1.0000 0.45220  0.63900  0.08400  Biso   1.000  C
  C250     1.0000 0.50480  0.61940  0.04180  Biso   1.000  C
  C251     1.0000 0.57390  0.58200  0.04020  Biso   1.000  C
  C252     1.0000 0.37610  0.68370  0.08950  Biso   1.000  C
  C253     1.0000 0.52350  0.34770  0.68590  Biso   1.000  C
  C254     1.0000 0.44340  0.37880  0.69440  Biso   1.000  C
  C255     1.0000 0.39120  0.38370  0.74050  Biso   1.000  C
  C256     1.0000 0.41720  0.35980  0.77700  Biso   1.000  C
  C257     1.0000 0.49490  0.32990  0.76830  Biso   1.000  C
  C258     1.0000 0.54760  0.32390  0.72290  Biso   1.000  C
  C259     1.0000 0.41130  0.40650  0.65810  Biso   1.000  C
  C260     1.0000 0.46500  0.41670  0.53830  Biso   1.000  C
  C261     1.0000 0.44080  0.44480  0.49860  Biso   1.000  C
  C262     1.0000 0.98750  0.57650  0.19390  Biso   1.000  C
  C263     1.0000 0.02440  0.57190  0.22890  Biso   1.000  C
  C264     1.0000 0.97850  0.57330  0.27490  Biso   1.000  C
  C265     1.0000 0.89540  0.58300  0.28300  Biso   1.000  C
  C266     1.0000 0.86400  0.58580  0.24580  Biso   1.000  C
  C267     1.0000 0.01640  0.56170  0.31530  Biso   1.000  C
  C268     1.0000 0.20600  0.41460  0.58940  Biso   1.000  C
  C269     1.0000 0.17670  0.44870  0.55850  Biso   1.000  C
  C270     1.0000 0.12380  0.44060  0.53580  Biso   1.000  C
  C271     1.0000 0.10360  0.39840  0.54040  Biso   1.000  C
  C272     1.0000 0.13780  0.36440  0.57060  Biso   1.000  C
  C273     1.0000 0.18740  0.37150  0.59290  Biso   1.000  C
  C274     1.0000 0.19630  0.49300  0.54940  Biso   1.000  C
  C275     1.0000 0.30390  0.55390  0.58430  Biso   1.000  C
  C276     1.0000 0.32500  0.60030  0.57870  Biso   1.000  C
  C277     1.0000 0.17710  0.53880  0.70080  Biso   1.000  C
  C278     1.0000 0.06090  0.53910  0.76290  Biso   1.000  C
  C279     1.0000 0.12090  0.60220  0.76000  Biso   1.000  C
  C280     1.0000 0.87080  0.33120  0.47400  Biso   1.000  C
  C281     1.0000 0.80710  0.31070  0.49910  Biso   1.000  C
  C282     1.0000 0.82040  0.26310  0.49650  Biso   1.000  C
  C283     1.0000 0.89380  0.23370  0.47050  Biso   1.000  C
  C284     1.0000 0.95750  0.25300  0.44640  Biso   1.000  C
  C285     1.0000 0.94640  0.29980  0.44840  Biso   1.000  C
  C286     1.0000 0.72930  0.33900  0.52880  Biso   1.000  C
  C287     1.0000 0.63420  0.45100  0.57120  Biso   1.000  C
  C288     1.0000 0.56040  0.48210  0.60470  Biso   1.000  C
  C289     1.0000 0.12420  0.61890  0.41830  Biso   1.000  C
  C290     1.0000 0.09240  0.62280  0.37980  Biso   1.000  C
  C291     1.0000 0.09120  0.58400  0.36100  Biso   1.000  C
  C292     1.0000 0.12420  0.54180  0.38060  Biso   1.000  C
  C293     1.0000 0.15590  0.54020  0.41800  Biso   1.000  C
  C294     1.0000 0.05980  0.58950  0.31630  Biso   1.000  C
  C295     1.0000 0.05710  0.15230  0.81410  Biso   1.000  C
  C296     1.0000 0.01660  0.12120  0.80560  Biso   1.000  C
  C297     1.0000 0.01540  0.11630  0.75950  Biso   1.000  C
  C298     1.0000 0.05400  0.14020  0.72300  Biso   1.000  C
  C299     1.0000 0.09310  0.17010  0.73170  Biso   1.000  C
  C300     1.0000 0.09440  0.17610  0.77710  Biso   1.000  C
  C301     1.0000 0.97590  0.09350  0.84190  Biso   1.000  C
  C302     1.0000 0.92000  0.08330  0.96170  Biso   1.000  C
  C303     1.0000 0.88420  0.05520  0.00140  Biso   1.000  C
  C304     1.0000 0.25790  0.92350  0.30610  Biso   1.000  C
  C305     1.0000 0.32520  0.92810  0.27110  Biso   1.000  C
  C306     1.0000 0.32670  0.92670  0.22510  Biso   1.000  C
  C307     1.0000 0.26140  0.91700  0.21700  Biso   1.000  C
  C308     1.0000 0.19560  0.91420  0.25420  Biso   1.000  C
  C309     1.0000 0.39340  0.93830  0.18470  Biso   1.000  C
  C310     1.0000 0.71000  0.08540  0.91060  Biso   1.000  C
  C311     1.0000 0.68390  0.05130  0.94150  Biso   1.000  C
  C312     1.0000 0.60020  0.05940  0.96420  Biso   1.000  C
  C313     1.0000 0.54240  0.10160  0.95960  Biso   1.000  C
  C314     1.0000 0.57280  0.13560  0.92940  Biso   1.000  C
  C315     1.0000 0.65180  0.12850  0.90710  Biso   1.000  C
  C316     1.0000 0.73870  0.00700  0.95060  Biso   1.000  C
  C317     1.0000 0.94210  0.94610  0.91570  Biso   1.000  C
  C318     1.0000 0.00400  0.89970  0.92130  Biso   1.000  C
  C319     1.0000 0.91670  0.96120  0.79920  Biso   1.000  C
  C320     1.0000 0.86290  0.96090  0.73710  Biso   1.000  C
  C321     1.0000 0.98310  0.89780  0.74000  Biso   1.000  C
  C322     1.0000 0.17600  0.16880  0.02600  Biso   1.000  C
  C323     1.0000 0.11690  0.18930  0.00090  Biso   1.000  C
  C324     1.0000 0.08000  0.23690  0.00350  Biso   1.000  C
  C325     1.0000 0.09800  0.26630  0.02950  Biso   1.000  C
  C326     1.0000 0.15690  0.24700  0.05360  Biso   1.000  C
  C327     1.0000 0.19460  0.20020  0.05160  Biso   1.000  C
  C328     1.0000 0.09710  0.16100  0.97120  Biso   1.000  C
  C329     1.0000 0.15640  0.04900  0.92880  Biso   1.000  C
  C330     1.0000 0.14720  0.01790  0.89530  Biso   1.000  C
  C331     1.0000 0.66140  0.88110  0.08170  Biso   1.000  C
  C332     1.0000 0.59500  0.87720  0.12020  Biso   1.000  C
  C333     1.0000 0.53620  0.91600  0.13900  Biso   1.000  C
  C334     1.0000 0.54660  0.95820  0.11940  Biso   1.000  C
  C335     1.0000 0.61410  0.95980  0.08200  Biso   1.000  C
  C336     1.0000 0.46560  0.91050  0.18370  Biso   1.000  C
  N1       1.0000 0.14394  0.88642  0.40050  Biso   1.000  N
  N2       1.0000 0.15171  0.91909  0.42849  Biso   1.000  N
  N3       1.0000 0.51000  0.29830  0.58290  Biso   1.000  N
  N4       1.0000 0.25178  0.92853  0.50251  Biso   1.000  N
  N5       1.0000 0.19290  0.94103  0.54637  Biso   1.000  N
  N6       1.0000 0.32440  0.76060  0.55720  Biso   1.000  N
  N7       1.0000 0.89871  0.96389  0.38349  Biso   1.000  N
  N8       1.0000 0.95020  0.93140  0.40620  Biso   1.000  N
  N9       1.0000 0.26800  0.06170  0.57870  Biso   1.000  N
  N10      1.0000 0.93086  0.61358  0.09950  Biso   1.000  N
  N11      1.0000 0.99929  0.58091  0.07151  Biso   1.000  N
  N12      1.0000 0.89120  0.20170  0.91710  Biso   1.000  N
  N13      1.0000 0.18282  0.57147  0.99749  Biso   1.000  N
  N14      1.0000 0.18030  0.55897  0.95363  Biso   1.000  N
  N15      1.0000 0.14220  0.73940  0.94280  Biso   1.000  N
  N16      1.0000 0.74609  0.53611  0.11651  Biso   1.000  N
  N17      1.0000 0.78780  0.56860  0.09380  Biso   1.000  N
  N18      1.0000 0.40840  0.43830  0.92130  Biso   1.000  N
  N19      1.0000 0.54444  0.59950  0.38642  Biso   1.000  N
  N20      1.0000 0.58020  0.57151  0.41909  Biso   1.000  N
  N21      1.0000 0.09290  0.41710  0.79830  Biso   1.000  N
  N22      1.0000 0.75429  0.49749  0.42853  Biso   1.000  N
  N23      1.0000 0.73927  0.45363  0.44103  Biso   1.000  N
  N24      1.0000 0.88160  0.44280  0.26060  Biso   1.000  N
  N25      1.0000 0.28220  0.61651  0.46389  Biso   1.000  N
  N26      1.0000 0.35640  0.59380  0.43140  Biso   1.000  N
  N27      1.0000 0.84670  0.42130  0.56170  Biso   1.000  N
  N28      1.0000 0.03036  0.90050  0.11358  Biso   1.000  N
  N29      1.0000 0.07080  0.92849  0.08091  Biso   1.000  N
  N30      1.0000 0.80830  0.08290  0.70170  Biso   1.000  N
  N31      1.0000 0.18031  0.00251  0.07147  Biso   1.000  N
  N32      1.0000 0.13393  0.04637  0.05897  Biso   1.000  N
  N33      1.0000 0.08500  0.05720  0.23940  Biso   1.000  N
  N34      1.0000 0.86260  0.88349  0.03611  Biso   1.000  N
  N35      1.0000 0.88160  0.90620  0.06860  Biso   1.000  N
  N36      1.0000 0.32970  0.07870  0.93830  Biso   1.000  N
  N37      1.0000 0.85606  0.11358  0.59950  Biso   1.000  N
  N38      1.0000 0.84829  0.08091  0.57151  Biso   1.000  N
  N39      1.0000 0.49000  0.70170  0.41710  Biso   1.000  N
  N40      1.0000 0.74822  0.07147  0.49749  Biso   1.000  N
  N41      1.0000 0.80710  0.05897  0.45363  Biso   1.000  N
  N42      1.0000 0.67560  0.23940  0.44280  Biso   1.000  N
  N43      1.0000 0.10129  0.03611  0.61651  Biso   1.000  N
  N44      1.0000 0.04980  0.06860  0.59380  Biso   1.000  N
  N45      1.0000 0.73200  0.93830  0.42130  Biso   1.000  N
  N46      1.0000 0.06914  0.38642  0.90050  Biso   1.000  N
  N47      1.0000 0.00071  0.41909  0.92849  Biso   1.000  N
  N48      1.0000 0.10880  0.79830  0.08290  Biso   1.000  N
  N49      1.0000 0.81718  0.42853  0.00251  Biso   1.000  N
  N50      1.0000 0.81970  0.44103  0.04637  Biso   1.000  N
  N51      1.0000 0.85780  0.26060  0.05720  Biso   1.000  N
  N52      1.0000 0.25391  0.46389  0.88349  Biso   1.000  N
  N53      1.0000 0.21220  0.43140  0.90620  Biso   1.000  N
  N54      1.0000 0.59160  0.56170  0.07870  Biso   1.000  N
  N55      1.0000 0.45556  0.40050  0.61358  Biso   1.000  N
  N56      1.0000 0.41980  0.42849  0.58091  Biso   1.000  N
  N57      1.0000 0.90710  0.58290  0.20170  Biso   1.000  N
  N58      1.0000 0.24571  0.50251  0.57147  Biso   1.000  N
  N59      1.0000 0.26073  0.54637  0.55897  Biso   1.000  N
  N60      1.0000 0.11840  0.55720  0.73940  Biso   1.000  N
  N61      1.0000 0.71780  0.38349  0.53611  Biso   1.000  N
  N62      1.0000 0.64360  0.40620  0.56860  Biso   1.000  N
  N63      1.0000 0.15330  0.57870  0.43830  Biso   1.000  N
  N64      1.0000 0.96964  0.09950  0.88642  Biso   1.000  N
  N65      1.0000 0.92920  0.07151  0.91909  Biso   1.000  N
  N66      1.0000 0.19170  0.91710  0.29830  Biso   1.000  N
  N67      1.0000 0.81969  0.99749  0.92853  Biso   1.000  N
  N68      1.0000 0.86607  0.95363  0.94103  Biso   1.000  N
  N69      1.0000 0.91500  0.94280  0.76060  Biso   1.000  N
  N70      1.0000 0.13740  0.11651  0.96389  Biso   1.000  N
  N71      1.0000 0.11840  0.09380  0.93140  Biso   1.000  N
  N72      1.0000 0.67030  0.92130  0.06170  Biso   1.000  N
  O1       1.0000 0.08198  0.85688  0.33976  Biso   1.000  O
  O2       1.0000 0.22240  0.83019  0.43741  Biso   1.000  O
  O3       1.0000 0.08329  0.97080  0.38362  Biso   1.000  O
  O4       1.0000 0.32929  0.88427  0.41955  Biso   1.000  O
  O5       1.0000 0.31076  0.97928  0.52260  Biso   1.000  O
  O6       1.0000 0.14974  0.88366  0.52546  Biso   1.000  O
  O7       1.0000 0.31380  0.82090  0.50410  Biso   1.000  O
  O8       1.0000 0.75772  0.02642  0.37594  Biso   1.000  O
  O9       1.0000 0.00683  0.95126  0.31908  Biso   1.000  O
  O10      1.0000 0.84127  0.95533  0.47073  Biso   1.000  O
  O11      1.0000 0.77862  0.64312  0.16024  Biso   1.000  O
  O12      1.0000 0.99000  0.66981  0.06259  Biso   1.000  O
  O13      1.0000 0.93771  0.52920  0.11638  Biso   1.000  O
  O14      1.0000 0.13311  0.61573  0.08045  Biso   1.000  O
  O15      1.0000 0.31264  0.52072  0.97740  Biso   1.000  O
  O16      1.0000 0.05886  0.61634  0.97454  Biso   1.000  O
  O17      1.0000 0.13880  0.67910  0.99590  Biso   1.000  O
  O18      1.0000 0.66008  0.47358  0.12406  Biso   1.000  O
  O19      1.0000 0.77717  0.54874  0.18092  Biso   1.000  O
  O20      1.0000 0.76733  0.54467  0.02927  Biso   1.000  O
  O21      1.0000 0.42174  0.66024  0.35688  Biso   1.000  O
  O22      1.0000 0.65981  0.56259  0.33019  Biso   1.000  O
  O23      1.0000 0.46691  0.61638  0.47080  Biso   1.000  O
  O24      1.0000 0.74884  0.58045  0.38427  Biso   1.000  O
  O25      1.0000 0.83336  0.47740  0.47928  Biso   1.000  O
  O26      1.0000 0.67520  0.47454  0.38366  Biso   1.000  O
  O27      1.0000 0.81790  0.49590  0.32090  Biso   1.000  O
  O28      1.0000 0.13366  0.62406  0.52642  Biso   1.000  O
  O29      1.0000 0.32591  0.68092  0.45126  Biso   1.000  O
  O30      1.0000 0.31200  0.52927  0.45533  Biso   1.000  O
  O31      1.0000 0.93886  0.83976  0.14312  Biso   1.000  O
  O32      1.0000 0.05259  0.93741  0.16981  Biso   1.000  O
  O33      1.0000 0.05409  0.88362  0.02920  Biso   1.000  O
  O34      1.0000 0.21356  0.91955  0.11573  Biso   1.000  O
  O35      1.0000 0.29004  0.02260  0.02072  Biso   1.000  O
  O36      1.0000 0.03340  0.02546  0.11634  Biso   1.000  O
  O37      1.0000 0.13470  0.00410  0.17910  Biso   1.000  O
  O38      1.0000 0.78414  0.87594  0.97358  Biso   1.000  O
  O39      1.0000 0.95809  0.81908  0.04874  Biso   1.000  O
  O40      1.0000 0.79660  0.97073  0.04467  Biso   1.000  O
  O41      1.0000 0.91802  0.14312  0.66024  Biso   1.000  O
  O42      1.0000 0.77760  0.16981  0.56259  Biso   1.000  O
  O43      1.0000 0.91671  0.02920  0.61638  Biso   1.000  O
  O44      1.0000 0.67071  0.11573  0.58045  Biso   1.000  O
  O45      1.0000 0.68924  0.02072  0.47740  Biso   1.000  O
  O46      1.0000 0.85026  0.11634  0.47454  Biso   1.000  O
  O47      1.0000 0.68620  0.17910  0.49590  Biso   1.000  O
  O48      1.0000 0.24228  0.97358  0.62406  Biso   1.000  O
  O49      1.0000 0.99317  0.04874  0.68092  Biso   1.000  O
  O50      1.0000 0.15873  0.04467  0.52927  Biso   1.000  O
  O51      1.0000 0.22138  0.35688  0.83976  Biso   1.000  O
  O52      1.0000 0.01000  0.33019  0.93741  Biso   1.000  O
  O53      1.0000 0.06229  0.47080  0.88362  Biso   1.000  O
  O54      1.0000 0.86689  0.38427  0.91955  Biso   1.000  O
  O55      1.0000 0.68736  0.47928  0.02260  Biso   1.000  O
  O56      1.0000 0.94114  0.38366  0.02546  Biso   1.000  O
  O57      1.0000 0.86120  0.32090  0.00410  Biso   1.000  O
  O58      1.0000 0.33992  0.52642  0.87594  Biso   1.000  O
  O59      1.0000 0.22283  0.45126  0.81908  Biso   1.000  O
  O60      1.0000 0.23267  0.45533  0.97073  Biso   1.000  O
  O61      1.0000 0.57826  0.33976  0.64312  Biso   1.000  O
  O62      1.0000 0.34019  0.43741  0.66981  Biso   1.000  O
  O63      1.0000 0.53309  0.38362  0.52920  Biso   1.000  O
  O64      1.0000 0.25116  0.41955  0.61573  Biso   1.000  O
  O65      1.0000 0.16664  0.52260  0.52072  Biso   1.000  O
  O66      1.0000 0.32480  0.52546  0.61634  Biso   1.000  O
  O67      1.0000 0.18210  0.50410  0.67910  Biso   1.000  O
  O68      1.0000 0.86634  0.37594  0.47358  Biso   1.000  O
  O69      1.0000 0.67409  0.31908  0.54874  Biso   1.000  O
  O70      1.0000 0.68800  0.47073  0.54467  Biso   1.000  O
  O71      1.0000 0.06114  0.16024  0.85688  Biso   1.000  O
  O72      1.0000 0.94741  0.06259  0.83019  Biso   1.000  O
  O73      1.0000 0.94591  0.11638  0.97080  Biso   1.000  O
  O74      1.0000 0.78644  0.08045  0.88427  Biso   1.000  O
  O75      1.0000 0.70996  0.97740  0.97928  Biso   1.000  O
  O76      1.0000 0.96660  0.97454  0.88366  Biso   1.000  O
  O77      1.0000 0.86530  0.99590  0.82090  Biso   1.000  O
  O78      1.0000 0.21586  0.12406  0.02642  Biso   1.000  O
  O79      1.0000 0.04191  0.18092  0.95126  Biso   1.000  O
  O80      1.0000 0.20340  0.02927  0.95533  Biso   1.000  O
