data_image0
_cell_length_a       10.998
_cell_length_b       32.8978
_cell_length_c       32.8978
_cell_angle_alpha    88.3989
_cell_angle_beta     80.3776
_cell_angle_gamma    80.3777

_symmetry_space_group_name_H-M    P 1
_symmetry_int_tables_number       1

loop_
  _symmetry_equiv_pos_as_xyz
  'x, y, z'

loop_
  _atom_site_label
  _atom_site_occupancy
  _atom_site_fract_x
  _atom_site_fract_y
  _atom_site_fract_z
  _atom_site_thermal_displace_type
  _atom_site_B_iso_or_equiv
  _atom_site_type_symbol
  Dy1      1.0000 0.81075  0.97344  0.17146  Biso   1.000  Dy
  Dy2      1.0000 0.30854  0.97556  0.17536  Biso   1.000  Dy
  Dy3      1.0000 0.45565  0.52656  0.32854  Biso   1.000  Dy
  Dy4      1.0000 0.95946  0.52444  0.32464  Biso   1.000  Dy
  Dy5      1.0000 0.98221  0.82854  0.47344  Biso   1.000  Dy
  Dy6      1.0000 0.48390  0.82464  0.47556  Biso   1.000  Dy
  Dy7      1.0000 0.78419  0.67146  0.02656  Biso   1.000  Dy
  Dy8      1.0000 0.28410  0.67536  0.02444  Biso   1.000  Dy
  Dy9      1.0000 0.18925  0.02656  0.82854  Biso   1.000  Dy
  Dy10     1.0000 0.69146  0.02444  0.82464  Biso   1.000  Dy
  Dy11     1.0000 0.54435  0.47344  0.67146  Biso   1.000  Dy
  Dy12     1.0000 0.04054  0.47556  0.67536  Biso   1.000  Dy
  Dy13     1.0000 0.01779  0.17146  0.52656  Biso   1.000  Dy
  Dy14     1.0000 0.51610  0.17536  0.52444  Biso   1.000  Dy
  Dy15     1.0000 0.21581  0.32854  0.97344  Biso   1.000  Dy
  Dy16     1.0000 0.71590  0.32464  0.97556  Biso   1.000  Dy
  Co1      1.0000 0.28951  0.12854  0.03618  Biso   1.000  Co
  Co2      1.0000 0.95423  0.37146  0.46382  Biso   1.000  Co
  Co3      1.0000 0.32569  0.96382  0.62854  Biso   1.000  Co
  Co4      1.0000 0.41805  0.53618  0.87146  Biso   1.000  Co
  Co5      1.0000 0.71049  0.87146  0.96382  Biso   1.000  Co
  Co6      1.0000 0.04577  0.62854  0.53618  Biso   1.000  Co
  Co7      1.0000 0.67431  0.03618  0.37146  Biso   1.000  Co
  Co8      1.0000 0.58195  0.46382  0.12854  Biso   1.000  Co
  H1       1.0000 0.64000  0.92300  0.16700  Biso   1.000  H
  H2       1.0000 0.68100  0.91300  0.20500  Biso   1.000  H
  H3       1.0000 0.66300  0.12680  0.22080  Biso   1.000  H
  H4       1.0000 0.82550  0.12950  0.25790  Biso   1.000  H
  H5       1.0000 0.84450  0.08780  0.31340  Biso   1.000  H
  H6       1.0000 0.41880  0.00100  0.39580  Biso   1.000  H
  H7       1.0000 0.31050  0.96260  0.36200  Biso   1.000  H
  H8       1.0000 0.36380  0.95630  0.28950  Biso   1.000  H
  H9       1.0000 0.53780  0.84530  0.13410  Biso   1.000  H
  H10      1.0000 0.64900  0.78830  0.09430  Biso   1.000  H
  H11      1.0000 0.75080  0.80010  0.02770  Biso   1.000  H
  H12      1.0000 0.64060  0.96860  0.94120  Biso   1.000  H
  H13      1.0000 0.66120  0.02870  0.97210  Biso   1.000  H
  H14      1.0000 0.70190  0.02690  0.03890  Biso   1.000  H
  H15      1.0000 0.94270  0.01770  0.06090  Biso   1.000  H
  H16      1.0000 0.93150  0.06170  0.00570  Biso   1.000  H
  H17      1.0000 0.05510  0.11210  0.99630  Biso   1.000  H
  H18      1.0000 0.41730  0.13950  0.11350  Biso   1.000  H
  H19      1.0000 0.34710  0.14920  0.18120  Biso   1.000  H
  H20      1.0000 0.15880  0.12960  0.21060  Biso   1.000  H
  H21      1.0000 0.11280  0.85260  0.13860  Biso   1.000  H
  H22      1.0000 0.27080  0.78920  0.13480  Biso   1.000  H
  H23      1.0000 0.27980  0.76250  0.20230  Biso   1.000  H
  H24      1.0000 0.96390  0.87060  0.36720  Biso   1.000  H
  H25      1.0000 0.01170  0.93110  0.37350  Biso   1.000  H
  H26      1.0000 0.09910  0.95830  0.31270  Biso   1.000  H
  H27      1.0000 0.16840  0.04660  0.21220  Biso   1.000  H
  H28      1.0000 0.29370  0.04920  0.21560  Biso   1.000  H
  H29      1.0000 0.37910  0.04690  0.13410  Biso   1.000  H
  H30      1.0000 0.47990  0.01480  0.12160  Biso   1.000  H
  H31      1.0000 0.12730  0.91820  0.16180  Biso   1.000  H
  H32      1.0000 0.26120  0.89620  0.13740  Biso   1.000  H
  H33      1.0000 0.90490  0.02700  0.21920  Biso   1.000  H
  H34      1.0000 0.97140  0.98740  0.22620  Biso   1.000  H
  H35      1.0000 0.68890  0.05160  0.15100  Biso   1.000  H
  H36      1.0000 0.81730  0.05590  0.14830  Biso   1.000  H
  H37      1.0000 0.23000  0.57700  0.33300  Biso   1.000  H
  H38      1.0000 0.29900  0.58700  0.29500  Biso   1.000  H
  H39      1.0000 0.51060  0.37320  0.27920  Biso   1.000  H
  H40      1.0000 0.71290  0.37050  0.24210  Biso   1.000  H
  H41      1.0000 0.74570  0.41220  0.18660  Biso   1.000  H
  H42      1.0000 0.31560  0.49900  0.10420  Biso   1.000  H
  H43      1.0000 0.13510  0.53740  0.13800  Biso   1.000  H
  H44      1.0000 0.10960  0.54370  0.21050  Biso   1.000  H
  H45      1.0000 0.01720  0.65470  0.36590  Biso   1.000  H
  H46      1.0000 0.03160  0.71170  0.40570  Biso   1.000  H
  H47      1.0000 0.07860  0.69990  0.47230  Biso   1.000  H
  H48      1.0000 0.05040  0.53140  0.55880  Biso   1.000  H
  H49      1.0000 0.16200  0.47130  0.52790  Biso   1.000  H
  H50      1.0000 0.26770  0.47310  0.46110  Biso   1.000  H
  H51      1.0000 0.52130  0.48230  0.43910  Biso   1.000  H
  H52      1.0000 0.49890  0.43830  0.49430  Biso   1.000  H
  H53      1.0000 0.66350  0.38790  0.50370  Biso   1.000  H
  H54      1.0000 0.17030  0.36050  0.38650  Biso   1.000  H
  H55      1.0000 0.17750  0.35080  0.31880  Biso   1.000  H
  H56      1.0000 0.99900  0.37040  0.28940  Biso   1.000  H
  H57      1.0000 0.60400  0.64740  0.36140  Biso   1.000  H
  H58      1.0000 0.69480  0.71080  0.36520  Biso   1.000  H
  H59      1.0000 0.74460  0.73750  0.29770  Biso   1.000  H
  H60      1.0000 0.70170  0.62940  0.13280  Biso   1.000  H
  H61      1.0000 0.81630  0.56890  0.12650  Biso   1.000  H
  H62      1.0000 0.87010  0.54170  0.18730  Biso   1.000  H
  H63      1.0000 0.92720  0.45340  0.28780  Biso   1.000  H
  H64      1.0000 0.05850  0.45080  0.28440  Biso   1.000  H
  H65      1.0000 0.06010  0.45310  0.36590  Biso   1.000  H
  H66      1.0000 0.11630  0.48520  0.37840  Biso   1.000  H
  H67      1.0000 0.70730  0.58180  0.33820  Biso   1.000  H
  H68      1.0000 0.79480  0.60380  0.36260  Biso   1.000  H
  H69      1.0000 0.65110  0.47300  0.28080  Biso   1.000  H
  H70      1.0000 0.68500  0.51260  0.27380  Biso   1.000  H
  H71      1.0000 0.39150  0.44840  0.34900  Biso   1.000  H
  H72      1.0000 0.52150  0.44410  0.35170  Biso   1.000  H
  H73      1.0000 0.80700  0.83300  0.42300  Biso   1.000  H
  H74      1.0000 0.88600  0.79500  0.41300  Biso   1.000  H
  H75      1.0000 0.88380  0.77920  0.62680  Biso   1.000  H
  H76      1.0000 0.08340  0.74210  0.62950  Biso   1.000  H
  H77      1.0000 0.15790  0.68660  0.58780  Biso   1.000  H
  H78      1.0000 0.81460  0.60420  0.50100  Biso   1.000  H
  H79      1.0000 0.67250  0.63800  0.46260  Biso   1.000  H
  H80      1.0000 0.65330  0.71050  0.45630  Biso   1.000  H
  H81      1.0000 0.67190  0.86590  0.34530  Biso   1.000  H
  H82      1.0000 0.74330  0.90570  0.28830  Biso   1.000  H
  H83      1.0000 0.77850  0.97230  0.30010  Biso   1.000  H
  H84      1.0000 0.58180  0.05880  0.46860  Biso   1.000  H
  H85      1.0000 0.63330  0.02790  0.52870  Biso   1.000  H
  H86      1.0000 0.74080  0.96110  0.52690  Biso   1.000  H
  H87      1.0000 0.00360  0.93910  0.51770  Biso   1.000  H
  H88      1.0000 0.93720  0.99430  0.56170  Biso   1.000  H
  H89      1.0000 0.05140  0.00370  0.61210  Biso   1.000  H
  H90      1.0000 0.53080  0.88650  0.63950  Biso   1.000  H
  H91      1.0000 0.52830  0.81880  0.64920  Biso   1.000  H
  H92      1.0000 0.36940  0.78940  0.62960  Biso   1.000  H
  H93      1.0000 0.25140  0.86140  0.35260  Biso   1.000  H
  H94      1.0000 0.40560  0.86520  0.28920  Biso   1.000  H
  H95      1.0000 0.48210  0.79770  0.26250  Biso   1.000  H
  H96      1.0000 0.33110  0.63280  0.37060  Biso   1.000  H
  H97      1.0000 0.38520  0.62650  0.43110  Biso   1.000  H
  H98      1.0000 0.41180  0.68730  0.45830  Biso   1.000  H
  H99      1.0000 0.38060  0.78780  0.54660  Biso   1.000  H
  H100     1.0000 0.50930  0.78440  0.54920  Biso   1.000  H
  H101     1.0000 0.51320  0.86590  0.54690  Biso   1.000  H
  H102     1.0000 0.60150  0.87840  0.51480  Biso   1.000  H
  H103     1.0000 0.28910  0.83820  0.41820  Biso   1.000  H
  H104     1.0000 0.39860  0.86260  0.39620  Biso   1.000  H
  H105     1.0000 0.12410  0.78080  0.52700  Biso   1.000  H
  H106     1.0000 0.19760  0.77380  0.48740  Biso   1.000  H
  H107     1.0000 0.83990  0.84900  0.55160  Biso   1.000  H
  H108     1.0000 0.96560  0.85170  0.55590  Biso   1.000  H
  H109     1.0000 0.56300  0.66700  0.07700  Biso   1.000  H
  H110     1.0000 0.59400  0.70500  0.08700  Biso   1.000  H
  H111     1.0000 0.78980  0.72080  0.87320  Biso   1.000  H
  H112     1.0000 0.95500  0.75790  0.87050  Biso   1.000  H
  H113     1.0000 0.93230  0.81340  0.91220  Biso   1.000  H
  H114     1.0000 0.41980  0.89580  0.99900  Biso   1.000  H
  H115     1.0000 0.27310  0.86200  0.03740  Biso   1.000  H
  H116     1.0000 0.32010  0.78950  0.04370  Biso   1.000  H
  H117     1.0000 0.38310  0.63410  0.15470  Biso   1.000  H
  H118     1.0000 0.43730  0.59430  0.21170  Biso   1.000  H
  H119     1.0000 0.55090  0.52770  0.19990  Biso   1.000  H
  H120     1.0000 0.60920  0.44120  0.03140  Biso   1.000  H
  H121     1.0000 0.68990  0.47210  0.97130  Biso   1.000  H
  H122     1.0000 0.72880  0.53890  0.97310  Biso   1.000  H
  H123     1.0000 0.96040  0.56090  0.98230  Biso   1.000  H
  H124     1.0000 0.99320  0.50570  0.93830  Biso   1.000  H
  H125     1.0000 0.16720  0.49630  0.88790  Biso   1.000  H
  H126     1.0000 0.55680  0.61350  0.86050  Biso   1.000  H
  H127     1.0000 0.49630  0.68120  0.85080  Biso   1.000  H
  H128     1.0000 0.28840  0.71060  0.87040  Biso   1.000  H
  H129     1.0000 0.96540  0.63860  0.14740  Biso   1.000  H
  H130     1.0000 0.06000  0.63480  0.21080  Biso   1.000  H
  H131     1.0000 0.04230  0.70230  0.23750  Biso   1.000  H
  H132     1.0000 0.83450  0.86720  0.12940  Biso   1.000  H
  H133     1.0000 0.94280  0.87350  0.06890  Biso   1.000  H
  H134     1.0000 0.05740  0.81270  0.04170  Biso   1.000  H
  H135     1.0000 0.21500  0.71220  0.95340  Biso   1.000  H
  H136     1.0000 0.34290  0.71560  0.95080  Biso   1.000  H
  H137     1.0000 0.42600  0.63410  0.95310  Biso   1.000  H
  H138     1.0000 0.49470  0.62160  0.98520  Biso   1.000  H
  H139     1.0000 0.04550  0.66180  0.08180  Biso   1.000  H
  H140     1.0000 0.15740  0.63740  0.10380  Biso   1.000  H
  H141     1.0000 0.93190  0.71920  0.97300  Biso   1.000  H
  H142     1.0000 0.95880  0.72620  0.01260  Biso   1.000  H
  H143     1.0000 0.74050  0.65100  0.94840  Biso   1.000  H
  H144     1.0000 0.87320  0.64830  0.94410  Biso   1.000  H
  H145     1.0000 0.36000  0.07700  0.83300  Biso   1.000  H
  H146     1.0000 0.31900  0.08700  0.79500  Biso   1.000  H
  H147     1.0000 0.33700  0.87320  0.77920  Biso   1.000  H
  H148     1.0000 0.17450  0.87050  0.74210  Biso   1.000  H
  H149     1.0000 0.15550  0.91220  0.68660  Biso   1.000  H
  H150     1.0000 0.58120  0.99900  0.60420  Biso   1.000  H
  H151     1.0000 0.68950  0.03740  0.63800  Biso   1.000  H
  H152     1.0000 0.63620  0.04370  0.71050  Biso   1.000  H
  H153     1.0000 0.46220  0.15470  0.86590  Biso   1.000  H
  H154     1.0000 0.35100  0.21170  0.90570  Biso   1.000  H
  H155     1.0000 0.24920  0.19990  0.97230  Biso   1.000  H
  H156     1.0000 0.35940  0.03140  0.05880  Biso   1.000  H
  H157     1.0000 0.33880  0.97130  0.02790  Biso   1.000  H
  H158     1.0000 0.29810  0.97310  0.96110  Biso   1.000  H
  H159     1.0000 0.05730  0.98230  0.93910  Biso   1.000  H
  H160     1.0000 0.06850  0.93830  0.99430  Biso   1.000  H
  H161     1.0000 0.94490  0.88790  0.00370  Biso   1.000  H
  H162     1.0000 0.58270  0.86050  0.88650  Biso   1.000  H
  H163     1.0000 0.65290  0.85080  0.81880  Biso   1.000  H
  H164     1.0000 0.84120  0.87040  0.78940  Biso   1.000  H
  H165     1.0000 0.88720  0.14740  0.86140  Biso   1.000  H
  H166     1.0000 0.72920  0.21080  0.86520  Biso   1.000  H
  H167     1.0000 0.72020  0.23750  0.79770  Biso   1.000  H
  H168     1.0000 0.03610  0.12940  0.63280  Biso   1.000  H
  H169     1.0000 0.98830  0.06890  0.62650  Biso   1.000  H
  H170     1.0000 0.90090  0.04170  0.68730  Biso   1.000  H
  H171     1.0000 0.83160  0.95340  0.78780  Biso   1.000  H
  H172     1.0000 0.70630  0.95080  0.78440  Biso   1.000  H
  H173     1.0000 0.62090  0.95310  0.86590  Biso   1.000  H
  H174     1.0000 0.52010  0.98520  0.87840  Biso   1.000  H
  H175     1.0000 0.87270  0.08180  0.83820  Biso   1.000  H
  H176     1.0000 0.73880  0.10380  0.86260  Biso   1.000  H
  H177     1.0000 0.09510  0.97300  0.78080  Biso   1.000  H
  H178     1.0000 0.02860  0.01260  0.77380  Biso   1.000  H
  H179     1.0000 0.31110  0.94840  0.84900  Biso   1.000  H
  H180     1.0000 0.18270  0.94410  0.85170  Biso   1.000  H
  H181     1.0000 0.77000  0.42300  0.66700  Biso   1.000  H
  H182     1.0000 0.70100  0.41300  0.70500  Biso   1.000  H
  H183     1.0000 0.48940  0.62680  0.72080  Biso   1.000  H
  H184     1.0000 0.28710  0.62950  0.75790  Biso   1.000  H
  H185     1.0000 0.25430  0.58780  0.81340  Biso   1.000  H
  H186     1.0000 0.68440  0.50100  0.89580  Biso   1.000  H
  H187     1.0000 0.86490  0.46260  0.86200  Biso   1.000  H
  H188     1.0000 0.89040  0.45630  0.78950  Biso   1.000  H
  H189     1.0000 0.98280  0.34530  0.63410  Biso   1.000  H
  H190     1.0000 0.96840  0.28830  0.59430  Biso   1.000  H
  H191     1.0000 0.92140  0.30010  0.52770  Biso   1.000  H
  H192     1.0000 0.94960  0.46860  0.44120  Biso   1.000  H
  H193     1.0000 0.83800  0.52870  0.47210  Biso   1.000  H
  H194     1.0000 0.73230  0.52690  0.53890  Biso   1.000  H
  H195     1.0000 0.47870  0.51770  0.56090  Biso   1.000  H
  H196     1.0000 0.50110  0.56170  0.50570  Biso   1.000  H
  H197     1.0000 0.33650  0.61210  0.49630  Biso   1.000  H
  H198     1.0000 0.82970  0.63950  0.61350  Biso   1.000  H
  H199     1.0000 0.82250  0.64920  0.68120  Biso   1.000  H
  H200     1.0000 0.00100  0.62960  0.71060  Biso   1.000  H
  H201     1.0000 0.39600  0.35260  0.63860  Biso   1.000  H
  H202     1.0000 0.30520  0.28920  0.63480  Biso   1.000  H
  H203     1.0000 0.25540  0.26250  0.70230  Biso   1.000  H
  H204     1.0000 0.29830  0.37060  0.86720  Biso   1.000  H
  H205     1.0000 0.18370  0.43110  0.87350  Biso   1.000  H
  H206     1.0000 0.12990  0.45830  0.81270  Biso   1.000  H
  H207     1.0000 0.07280  0.54660  0.71220  Biso   1.000  H
  H208     1.0000 0.94150  0.54920  0.71560  Biso   1.000  H
  H209     1.0000 0.93990  0.54690  0.63410  Biso   1.000  H
  H210     1.0000 0.88370  0.51480  0.62160  Biso   1.000  H
  H211     1.0000 0.29270  0.41820  0.66180  Biso   1.000  H
  H212     1.0000 0.20520  0.39620  0.63740  Biso   1.000  H
  H213     1.0000 0.34890  0.52700  0.71920  Biso   1.000  H
  H214     1.0000 0.31500  0.48740  0.72620  Biso   1.000  H
  H215     1.0000 0.60850  0.55160  0.65100  Biso   1.000  H
  H216     1.0000 0.47850  0.55590  0.64830  Biso   1.000  H
  H217     1.0000 0.19300  0.16700  0.57700  Biso   1.000  H
  H218     1.0000 0.11400  0.20500  0.58700  Biso   1.000  H
  H219     1.0000 0.11620  0.22080  0.37320  Biso   1.000  H
  H220     1.0000 0.91660  0.25790  0.37050  Biso   1.000  H
  H221     1.0000 0.84210  0.31340  0.41220  Biso   1.000  H
  H222     1.0000 0.18540  0.39580  0.49900  Biso   1.000  H
  H223     1.0000 0.32750  0.36200  0.53740  Biso   1.000  H
  H224     1.0000 0.34670  0.28950  0.54370  Biso   1.000  H
  H225     1.0000 0.32810  0.13410  0.65470  Biso   1.000  H
  H226     1.0000 0.25670  0.09430  0.71170  Biso   1.000  H
  H227     1.0000 0.22150  0.02770  0.69990  Biso   1.000  H
  H228     1.0000 0.41820  0.94120  0.53140  Biso   1.000  H
  H229     1.0000 0.36670  0.97210  0.47130  Biso   1.000  H
  H230     1.0000 0.25920  0.03890  0.47310  Biso   1.000  H
  H231     1.0000 0.99640  0.06090  0.48230  Biso   1.000  H
  H232     1.0000 0.06280  0.00570  0.43830  Biso   1.000  H
  H233     1.0000 0.94860  0.99630  0.38790  Biso   1.000  H
  H234     1.0000 0.46920  0.11350  0.36050  Biso   1.000  H
  H235     1.0000 0.47170  0.18120  0.35080  Biso   1.000  H
  H236     1.0000 0.63060  0.21060  0.37040  Biso   1.000  H
  H237     1.0000 0.74860  0.13860  0.64740  Biso   1.000  H
  H238     1.0000 0.59440  0.13480  0.71080  Biso   1.000  H
  H239     1.0000 0.51790  0.20230  0.73750  Biso   1.000  H
  H240     1.0000 0.66890  0.36720  0.62940  Biso   1.000  H
  H241     1.0000 0.61480  0.37350  0.56890  Biso   1.000  H
  H242     1.0000 0.58820  0.31270  0.54170  Biso   1.000  H
  H243     1.0000 0.61940  0.21220  0.45340  Biso   1.000  H
  H244     1.0000 0.49070  0.21560  0.45080  Biso   1.000  H
  H245     1.0000 0.48680  0.13410  0.45310  Biso   1.000  H
  H246     1.0000 0.39850  0.12160  0.48520  Biso   1.000  H
  H247     1.0000 0.71090  0.16180  0.58180  Biso   1.000  H
  H248     1.0000 0.60140  0.13740  0.60380  Biso   1.000  H
  H249     1.0000 0.87590  0.21920  0.47300  Biso   1.000  H
  H250     1.0000 0.80240  0.22620  0.51260  Biso   1.000  H
  H251     1.0000 0.16010  0.15100  0.44840  Biso   1.000  H
  H252     1.0000 0.03440  0.14830  0.44410  Biso   1.000  H
  H253     1.0000 0.43700  0.33300  0.92300  Biso   1.000  H
  H254     1.0000 0.40600  0.29500  0.91300  Biso   1.000  H
  H255     1.0000 0.21020  0.27920  0.12680  Biso   1.000  H
  H256     1.0000 0.04500  0.24210  0.12950  Biso   1.000  H
  H257     1.0000 0.06770  0.18660  0.08780  Biso   1.000  H
  H258     1.0000 0.58020  0.10420  0.00100  Biso   1.000  H
  H259     1.0000 0.72690  0.13800  0.96260  Biso   1.000  H
  H260     1.0000 0.67990  0.21050  0.95630  Biso   1.000  H
  H261     1.0000 0.61690  0.36590  0.84530  Biso   1.000  H
  H262     1.0000 0.56270  0.40570  0.78830  Biso   1.000  H
  H263     1.0000 0.44910  0.47230  0.80010  Biso   1.000  H
  H264     1.0000 0.39080  0.55880  0.96860  Biso   1.000  H
  H265     1.0000 0.31010  0.52790  0.02870  Biso   1.000  H
  H266     1.0000 0.27120  0.46110  0.02690  Biso   1.000  H
  H267     1.0000 0.03960  0.43910  0.01770  Biso   1.000  H
  H268     1.0000 0.00680  0.49430  0.06170  Biso   1.000  H
  H269     1.0000 0.83280  0.50370  0.11210  Biso   1.000  H
  H270     1.0000 0.44320  0.38650  0.13950  Biso   1.000  H
  H271     1.0000 0.50370  0.31880  0.14920  Biso   1.000  H
  H272     1.0000 0.71160  0.28940  0.12960  Biso   1.000  H
  H273     1.0000 0.03460  0.36140  0.85260  Biso   1.000  H
  H274     1.0000 0.94000  0.36520  0.78920  Biso   1.000  H
  H275     1.0000 0.95770  0.29770  0.76250  Biso   1.000  H
  H276     1.0000 0.16550  0.13280  0.87060  Biso   1.000  H
  H277     1.0000 0.05720  0.12650  0.93110  Biso   1.000  H
  H278     1.0000 0.94260  0.18730  0.95830  Biso   1.000  H
  H279     1.0000 0.78500  0.28780  0.04660  Biso   1.000  H
  H280     1.0000 0.65710  0.28440  0.04920  Biso   1.000  H
  H281     1.0000 0.57400  0.36590  0.04690  Biso   1.000  H
  H282     1.0000 0.50530  0.37840  0.01480  Biso   1.000  H
  H283     1.0000 0.95450  0.33820  0.91820  Biso   1.000  H
  H284     1.0000 0.84260  0.36260  0.89620  Biso   1.000  H
  H285     1.0000 0.06810  0.28080  0.02700  Biso   1.000  H
  H286     1.0000 0.04120  0.27380  0.98740  Biso   1.000  H
  H287     1.0000 0.25950  0.34900  0.05160  Biso   1.000  H
  H288     1.0000 0.12680  0.35170  0.05590  Biso   1.000  H
  C1       1.0000 0.48860  0.07890  0.23050  Biso   1.000  C
  C2       1.0000 0.59540  0.07990  0.25470  Biso   1.000  C
  C3       1.0000 0.67440  0.10920  0.24280  Biso   1.000  C
  C4       1.0000 0.77000  0.11100  0.26540  Biso   1.000  C
  C5       1.0000 0.78150  0.08560  0.29840  Biso   1.000  C
  C6       1.0000 0.61480  0.05460  0.28820  Biso   1.000  C
  C7       1.0000 0.53080  0.02460  0.30580  Biso   1.000  C
  C8       1.0000 0.43260  0.00090  0.36710  Biso   1.000  C
  C9       1.0000 0.37050  0.97660  0.34720  Biso   1.000  C
  C10      1.0000 0.40020  0.97360  0.30380  Biso   1.000  C
  C11      1.0000 0.48530  0.99740  0.28280  Biso   1.000  C
  C12      1.0000 0.53120  0.98880  0.23740  Biso   1.000  C
  C13      1.0000 0.48830  0.92370  0.11290  Biso   1.000  C
  C14      1.0000 0.57990  0.88830  0.09030  Biso   1.000  C
  C15      1.0000 0.58010  0.84890  0.10770  Biso   1.000  C
  C16      1.0000 0.64620  0.81500  0.08400  Biso   1.000  C
  C17      1.0000 0.70880  0.82260  0.04360  Biso   1.000  C
  C18      1.0000 0.65080  0.89260  0.05160  Biso   1.000  C
  C19      1.0000 0.66250  0.93190  0.03070  Biso   1.000  C
  C20      1.0000 0.64970  0.96850  0.96870  Biso   1.000  C
  C21      1.0000 0.66550  0.00410  0.98690  Biso   1.000  C
  C22      1.0000 0.68750  0.00320  0.02700  Biso   1.000  C
  C23      1.0000 0.68800  0.96750  0.04930  Biso   1.000  C
  C24      1.0000 0.73130  0.96440  0.09180  Biso   1.000  C
  C25      1.0000 0.06650  0.01760  0.12380  Biso   1.000  C
  C26      1.0000 0.05330  0.04810  0.09070  Biso   1.000  C
  C27      1.0000 0.98460  0.04020  0.05860  Biso   1.000  C
  C28      1.0000 0.98080  0.06560  0.02520  Biso   1.000  C
  C29      1.0000 0.05040  0.09700  0.02060  Biso   1.000  C
  C30      1.0000 0.10830  0.08310  0.08550  Biso   1.000  C
  C31      1.0000 0.17170  0.10080  0.11680  Biso   1.000  C
  C32      1.0000 0.34230  0.13090  0.12470  Biso   1.000  C
  C33      1.0000 0.30110  0.13700  0.16520  Biso   1.000  C
  C34      1.0000 0.19000  0.12490  0.18270  Biso   1.000  C
  C35      1.0000 0.12660  0.10600  0.15880  Biso   1.000  C
  C36      1.0000 0.00750  0.09130  0.17810  Biso   1.000  C
  C37      1.0000 0.97470  0.90220  0.19620  Biso   1.000  C
  C38      1.0000 0.07950  0.86240  0.20040  Biso   1.000  C
  C39      1.0000 0.13590  0.84090  0.16290  Biso   1.000  C
  C40      1.0000 0.22750  0.80210  0.15890  Biso   1.000  C
  C41      1.0000 0.23470  0.78880  0.19960  Biso   1.000  C
  C42      1.0000 0.11930  0.84840  0.23500  Biso   1.000  C
  C43      1.0000 0.07780  0.87280  0.27300  Biso   1.000  C
  C44      1.0000 0.00030  0.88170  0.34270  Biso   1.000  C
  C45      1.0000 0.02710  0.91740  0.34840  Biso   1.000  C
  C46      1.0000 0.08100  0.93160  0.31260  Biso   1.000  C
  C47      1.0000 0.11320  0.91040  0.27440  Biso   1.000  C
  C48      1.0000 0.18470  0.92990  0.23950  Biso   1.000  C
  C49      1.0000 0.29800  0.42110  0.26950  Biso   1.000  C
  C50      1.0000 0.43000  0.42010  0.24530  Biso   1.000  C
  C51      1.0000 0.52640  0.39080  0.25720  Biso   1.000  C
  C52      1.0000 0.64640  0.38900  0.23460  Biso   1.000  C
  C53      1.0000 0.66550  0.41440  0.20160  Biso   1.000  C
  C54      1.0000 0.45760  0.44540  0.21180  Biso   1.000  C
  C55      1.0000 0.36120  0.47540  0.19420  Biso   1.000  C
  C56      1.0000 0.30060  0.49910  0.13290  Biso   1.000  C
  C57      1.0000 0.19430  0.52340  0.15280  Biso   1.000  C
  C58      1.0000 0.17760  0.52640  0.19620  Biso   1.000  C
  C59      1.0000 0.26550  0.50260  0.21720  Biso   1.000  C
  C60      1.0000 0.25740  0.51120  0.26260  Biso   1.000  C
  C61      1.0000 0.02490  0.57630  0.38710  Biso   1.000  C
  C62      1.0000 0.05850  0.61170  0.40970  Biso   1.000  C
  C63      1.0000 0.03670  0.65110  0.39230  Biso   1.000  C
  C64      1.0000 0.04520  0.68500  0.41600  Biso   1.000  C
  C65      1.0000 0.07500  0.67740  0.45640  Biso   1.000  C
  C66      1.0000 0.09500  0.60740  0.44840  Biso   1.000  C
  C67      1.0000 0.12510  0.56810  0.46930  Biso   1.000  C
  C68      1.0000 0.08690  0.53150  0.53130  Biso   1.000  C
  C69      1.0000 0.15650  0.49590  0.51310  Biso   1.000  C
  C70      1.0000 0.21770  0.49680  0.47300  Biso   1.000  C
  C71      1.0000 0.20480  0.53250  0.45070  Biso   1.000  C
  C72      1.0000 0.28750  0.53560  0.40820  Biso   1.000  C
  C73      1.0000 0.70790  0.48240  0.37620  Biso   1.000  C
  C74      1.0000 0.69210  0.45190  0.40930  Biso   1.000  C
  C75      1.0000 0.58340  0.45980  0.44140  Biso   1.000  C
  C76      1.0000 0.57160  0.43440  0.47480  Biso   1.000  C
  C77      1.0000 0.66800  0.40300  0.47940  Biso   1.000  C
  C78      1.0000 0.77690  0.41690  0.41450  Biso   1.000  C
  C79      1.0000 0.88930  0.39920  0.38320  Biso   1.000  C
  C80      1.0000 0.09790  0.36910  0.37530  Biso   1.000  C
  C81      1.0000 0.10330  0.36300  0.33480  Biso   1.000  C
  C82      1.0000 0.99760  0.37510  0.31730  Biso   1.000  C
  C83      1.0000 0.89140  0.39400  0.34120  Biso   1.000  C
  C84      1.0000 0.77690  0.40870  0.32190  Biso   1.000  C
  C85      1.0000 0.57310  0.59780  0.30380  Biso   1.000  C
  C86      1.0000 0.64230  0.63760  0.29960  Biso   1.000  C
  C87      1.0000 0.63970  0.65910  0.33710  Biso   1.000  C
  C88      1.0000 0.68850  0.69790  0.34110  Biso   1.000  C
  C89      1.0000 0.72310  0.71120  0.30040  Biso   1.000  C
  C90      1.0000 0.70270  0.65160  0.26500  Biso   1.000  C
  C91      1.0000 0.72360  0.62720  0.22700  Biso   1.000  C
  C92      1.0000 0.72470  0.61830  0.15730  Biso   1.000  C
  C93      1.0000 0.79290  0.58260  0.15160  Biso   1.000  C
  C94      1.0000 0.82520  0.56840  0.18740  Biso   1.000  C
  C95      1.0000 0.79800  0.58960  0.22560  Biso   1.000  C
  C96      1.0000 0.85410  0.57010  0.26050  Biso   1.000  C
  C97      1.0000 0.71910  0.76950  0.57890  Biso   1.000  C
  C98      1.0000 0.85010  0.74530  0.57990  Biso   1.000  C
  C99      1.0000 0.91720  0.75720  0.60920  Biso   1.000  C
  C100     1.0000 0.03540  0.73460  0.61100  Biso   1.000  C
  C101     1.0000 0.07990  0.70160  0.58560  Biso   1.000  C
  C102     1.0000 0.90300  0.71180  0.55460  Biso   1.000  C
  C103     1.0000 0.83660  0.69420  0.52460  Biso   1.000  C
  C104     1.0000 0.79970  0.63290  0.50090  Biso   1.000  C
  C105     1.0000 0.71770  0.65280  0.47660  Biso   1.000  C
  C106     1.0000 0.70400  0.69620  0.47360  Biso   1.000  C
  C107     1.0000 0.76810  0.71720  0.49740  Biso   1.000  C
  C108     1.0000 0.76860  0.76260  0.48880  Biso   1.000  C
  C109     1.0000 0.60120  0.88710  0.42370  Biso   1.000  C
  C110     1.0000 0.67020  0.90970  0.38830  Biso   1.000  C
  C111     1.0000 0.68780  0.89230  0.34890  Biso   1.000  C
  C112     1.0000 0.73020  0.91600  0.31500  Biso   1.000  C
  C113     1.0000 0.75240  0.95640  0.32260  Biso   1.000  C
  C114     1.0000 0.70240  0.94840  0.39260  Biso   1.000  C
  C115     1.0000 0.69320  0.96930  0.43190  Biso   1.000  C
  C116     1.0000 0.61840  0.03130  0.46850  Biso   1.000  C
  C117     1.0000 0.65240  0.01310  0.50410  Biso   1.000  C
  C118     1.0000 0.71450  0.97300  0.50320  Biso   1.000  C
  C119     1.0000 0.73730  0.95070  0.46750  Biso   1.000  C
  C120     1.0000 0.82310  0.90820  0.46440  Biso   1.000  C
  C121     1.0000 0.19030  0.87620  0.51760  Biso   1.000  C
  C122     1.0000 0.14400  0.90930  0.54810  Biso   1.000  C
  C123     1.0000 0.04320  0.94140  0.54020  Biso   1.000  C
  C124     1.0000 0.00600  0.97480  0.56560  Biso   1.000  C
  C125     1.0000 0.07100  0.97940  0.59700  Biso   1.000  C
  C126     1.0000 0.19380  0.91450  0.58310  Biso   1.000  C
  C127     1.0000 0.28850  0.88320  0.60080  Biso   1.000  C
  C128     1.0000 0.46700  0.87530  0.63090  Biso   1.000  C
  C129     1.0000 0.46630  0.83480  0.63700  Biso   1.000  C
  C130     1.0000 0.37270  0.81730  0.62490  Biso   1.000  C
  C131     1.0000 0.28540  0.84120  0.60600  Biso   1.000  C
  C132     1.0000 0.18560  0.82190  0.59130  Biso   1.000  C
  C133     1.0000 0.17090  0.80380  0.40220  Biso   1.000  C
  C134     1.0000 0.27990  0.79960  0.36240  Biso   1.000  C
  C135     1.0000 0.29880  0.83710  0.34090  Biso   1.000  C
  C136     1.0000 0.38640  0.84110  0.30210  Biso   1.000  C
  C137     1.0000 0.43430  0.80040  0.28880  Biso   1.000  C
  C138     1.0000 0.35430  0.76500  0.34840  Biso   1.000  C
  C139     1.0000 0.35080  0.72700  0.37280  Biso   1.000  C
  C140     1.0000 0.34300  0.65730  0.38170  Biso   1.000  C
  C141     1.0000 0.37550  0.65160  0.41740  Biso   1.000  C
  C142     1.0000 0.39360  0.68740  0.43160  Biso   1.000  C
  C143     1.0000 0.38760  0.72560  0.41040  Biso   1.000  C
  C144     1.0000 0.42420  0.76050  0.42990  Biso   1.000  C
  C145     1.0000 0.56750  0.73050  0.92110  Biso   1.000  C
  C146     1.0000 0.67530  0.75470  0.92010  Biso   1.000  C
  C147     1.0000 0.78360  0.74280  0.89080  Biso   1.000  C
  C148     1.0000 0.88100  0.76540  0.88900  Biso   1.000  C
  C149     1.0000 0.86710  0.79840  0.91440  Biso   1.000  C
  C150     1.0000 0.66940  0.78820  0.94540  Biso   1.000  C
  C151     1.0000 0.55540  0.80580  0.97540  Biso   1.000  C
  C152     1.0000 0.43350  0.86710  0.99910  Biso   1.000  C
  C153     1.0000 0.34710  0.84720  0.02340  Biso   1.000  C
  C154     1.0000 0.37380  0.80380  0.02640  Biso   1.000  C
  C155     1.0000 0.48270  0.78280  0.00260  Biso   1.000  C
  C156     1.0000 0.52000  0.73740  0.01120  Biso   1.000  C
  C157     1.0000 0.41200  0.61290  0.07630  Biso   1.000  C
  C158     1.0000 0.46820  0.59030  0.11170  Biso   1.000  C
  C159     1.0000 0.42900  0.60770  0.15110  Biso   1.000  C
  C160     1.0000 0.46120  0.58400  0.18500  Biso   1.000  C
  C161     1.0000 0.53140  0.54360  0.17740  Biso   1.000  C
  C162     1.0000 0.54340  0.55160  0.10740  Biso   1.000  C
  C163     1.0000 0.59440  0.53070  0.06810  Biso   1.000  C
  C164     1.0000 0.61820  0.46870  0.03150  Biso   1.000  C
  C165     1.0000 0.66960  0.48690  0.99590  Biso   1.000  C
  C166     1.0000 0.69070  0.52700  0.99680  Biso   1.000  C
  C167     1.0000 0.65550  0.54930  0.03250  Biso   1.000  C
  C168     1.0000 0.69570  0.59180  0.03560  Biso   1.000  C
  C169     1.0000 0.08410  0.62380  0.98240  Biso   1.000  C
  C170     1.0000 0.10140  0.59070  0.95190  Biso   1.000  C
  C171     1.0000 0.02480  0.55860  0.95980  Biso   1.000  C
  C172     1.0000 0.04640  0.52520  0.93440  Biso   1.000  C
  C173     1.0000 0.14740  0.52060  0.90300  Biso   1.000  C
  C174     1.0000 0.19140  0.58550  0.91690  Biso   1.000  C
  C175     1.0000 0.27250  0.61680  0.89920  Biso   1.000  C
  C176     1.0000 0.47320  0.62470  0.86910  Biso   1.000  C
  C177     1.0000 0.43810  0.66520  0.86300  Biso   1.000  C
  C178     1.0000 0.31490  0.68270  0.87510  Biso   1.000  C
  C179     1.0000 0.23260  0.65880  0.89400  Biso   1.000  C
  C180     1.0000 0.09880  0.67810  0.90870  Biso   1.000  C
  C181     1.0000 0.87690  0.69620  0.09780  Biso   1.000  C
  C182     1.0000 0.94190  0.70040  0.13760  Biso   1.000  C
  C183     1.0000 0.97680  0.66290  0.15910  Biso   1.000  C
  C184     1.0000 0.02960  0.65890  0.19790  Biso   1.000  C
  C185     1.0000 0.02350  0.69960  0.21120  Biso   1.000  C
  C186     1.0000 0.96770  0.73500  0.15160  Biso   1.000  C
  C187     1.0000 0.95060  0.77300  0.12720  Biso   1.000  C
  C188     1.0000 0.88200  0.84270  0.11830  Biso   1.000  C
  C189     1.0000 0.94450  0.84840  0.08260  Biso   1.000  C
  C190     1.0000 0.01260  0.81260  0.06840  Biso   1.000  C
  C191     1.0000 0.02360  0.77440  0.08960  Biso   1.000  C
  C192     1.0000 0.11460  0.73950  0.07010  Biso   1.000  C
  C193     1.0000 0.51140  0.92110  0.76950  Biso   1.000  C
  C194     1.0000 0.40460  0.92010  0.74530  Biso   1.000  C
  C195     1.0000 0.32560  0.89080  0.75720  Biso   1.000  C
  C196     1.0000 0.23000  0.88900  0.73460  Biso   1.000  C
  C197     1.0000 0.21850  0.91440  0.70160  Biso   1.000  C
  C198     1.0000 0.38520  0.94540  0.71180  Biso   1.000  C
  C199     1.0000 0.46920  0.97540  0.69420  Biso   1.000  C
  C200     1.0000 0.56740  0.99910  0.63290  Biso   1.000  C
  C201     1.0000 0.62950  0.02340  0.65280  Biso   1.000  C
  C202     1.0000 0.59980  0.02640  0.69620  Biso   1.000  C
  C203     1.0000 0.51470  0.00260  0.71720  Biso   1.000  C
  C204     1.0000 0.46880  0.01120  0.76260  Biso   1.000  C
  C205     1.0000 0.51170  0.07630  0.88710  Biso   1.000  C
  C206     1.0000 0.42010  0.11170  0.90970  Biso   1.000  C
  C207     1.0000 0.41990  0.15110  0.89230  Biso   1.000  C
  C208     1.0000 0.35380  0.18500  0.91600  Biso   1.000  C
  C209     1.0000 0.29120  0.17740  0.95640  Biso   1.000  C
  C210     1.0000 0.34920  0.10740  0.94840  Biso   1.000  C
  C211     1.0000 0.33750  0.06810  0.96930  Biso   1.000  C
  C212     1.0000 0.35030  0.03150  0.03130  Biso   1.000  C
  C213     1.0000 0.33450  0.99590  0.01310  Biso   1.000  C
  C214     1.0000 0.31250  0.99680  0.97300  Biso   1.000  C
  C215     1.0000 0.31200  0.03250  0.95070  Biso   1.000  C
  C216     1.0000 0.26870  0.03560  0.90820  Biso   1.000  C
  C217     1.0000 0.93350  0.98240  0.87620  Biso   1.000  C
  C218     1.0000 0.94670  0.95190  0.90930  Biso   1.000  C
  C219     1.0000 0.01540  0.95980  0.94140  Biso   1.000  C
  C220     1.0000 0.01920  0.93440  0.97480  Biso   1.000  C
  C221     1.0000 0.94960  0.90300  0.97940  Biso   1.000  C
  C222     1.0000 0.89170  0.91690  0.91450  Biso   1.000  C
  C223     1.0000 0.82830  0.89920  0.88320  Biso   1.000  C
  C224     1.0000 0.65770  0.86910  0.87530  Biso   1.000  C
  C225     1.0000 0.69890  0.86300  0.83480  Biso   1.000  C
  C226     1.0000 0.81000  0.87510  0.81730  Biso   1.000  C
  C227     1.0000 0.87340  0.89400  0.84120  Biso   1.000  C
  C228     1.0000 0.99250  0.90870  0.82190  Biso   1.000  C
  C229     1.0000 0.02530  0.09780  0.80380  Biso   1.000  C
  C230     1.0000 0.92050  0.13760  0.79960  Biso   1.000  C
  C231     1.0000 0.86410  0.15910  0.83710  Biso   1.000  C
  C232     1.0000 0.77250  0.19790  0.84110  Biso   1.000  C
  C233     1.0000 0.76530  0.21120  0.80040  Biso   1.000  C
  C234     1.0000 0.88070  0.15160  0.76500  Biso   1.000  C
  C235     1.0000 0.92220  0.12720  0.72700  Biso   1.000  C
  C236     1.0000 0.99970  0.11830  0.65730  Biso   1.000  C
  C237     1.0000 0.97290  0.08260  0.65160  Biso   1.000  C
  C238     1.0000 0.91900  0.06840  0.68740  Biso   1.000  C
  C239     1.0000 0.88680  0.08960  0.72560  Biso   1.000  C
  C240     1.0000 0.81530  0.07010  0.76050  Biso   1.000  C
  C241     1.0000 0.70200  0.57890  0.73050  Biso   1.000  C
  C242     1.0000 0.57000  0.57990  0.75470  Biso   1.000  C
  C243     1.0000 0.47360  0.60920  0.74280  Biso   1.000  C
  C244     1.0000 0.35360  0.61100  0.76540  Biso   1.000  C
  C245     1.0000 0.33450  0.58560  0.79840  Biso   1.000  C
  C246     1.0000 0.54240  0.55460  0.78820  Biso   1.000  C
  C247     1.0000 0.63880  0.52460  0.80580  Biso   1.000  C
  C248     1.0000 0.69940  0.50090  0.86710  Biso   1.000  C
  C249     1.0000 0.80570  0.47660  0.84720  Biso   1.000  C
  C250     1.0000 0.82240  0.47360  0.80380  Biso   1.000  C
  C251     1.0000 0.73450  0.49740  0.78280  Biso   1.000  C
  C252     1.0000 0.74260  0.48880  0.73740  Biso   1.000  C
  C253     1.0000 0.97510  0.42370  0.61290  Biso   1.000  C
  C254     1.0000 0.94150  0.38830  0.59030  Biso   1.000  C
  C255     1.0000 0.96330  0.34890  0.60770  Biso   1.000  C
  C256     1.0000 0.95480  0.31500  0.58400  Biso   1.000  C
  C257     1.0000 0.92500  0.32260  0.54360  Biso   1.000  C
  C258     1.0000 0.90500  0.39260  0.55160  Biso   1.000  C
  C259     1.0000 0.87490  0.43190  0.53070  Biso   1.000  C
  C260     1.0000 0.91310  0.46850  0.46870  Biso   1.000  C
  C261     1.0000 0.84350  0.50410  0.48690  Biso   1.000  C
  C262     1.0000 0.78230  0.50320  0.52700  Biso   1.000  C
  C263     1.0000 0.79520  0.46750  0.54930  Biso   1.000  C
  C264     1.0000 0.71250  0.46440  0.59180  Biso   1.000  C
  C265     1.0000 0.29210  0.51760  0.62380  Biso   1.000  C
  C266     1.0000 0.30790  0.54810  0.59070  Biso   1.000  C
  C267     1.0000 0.41660  0.54020  0.55860  Biso   1.000  C
  C268     1.0000 0.42840  0.56560  0.52520  Biso   1.000  C
  C269     1.0000 0.33200  0.59700  0.52060  Biso   1.000  C
  C270     1.0000 0.22310  0.58310  0.58550  Biso   1.000  C
  C271     1.0000 0.11070  0.60080  0.61680  Biso   1.000  C
  C272     1.0000 0.90210  0.63090  0.62470  Biso   1.000  C
  C273     1.0000 0.89670  0.63700  0.66520  Biso   1.000  C
  C274     1.0000 0.00240  0.62490  0.68270  Biso   1.000  C
  C275     1.0000 0.10860  0.60600  0.65880  Biso   1.000  C
  C276     1.0000 0.22310  0.59130  0.67810  Biso   1.000  C
  C277     1.0000 0.42690  0.40220  0.69620  Biso   1.000  C
  C278     1.0000 0.35770  0.36240  0.70040  Biso   1.000  C
  C279     1.0000 0.36030  0.34090  0.66290  Biso   1.000  C
  C280     1.0000 0.31150  0.30210  0.65890  Biso   1.000  C
  C281     1.0000 0.27690  0.28880  0.69960  Biso   1.000  C
  C282     1.0000 0.29730  0.34840  0.73500  Biso   1.000  C
  C283     1.0000 0.27640  0.37280  0.77300  Biso   1.000  C
  C284     1.0000 0.27530  0.38170  0.84270  Biso   1.000  C
  C285     1.0000 0.20710  0.41740  0.84840  Biso   1.000  C
  C286     1.0000 0.17480  0.43160  0.81260  Biso   1.000  C
  C287     1.0000 0.20200  0.41040  0.77440  Biso   1.000  C
  C288     1.0000 0.14590  0.42990  0.73950  Biso   1.000  C
  C289     1.0000 0.28090  0.23050  0.42110  Biso   1.000  C
  C290     1.0000 0.14990  0.25470  0.42010  Biso   1.000  C
  C291     1.0000 0.08280  0.24280  0.39080  Biso   1.000  C
  C292     1.0000 0.96460  0.26540  0.38900  Biso   1.000  C
  C293     1.0000 0.92010  0.29840  0.41440  Biso   1.000  C
  C294     1.0000 0.09700  0.28820  0.44540  Biso   1.000  C
  C295     1.0000 0.16340  0.30580  0.47540  Biso   1.000  C
  C296     1.0000 0.20030  0.36710  0.49910  Biso   1.000  C
  C297     1.0000 0.28230  0.34720  0.52340  Biso   1.000  C
  C298     1.0000 0.29600  0.30380  0.52640  Biso   1.000  C
  C299     1.0000 0.23190  0.28280  0.50260  Biso   1.000  C
  C300     1.0000 0.23140  0.23740  0.51120  Biso   1.000  C
  C301     1.0000 0.39880  0.11290  0.57630  Biso   1.000  C
  C302     1.0000 0.32980  0.09030  0.61170  Biso   1.000  C
  C303     1.0000 0.31220  0.10770  0.65110  Biso   1.000  C
  C304     1.0000 0.26980  0.08400  0.68500  Biso   1.000  C
  C305     1.0000 0.24760  0.04360  0.67740  Biso   1.000  C
  C306     1.0000 0.29760  0.05160  0.60740  Biso   1.000  C
  C307     1.0000 0.30680  0.03070  0.56810  Biso   1.000  C
  C308     1.0000 0.38160  0.96870  0.53150  Biso   1.000  C
  C309     1.0000 0.34760  0.98690  0.49590  Biso   1.000  C
  C310     1.0000 0.28550  0.02700  0.49680  Biso   1.000  C
  C311     1.0000 0.26270  0.04930  0.53250  Biso   1.000  C
  C312     1.0000 0.17690  0.09180  0.53560  Biso   1.000  C
  C313     1.0000 0.80970  0.12380  0.48240  Biso   1.000  C
  C314     1.0000 0.85600  0.09070  0.45190  Biso   1.000  C
  C315     1.0000 0.95680  0.05860  0.45980  Biso   1.000  C
  C316     1.0000 0.99400  0.02520  0.43440  Biso   1.000  C
  C317     1.0000 0.92900  0.02060  0.40300  Biso   1.000  C
  C318     1.0000 0.80620  0.08550  0.41690  Biso   1.000  C
  C319     1.0000 0.71150  0.11680  0.39920  Biso   1.000  C
  C320     1.0000 0.53300  0.12470  0.36910  Biso   1.000  C
  C321     1.0000 0.53370  0.16520  0.36300  Biso   1.000  C
  C322     1.0000 0.62730  0.18270  0.37510  Biso   1.000  C
  C323     1.0000 0.71460  0.15880  0.39400  Biso   1.000  C
  C324     1.0000 0.81440  0.17810  0.40870  Biso   1.000  C
  C325     1.0000 0.82910  0.19620  0.59780  Biso   1.000  C
  C326     1.0000 0.72010  0.20040  0.63760  Biso   1.000  C
  C327     1.0000 0.70120  0.16290  0.65910  Biso   1.000  C
  C328     1.0000 0.61360  0.15890  0.69790  Biso   1.000  C
  C329     1.0000 0.56570  0.19960  0.71120  Biso   1.000  C
  C330     1.0000 0.64570  0.23500  0.65160  Biso   1.000  C
  C331     1.0000 0.64920  0.27300  0.62720  Biso   1.000  C
  C332     1.0000 0.65700  0.34270  0.61830  Biso   1.000  C
  C333     1.0000 0.62450  0.34840  0.58260  Biso   1.000  C
  C334     1.0000 0.60640  0.31260  0.56840  Biso   1.000  C
  C335     1.0000 0.61240  0.27440  0.58960  Biso   1.000  C
  C336     1.0000 0.57580  0.23950  0.57010  Biso   1.000  C
  C337     1.0000 0.43250  0.26950  0.07890  Biso   1.000  C
  C338     1.0000 0.32470  0.24530  0.07990  Biso   1.000  C
  C339     1.0000 0.21640  0.25720  0.10920  Biso   1.000  C
  C340     1.0000 0.11900  0.23460  0.11100  Biso   1.000  C
  C341     1.0000 0.13290  0.20160  0.08560  Biso   1.000  C
  C342     1.0000 0.33060  0.21180  0.05460  Biso   1.000  C
  C343     1.0000 0.44460  0.19420  0.02460  Biso   1.000  C
  C344     1.0000 0.56650  0.13290  0.00090  Biso   1.000  C
  C345     1.0000 0.65290  0.15280  0.97660  Biso   1.000  C
  C346     1.0000 0.62620  0.19620  0.97360  Biso   1.000  C
  C347     1.0000 0.51730  0.21720  0.99740  Biso   1.000  C
  C348     1.0000 0.48000  0.26260  0.98880  Biso   1.000  C
  C349     1.0000 0.58800  0.38710  0.92370  Biso   1.000  C
  C350     1.0000 0.53180  0.40970  0.88830  Biso   1.000  C
  C351     1.0000 0.57100  0.39230  0.84890  Biso   1.000  C
  C352     1.0000 0.53880  0.41600  0.81500  Biso   1.000  C
  C353     1.0000 0.46860  0.45640  0.82260  Biso   1.000  C
  C354     1.0000 0.45660  0.44840  0.89260  Biso   1.000  C
  C355     1.0000 0.40560  0.46930  0.93190  Biso   1.000  C
  C356     1.0000 0.38180  0.53130  0.96850  Biso   1.000  C
  C357     1.0000 0.33040  0.51310  0.00410  Biso   1.000  C
  C358     1.0000 0.30930  0.47300  0.00320  Biso   1.000  C
  C359     1.0000 0.34450  0.45070  0.96750  Biso   1.000  C
  C360     1.0000 0.30430  0.40820  0.96440  Biso   1.000  C
  C361     1.0000 0.91590  0.37620  0.01760  Biso   1.000  C
  C362     1.0000 0.89860  0.40930  0.04810  Biso   1.000  C
  C363     1.0000 0.97520  0.44140  0.04020  Biso   1.000  C
  C364     1.0000 0.95360  0.47480  0.06560  Biso   1.000  C
  C365     1.0000 0.85260  0.47940  0.09700  Biso   1.000  C
  C366     1.0000 0.80860  0.41450  0.08310  Biso   1.000  C
  C367     1.0000 0.72750  0.38320  0.10080  Biso   1.000  C
  C368     1.0000 0.52680  0.37530  0.13090  Biso   1.000  C
  C369     1.0000 0.56190  0.33480  0.13700  Biso   1.000  C
  C370     1.0000 0.68510  0.31730  0.12490  Biso   1.000  C
  C371     1.0000 0.76740  0.34120  0.10600  Biso   1.000  C
  C372     1.0000 0.90120  0.32190  0.09130  Biso   1.000  C
  C373     1.0000 0.12310  0.30380  0.90220  Biso   1.000  C
  C374     1.0000 0.05810  0.29960  0.86240  Biso   1.000  C
  C375     1.0000 0.02320  0.33710  0.84090  Biso   1.000  C
  C376     1.0000 0.97040  0.34110  0.80210  Biso   1.000  C
  C377     1.0000 0.97650  0.30040  0.78880  Biso   1.000  C
  C378     1.0000 0.03230  0.26500  0.84840  Biso   1.000  C
  C379     1.0000 0.04940  0.22700  0.87280  Biso   1.000  C
  C380     1.0000 0.11800  0.15730  0.88170  Biso   1.000  C
  C381     1.0000 0.05550  0.15160  0.91740  Biso   1.000  C
  C382     1.0000 0.98740  0.18740  0.93160  Biso   1.000  C
  C383     1.0000 0.97640  0.22560  0.91040  Biso   1.000  C
  C384     1.0000 0.88540  0.26050  0.92990  Biso   1.000  C
  N1       1.0000 0.71070  0.85840  0.02820  Biso   1.000  N
  N2       1.0000 0.64740  0.93330  0.99110  Biso   1.000  N
  N3       1.0000 0.11360  0.10670  0.05090  Biso   1.000  N
  N4       1.0000 0.28190  0.11320  0.09880  Biso   1.000  N
  N5       1.0000 0.70750  0.05750  0.31030  Biso   1.000  N
  N6       1.0000 0.51220  0.02440  0.34720  Biso   1.000  N
  N7       1.0000 0.01140  0.85540  0.30940  Biso   1.000  N
  N8       1.0000 0.18420  0.80930  0.23570  Biso   1.000  N
  N9       1.0000 0.09730  0.64160  0.47180  Biso   1.000  N
  N10      1.0000 0.07180  0.56670  0.50890  Biso   1.000  N
  N11      1.0000 0.77120  0.39330  0.44910  Biso   1.000  N
  N12      1.0000 0.99390  0.38680  0.40120  Biso   1.000  N
  N13      1.0000 0.57530  0.44250  0.18970  Biso   1.000  N
  N14      1.0000 0.38380  0.47560  0.15280  Biso   1.000  N
  N15      1.0000 0.67620  0.64460  0.19060  Biso   1.000  N
  N16      1.0000 0.72920  0.69070  0.26430  Biso   1.000  N
  N17      1.0000 0.73890  0.97180  0.35840  Biso   1.000  N
  N18      1.0000 0.63850  0.00890  0.43330  Biso   1.000  N
  N19      1.0000 0.16450  0.94910  0.60670  Biso   1.000  N
  N20      1.0000 0.38070  0.90120  0.61320  Biso   1.000  N
  N21      1.0000 0.01780  0.68970  0.55750  Biso   1.000  N
  N22      1.0000 0.85940  0.65280  0.52440  Biso   1.000  N
  N23      1.0000 0.32080  0.69060  0.35540  Biso   1.000  N
  N24      1.0000 0.41990  0.76430  0.30930  Biso   1.000  N
  N25      1.0000 0.56910  0.52820  0.14160  Biso   1.000  N
  N26      1.0000 0.58070  0.49110  0.06670  Biso   1.000  N
  N27      1.0000 0.22030  0.55090  0.89330  Biso   1.000  N
  N28      1.0000 0.39510  0.59880  0.88680  Biso   1.000  N
  N29      1.0000 0.76500  0.81030  0.94250  Biso   1.000  N
  N30      1.0000 0.53660  0.84720  0.97560  Biso   1.000  N
  N31      1.0000 0.86680  0.80940  0.14460  Biso   1.000  N
  N32      1.0000 0.99350  0.73570  0.19070  Biso   1.000  N
  N33      1.0000 0.28930  0.14160  0.97180  Biso   1.000  N
  N34      1.0000 0.35260  0.06670  0.00890  Biso   1.000  N
  N35      1.0000 0.88640  0.89330  0.94910  Biso   1.000  N
  N36      1.0000 0.71810  0.88680  0.90120  Biso   1.000  N
  N37      1.0000 0.29250  0.94250  0.68970  Biso   1.000  N
  N38      1.0000 0.48780  0.97560  0.65280  Biso   1.000  N
  N39      1.0000 0.98860  0.14460  0.69060  Biso   1.000  N
  N40      1.0000 0.81580  0.19070  0.76430  Biso   1.000  N
  N41      1.0000 0.90270  0.35840  0.52820  Biso   1.000  N
  N42      1.0000 0.92820  0.43330  0.49110  Biso   1.000  N
  N43      1.0000 0.22880  0.60670  0.55090  Biso   1.000  N
  N44      1.0000 0.00610  0.61320  0.59880  Biso   1.000  N
  N45      1.0000 0.42470  0.55750  0.81030  Biso   1.000  N
  N46      1.0000 0.61620  0.52440  0.84720  Biso   1.000  N
  N47      1.0000 0.32380  0.35540  0.80940  Biso   1.000  N
  N48      1.0000 0.27080  0.30930  0.73570  Biso   1.000  N
  N49      1.0000 0.26110  0.02820  0.64160  Biso   1.000  N
  N50      1.0000 0.36150  0.99110  0.56670  Biso   1.000  N
  N51      1.0000 0.83550  0.05090  0.39330  Biso   1.000  N
  N52      1.0000 0.61930  0.09880  0.38680  Biso   1.000  N
  N53      1.0000 0.98220  0.31030  0.44250  Biso   1.000  N
  N54      1.0000 0.14060  0.34720  0.47560  Biso   1.000  N
  N55      1.0000 0.67920  0.30940  0.64460  Biso   1.000  N
  N56      1.0000 0.58010  0.23570  0.69070  Biso   1.000  N
  N57      1.0000 0.43090  0.47180  0.85840  Biso   1.000  N
  N58      1.0000 0.41930  0.50890  0.93330  Biso   1.000  N
  N59      1.0000 0.77970  0.44910  0.10670  Biso   1.000  N
  N60      1.0000 0.60490  0.40120  0.11320  Biso   1.000  N
  N61      1.0000 0.23500  0.18970  0.05750  Biso   1.000  N
  N62      1.0000 0.46340  0.15280  0.02440  Biso   1.000  N
  N63      1.0000 0.13320  0.19060  0.85540  Biso   1.000  N
  N64      1.0000 0.00650  0.26430  0.80930  Biso   1.000  N
  O1       1.0000 0.51784  0.07664  0.19208  Biso   1.000  O
  O2       1.0000 0.38092  0.07865  0.25091  Biso   1.000  O
  O3       1.0000 0.64383  0.99208  0.22446  Biso   1.000  O
  O4       1.0000 0.45773  0.97674  0.21680  Biso   1.000  O
  O5       1.0000 0.47649  0.92236  0.15166  Biso   1.000  O
  O6       1.0000 0.43060  0.94970  0.09310  Biso   1.000  O
  O7       1.0000 0.83519  0.94347  0.09435  Biso   1.000  O
  O8       1.0000 0.66303  0.98556  0.12078  Biso   1.000  O
  O9       1.0000 0.91106  0.09994  0.16014  Biso   1.000  O
  O10      1.0000 0.00890  0.07170  0.21110  Biso   1.000  O
  O11      1.0000 0.98447  0.99600  0.13306  Biso   1.000  O
  O12      1.0000 0.16621  0.01473  0.13965  Biso   1.000  O
  O13      1.0000 0.23823  0.03267  0.21827  Biso   1.000  O
  O14      1.0000 0.42767  0.02595  0.14271  Biso   1.000  O
  O15      1.0000 0.20930  0.92630  0.14470  Biso   1.000  O
  O16      1.0000 0.13150  0.96240  0.22600  Biso   1.000  O
  O17      1.0000 0.29380  0.91540  0.22560  Biso   1.000  O
  O18      1.0000 0.98090  0.91780  0.16340  Biso   1.000  O
  O19      1.0000 0.89080  0.91170  0.22670  Biso   1.000  O
  O20      1.0000 0.89737  0.00136  0.22450  Biso   1.000  O
  O21      1.0000 0.70250  0.91720  0.17900  Biso   1.000  O
  O22      1.0000 0.75535  0.04542  0.16348  Biso   1.000  O
  O23      1.0000 0.28656  0.42336  0.30792  Biso   1.000  O
  O24      1.0000 0.21048  0.42135  0.24909  Biso   1.000  O
  O25      1.0000 0.36037  0.50792  0.27554  Biso   1.000  O
  O26      1.0000 0.15127  0.52326  0.28320  Biso   1.000  O
  O27      1.0000 0.05051  0.57764  0.34834  Biso   1.000  O
  O28      1.0000 0.97340  0.55030  0.40690  Biso   1.000  O
  O29      1.0000 0.37301  0.55653  0.40565  Biso   1.000  O
  O30      1.0000 0.26937  0.51444  0.37922  Biso   1.000  O
  O31      1.0000 0.67114  0.40006  0.33986  Biso   1.000  O
  O32      1.0000 0.79170  0.42830  0.28890  Biso   1.000  O
  O33      1.0000 0.61353  0.50400  0.36694  Biso   1.000  O
  O34      1.0000 0.82059  0.48527  0.36035  Biso   1.000  O
  O35      1.0000 0.98917  0.46733  0.28173  Biso   1.000  O
  O36      1.0000 0.09633  0.47405  0.35729  Biso   1.000  O
  O37      1.0000 0.78030  0.57370  0.35530  Biso   1.000  O
  O38      1.0000 0.81990  0.53760  0.27400  Biso   1.000  O
  O39      1.0000 0.93480  0.58460  0.27440  Biso   1.000  O
  O40      1.0000 0.56210  0.58220  0.33660  Biso   1.000  O
  O41      1.0000 0.52920  0.58830  0.27330  Biso   1.000  O
  O42      1.0000 0.62323  0.49864  0.27550  Biso   1.000  O
  O43      1.0000 0.29870  0.58280  0.32100  Biso   1.000  O
  O44      1.0000 0.46425  0.45458  0.33652  Biso   1.000  O
  O45      1.0000 0.70992  0.80792  0.57664  Biso   1.000  O
  O46      1.0000 0.63183  0.74909  0.57865  Biso   1.000  O
  O47      1.0000 0.86829  0.77554  0.49208  Biso   1.000  O
  O48      1.0000 0.67453  0.78320  0.47674  Biso   1.000  O
  O49      1.0000 0.62815  0.84834  0.42236  Biso   1.000  O
  O50      1.0000 0.52370  0.90690  0.44970  Biso   1.000  O
  O51      1.0000 0.92954  0.90565  0.44347  Biso   1.000  O
  O52      1.0000 0.78381  0.87922  0.48556  Biso   1.000  O
  O53      1.0000 0.07120  0.83986  0.59994  Biso   1.000  O
  O54      1.0000 0.22000  0.78890  0.57170  Biso   1.000  O
  O55      1.0000 0.11753  0.86694  0.49600  Biso   1.000  O
  O56      1.0000 0.30586  0.86035  0.51473  Biso   1.000  O
  O57      1.0000 0.45650  0.78173  0.53267  Biso   1.000  O
  O58      1.0000 0.57038  0.85729  0.52595  Biso   1.000  O
  O59      1.0000 0.35400  0.85530  0.42630  Biso   1.000  O
  O60      1.0000 0.35750  0.77400  0.46240  Biso   1.000  O
  O61      1.0000 0.51940  0.77440  0.41540  Biso   1.000  O
  O62      1.0000 0.14430  0.83660  0.41780  Biso   1.000  O
  O63      1.0000 0.11750  0.77330  0.41170  Biso   1.000  O
  O64      1.0000 0.12187  0.77550  0.50136  Biso   1.000  O
  O65      1.0000 0.88150  0.82100  0.41720  Biso   1.000  O
  O66      1.0000 0.91883  0.83652  0.54542  Biso   1.000  O
  O67      1.0000 0.59448  0.69208  0.92336  Biso   1.000  O
  O68      1.0000 0.45957  0.75091  0.92135  Biso   1.000  O
  O69      1.0000 0.63591  0.72446  0.00792  Biso   1.000  O
  O70      1.0000 0.43447  0.71680  0.02326  Biso   1.000  O
  O71      1.0000 0.39885  0.65166  0.07764  Biso   1.000  O
  O72      1.0000 0.38030  0.59310  0.05030  Biso   1.000  O
  O73      1.0000 0.77866  0.59435  0.05653  Biso   1.000  O
  O74      1.0000 0.64859  0.62078  0.01444  Biso   1.000  O
  O75      1.0000 0.01100  0.66014  0.90006  Biso   1.000  O
  O76      1.0000 0.08060  0.71110  0.92830  Biso   1.000  O
  O77      1.0000 0.98047  0.63306  0.00400  Biso   1.000  O
  O78      1.0000 0.18094  0.63965  0.98527  Biso   1.000  O
  O79      1.0000 0.27090  0.71827  0.96733  Biso   1.000  O
  O80      1.0000 0.45362  0.64271  0.97405  Biso   1.000  O
  O81      1.0000 0.13560  0.64470  0.07370  Biso   1.000  O
  O82      1.0000 0.09390  0.72600  0.03760  Biso   1.000  O
  O83      1.0000 0.20920  0.72560  0.08460  Biso   1.000  O
  O84      1.0000 0.89870  0.66340  0.08220  Biso   1.000  O
  O85      1.0000 0.80250  0.72670  0.08830  Biso   1.000  O
  O86      1.0000 0.89873  0.72450  0.99864  Biso   1.000  O
  O87      1.0000 0.61970  0.67900  0.08280  Biso   1.000  O
  O88      1.0000 0.80077  0.66348  0.95458  Biso   1.000  O
  O89      1.0000 0.48216  0.92336  0.80792  Biso   1.000  O
  O90      1.0000 0.61908  0.92135  0.74909  Biso   1.000  O
  O91      1.0000 0.35617  0.00792  0.77554  Biso   1.000  O
  O92      1.0000 0.54227  0.02326  0.78320  Biso   1.000  O
  O93      1.0000 0.52351  0.07764  0.84834  Biso   1.000  O
  O94      1.0000 0.56940  0.05030  0.90690  Biso   1.000  O
  O95      1.0000 0.16481  0.05653  0.90565  Biso   1.000  O
  O96      1.0000 0.33697  0.01444  0.87922  Biso   1.000  O
  O97      1.0000 0.08894  0.90006  0.83986  Biso   1.000  O
  O98      1.0000 0.99110  0.92830  0.78890  Biso   1.000  O
  O99      1.0000 0.01553  0.00400  0.86694  Biso   1.000  O
  O100     1.0000 0.83379  0.98527  0.86035  Biso   1.000  O
  O101     1.0000 0.76177  0.96733  0.78173  Biso   1.000  O
  O102     1.0000 0.57233  0.97405  0.85729  Biso   1.000  O
  O103     1.0000 0.79070  0.07370  0.85530  Biso   1.000  O
  O104     1.0000 0.86850  0.03760  0.77400  Biso   1.000  O
  O105     1.0000 0.70620  0.08460  0.77440  Biso   1.000  O
  O106     1.0000 0.01910  0.08220  0.83660  Biso   1.000  O
  O107     1.0000 0.10920  0.08830  0.77330  Biso   1.000  O
  O108     1.0000 0.10263  0.99864  0.77550  Biso   1.000  O
  O109     1.0000 0.29750  0.08280  0.82100  Biso   1.000  O
  O110     1.0000 0.24465  0.95458  0.83652  Biso   1.000  O
  O111     1.0000 0.71344  0.57664  0.69208  Biso   1.000  O
  O112     1.0000 0.78952  0.57865  0.75091  Biso   1.000  O
  O113     1.0000 0.63963  0.49208  0.72446  Biso   1.000  O
  O114     1.0000 0.84873  0.47674  0.71680  Biso   1.000  O
  O115     1.0000 0.94949  0.42236  0.65166  Biso   1.000  O
  O116     1.0000 0.02660  0.44970  0.59310  Biso   1.000  O
  O117     1.0000 0.62699  0.44347  0.59435  Biso   1.000  O
  O118     1.0000 0.73063  0.48556  0.62078  Biso   1.000  O
  O119     1.0000 0.32886  0.59994  0.66014  Biso   1.000  O
  O120     1.0000 0.20830  0.57170  0.71110  Biso   1.000  O
  O121     1.0000 0.38647  0.49600  0.63306  Biso   1.000  O
  O122     1.0000 0.17941  0.51473  0.63965  Biso   1.000  O
  O123     1.0000 0.01083  0.53267  0.71827  Biso   1.000  O
  O124     1.0000 0.90367  0.52595  0.64271  Biso   1.000  O
  O125     1.0000 0.21970  0.42630  0.64470  Biso   1.000  O
  O126     1.0000 0.18010  0.46240  0.72600  Biso   1.000  O
  O127     1.0000 0.06520  0.41540  0.72560  Biso   1.000  O
  O128     1.0000 0.43790  0.41780  0.66340  Biso   1.000  O
  O129     1.0000 0.47080  0.41170  0.72670  Biso   1.000  O
  O130     1.0000 0.37677  0.50136  0.72450  Biso   1.000  O
  O131     1.0000 0.70130  0.41720  0.67900  Biso   1.000  O
  O132     1.0000 0.53575  0.54542  0.66348  Biso   1.000  O
  O133     1.0000 0.29008  0.19208  0.42336  Biso   1.000  O
  O134     1.0000 0.36817  0.25091  0.42135  Biso   1.000  O
  O135     1.0000 0.13171  0.22446  0.50792  Biso   1.000  O
  O136     1.0000 0.32547  0.21680  0.52326  Biso   1.000  O
  O137     1.0000 0.37185  0.15166  0.57764  Biso   1.000  O
  O138     1.0000 0.47630  0.09310  0.55030  Biso   1.000  O
  O139     1.0000 0.07046  0.09435  0.55653  Biso   1.000  O
  O140     1.0000 0.21619  0.12078  0.51444  Biso   1.000  O
  O141     1.0000 0.92880  0.16014  0.40006  Biso   1.000  O
  O142     1.0000 0.78000  0.21110  0.42830  Biso   1.000  O
  O143     1.0000 0.88247  0.13306  0.50400  Biso   1.000  O
  O144     1.0000 0.69414  0.13965  0.48527  Biso   1.000  O
  O145     1.0000 0.54350  0.21827  0.46733  Biso   1.000  O
  O146     1.0000 0.42962  0.14271  0.47405  Biso   1.000  O
  O147     1.0000 0.64600  0.14470  0.57370  Biso   1.000  O
  O148     1.0000 0.64250  0.22600  0.53760  Biso   1.000  O
  O149     1.0000 0.48060  0.22560  0.58460  Biso   1.000  O
  O150     1.0000 0.85570  0.16340  0.58220  Biso   1.000  O
  O151     1.0000 0.88250  0.22670  0.58830  Biso   1.000  O
  O152     1.0000 0.87813  0.22450  0.49864  Biso   1.000  O
  O153     1.0000 0.11850  0.17900  0.58280  Biso   1.000  O
  O154     1.0000 0.08117  0.16348  0.45458  Biso   1.000  O
  O155     1.0000 0.40552  0.30792  0.07664  Biso   1.000  O
  O156     1.0000 0.54043  0.24909  0.07865  Biso   1.000  O
  O157     1.0000 0.36409  0.27554  0.99208  Biso   1.000  O
  O158     1.0000 0.56553  0.28320  0.97674  Biso   1.000  O
  O159     1.0000 0.60115  0.34834  0.92236  Biso   1.000  O
  O160     1.0000 0.61970  0.40690  0.94970  Biso   1.000  O
  O161     1.0000 0.22134  0.40565  0.94347  Biso   1.000  O
  O162     1.0000 0.35141  0.37922  0.98556  Biso   1.000  O
  O163     1.0000 0.98900  0.33986  0.09994  Biso   1.000  O
  O164     1.0000 0.91940  0.28890  0.07170  Biso   1.000  O
  O165     1.0000 0.01953  0.36694  0.99600  Biso   1.000  O
  O166     1.0000 0.81906  0.36035  0.01473  Biso   1.000  O
  O167     1.0000 0.72910  0.28173  0.03267  Biso   1.000  O
  O168     1.0000 0.54638  0.35729  0.02595  Biso   1.000  O
  O169     1.0000 0.86440  0.35530  0.92630  Biso   1.000  O
  O170     1.0000 0.90610  0.27400  0.96240  Biso   1.000  O
  O171     1.0000 0.79080  0.27440  0.91540  Biso   1.000  O
  O172     1.0000 0.10130  0.33660  0.91780  Biso   1.000  O
  O173     1.0000 0.19750  0.27330  0.91170  Biso   1.000  O
  O174     1.0000 0.10127  0.27550  0.00136  Biso   1.000  O
  O175     1.0000 0.38030  0.32100  0.91720  Biso   1.000  O
  O176     1.0000 0.19923  0.33652  0.04542  Biso   1.000  O
