data_image0
_cell_length_a       11.3254
_cell_length_b       33.0426
_cell_length_c       33.0426
_cell_angle_alpha    88.317
_cell_angle_beta     80.1322
_cell_angle_gamma    80.1322

_symmetry_space_group_name_H-M    P 1
_symmetry_int_tables_number       1

loop_
  _symmetry_equiv_pos_as_xyz
  'x, y, z'

loop_
  _atom_site_label
  _atom_site_occupancy
  _atom_site_fract_x
  _atom_site_fract_y
  _atom_site_fract_z
  _atom_site_thermal_displace_type
  _atom_site_B_iso_or_equiv
  _atom_site_type_symbol
  La1      1.0000 0.45958  0.32900  0.52940  Biso   1.000  La
  La2      1.0000 0.96598  0.32773  0.52619  Biso   1.000  La
  La3      1.0000 0.81798  0.17100  0.97060  Biso   1.000  La
  La4      1.0000 0.31990  0.17227  0.97381  Biso   1.000  La
  La5      1.0000 0.98898  0.47060  0.82900  Biso   1.000  La
  La6      1.0000 0.49217  0.47381  0.82773  Biso   1.000  La
  La7      1.0000 0.78858  0.02940  0.67100  Biso   1.000  La
  La8      1.0000 0.29371  0.02619  0.67227  Biso   1.000  La
  La9      1.0000 0.54042  0.67100  0.47060  Biso   1.000  La
  La10     1.0000 0.03402  0.67227  0.47381  Biso   1.000  La
  La11     1.0000 0.18202  0.82900  0.02940  Biso   1.000  La
  La12     1.0000 0.68010  0.82773  0.02619  Biso   1.000  La
  La13     1.0000 0.01102  0.52940  0.17100  Biso   1.000  La
  La14     1.0000 0.50783  0.52619  0.17227  Biso   1.000  La
  La15     1.0000 0.21142  0.97060  0.32900  Biso   1.000  La
  La16     1.0000 0.70629  0.97381  0.32773  Biso   1.000  La
  Co1      1.0000 0.95453  0.46281  0.37025  Biso   1.000  Co
  Co2      1.0000 0.28759  0.03719  0.12975  Biso   1.000  Co
  Co3      1.0000 0.32478  0.62975  0.96281  Biso   1.000  Co
  Co4      1.0000 0.41734  0.87025  0.53719  Biso   1.000  Co
  Co5      1.0000 0.04547  0.53719  0.62975  Biso   1.000  Co
  Co6      1.0000 0.71241  0.96281  0.87025  Biso   1.000  Co
  Co7      1.0000 0.67522  0.37025  0.03719  Biso   1.000  Co
  Co8      1.0000 0.58266  0.12975  0.46281  Biso   1.000  Co
  H1       1.0000 0.22000  0.32270  0.58930  Biso   1.000  H
  H2       1.0000 0.31080  0.29410  0.60230  Biso   1.000  H
  H3       1.0000 0.74030  0.18880  0.41280  Biso   1.000  H
  H4       1.0000 0.70720  0.24380  0.37120  Biso   1.000  H
  H5       1.0000 0.50960  0.28020  0.37400  Biso   1.000  H
  H6       1.0000 0.12130  0.20890  0.54270  Biso   1.000  H
  H7       1.0000 0.15140  0.13770  0.53790  Biso   1.000  H
  H8       1.0000 0.32320  0.10430  0.49850  Biso   1.000  H
  H9       1.0000 0.08370  0.47470  0.70230  Biso   1.000  H
  H10      1.0000 0.04750  0.40770  0.71430  Biso   1.000  H
  H11      1.0000 0.03230  0.36850  0.65890  Biso   1.000  H
  H12      1.0000 0.25760  0.46270  0.47430  Biso   1.000  H
  H13      1.0000 0.15110  0.52840  0.47320  Biso   1.000  H
  H14      1.0000 0.04420  0.55850  0.53390  Biso   1.000  H
  H15      1.0000 0.67260  0.50210  0.38410  Biso   1.000  H
  H16      1.0000 0.50950  0.49490  0.43430  Biso   1.000  H
  H17      1.0000 0.52980  0.43930  0.47890  Biso   1.000  H
  H18      1.0000 0.00110  0.28970  0.37210  Biso   1.000  H
  H19      1.0000 0.17450  0.31850  0.35350  Biso   1.000  H
  H20      1.0000 0.16190  0.38800  0.36040  Biso   1.000  H
  H21      1.0000 0.87320  0.18690  0.54430  Biso   1.000  H
  H22      1.0000 0.80550  0.12970  0.57530  Biso   1.000  H
  H23      1.0000 0.68600  0.13670  0.63710  Biso   1.000  H
  H24      1.0000 0.60210  0.36430  0.65590  Biso   1.000  H
  H25      1.0000 0.68230  0.35870  0.71790  Biso   1.000  H
  H26      1.0000 0.74270  0.29390  0.74090  Biso   1.000  H
  H27      1.0000 0.42680  0.36210  0.44710  Biso   1.000  H
  H28      1.0000 0.44120  0.31910  0.44210  Biso   1.000  H
  H29      1.0000 0.68900  0.26900  0.51400  Biso   1.000  H
  H30      1.0000 0.66880  0.28170  0.47450  Biso   1.000  H
  H31      1.0000 0.06600  0.27810  0.45250  Biso   1.000  H
  H32      1.0000 0.94210  0.28730  0.45110  Biso   1.000  H
  H33      1.0000 0.15820  0.37110  0.48110  Biso   1.000  H
  H34      1.0000 0.06530  0.37890  0.45730  Biso   1.000  H
  H35      1.0000 0.72380  0.35220  0.58300  Biso   1.000  H
  H36      1.0000 0.76220  0.39120  0.57100  Biso   1.000  H
  H37      1.0000 0.63200  0.17730  0.91070  Biso   1.000  H
  H38      1.0000 0.70720  0.20590  0.89770  Biso   1.000  H
  H39      1.0000 0.84190  0.31120  0.08720  Biso   1.000  H
  H40      1.0000 0.82220  0.25620  0.12880  Biso   1.000  H
  H41      1.0000 0.66380  0.21980  0.12600  Biso   1.000  H
  H42      1.0000 0.37290  0.29110  0.95730  Biso   1.000  H
  H43      1.0000 0.32700  0.36230  0.96210  Biso   1.000  H
  H44      1.0000 0.42600  0.39570  0.00150  Biso   1.000  H
  H45      1.0000 0.76070  0.02530  0.79770  Biso   1.000  H
  H46      1.0000 0.66950  0.09230  0.78570  Biso   1.000  H
  H47      1.0000 0.55970  0.13150  0.84110  Biso   1.000  H
  H48      1.0000 0.69460  0.03730  0.02570  Biso   1.000  H
  H49      1.0000 0.65270  0.97160  0.02680  Biso   1.000  H
  H50      1.0000 0.63660  0.94150  0.96610  Biso   1.000  H
  H51      1.0000 0.05880  0.99790  0.11590  Biso   1.000  H
  H52      1.0000 0.93870  0.00510  0.06570  Biso   1.000  H
  H53      1.0000 0.94800  0.06070  0.02110  Biso   1.000  H
  H54      1.0000 0.16290  0.21030  0.12790  Biso   1.000  H
  H55      1.0000 0.34650  0.18150  0.14650  Biso   1.000  H
  H56      1.0000 0.41030  0.11200  0.13960  Biso   1.000  H
  H57      1.0000 0.10440  0.31310  0.95570  Biso   1.000  H
  H58      1.0000 0.01050  0.37030  0.92470  Biso   1.000  H
  H59      1.0000 0.95980  0.36330  0.86290  Biso   1.000  H
  H60      1.0000 0.12230  0.13570  0.84410  Biso   1.000  H
  H61      1.0000 0.25890  0.14130  0.78210  Biso   1.000  H
  H62      1.0000 0.27750  0.20610  0.75910  Biso   1.000  H
  H63      1.0000 0.73600  0.13790  0.05290  Biso   1.000  H
  H64      1.0000 0.70240  0.18090  0.05790  Biso   1.000  H
  H65      1.0000 0.97200  0.23100  0.98600  Biso   1.000  H
  H66      1.0000 0.92500  0.21830  0.02550  Biso   1.000  H
  H67      1.0000 0.29660  0.22190  0.04750  Biso   1.000  H
  H68      1.0000 0.18050  0.21270  0.04890  Biso   1.000  H
  H69      1.0000 0.51040  0.12890  0.01890  Biso   1.000  H
  H70      1.0000 0.40150  0.12110  0.04270  Biso   1.000  H
  H71      1.0000 0.15900  0.14780  0.91700  Biso   1.000  H
  H72      1.0000 0.22440  0.10880  0.92900  Biso   1.000  H
  H73      1.0000 0.80930  0.41070  0.82270  Biso   1.000  H
  H74      1.0000 0.91310  0.39770  0.79410  Biso   1.000  H
  H75      1.0000 0.15310  0.58720  0.68880  Biso   1.000  H
  H76      1.0000 0.07840  0.62880  0.74380  Biso   1.000  H
  H77      1.0000 0.88360  0.62600  0.78020  Biso   1.000  H
  H78      1.0000 0.66400  0.45730  0.70890  Biso   1.000  H
  H79      1.0000 0.68930  0.46210  0.63770  Biso   1.000  H
  H80      1.0000 0.82170  0.50150  0.60430  Biso   1.000  H
  H81      1.0000 0.78600  0.29770  0.97470  Biso   1.000  H
  H82      1.0000 0.76180  0.28570  0.90770  Biso   1.000  H
  H83      1.0000 0.69120  0.34110  0.86850  Biso   1.000  H
  H84      1.0000 0.73190  0.52570  0.96270  Biso   1.000  H
  H85      1.0000 0.62430  0.52680  0.02840  Biso   1.000  H
  H86      1.0000 0.57810  0.46610  0.05850  Biso   1.000  H
  H87      1.0000 0.05670  0.61590  0.00210  Biso   1.000  H
  H88      1.0000 0.94380  0.56570  0.99490  Biso   1.000  H
  H89      1.0000 0.00870  0.52110  0.93930  Biso   1.000  H
  H90      1.0000 0.37320  0.62790  0.78970  Biso   1.000  H
  H91      1.0000 0.52800  0.64650  0.81850  Biso   1.000  H
  H92      1.0000 0.52230  0.63960  0.88800  Biso   1.000  H
  H93      1.0000 0.41750  0.45570  0.68690  Biso   1.000  H
  H94      1.0000 0.38080  0.42470  0.62970  Biso   1.000  H
  H95      1.0000 0.32310  0.36290  0.63670  Biso   1.000  H
  H96      1.0000 0.25800  0.34410  0.86430  Biso   1.000  H
  H97      1.0000 0.40020  0.28210  0.85870  Biso   1.000  H
  H98      1.0000 0.48360  0.25910  0.79390  Biso   1.000  H
  H99      1.0000 0.87390  0.55290  0.86210  Biso   1.000  H
  H100     1.0000 0.88330  0.55790  0.81910  Biso   1.000  H
  H101     1.0000 0.20300  0.48600  0.76900  Biso   1.000  H
  H102     1.0000 0.14330  0.52550  0.78170  Biso   1.000  H
  H103     1.0000 0.51850  0.54750  0.77810  Biso   1.000  H
  H104     1.0000 0.39320  0.54890  0.78730  Biso   1.000  H
  H105     1.0000 0.63930  0.51890  0.87110  Biso   1.000  H
  H106     1.0000 0.52260  0.54270  0.87890  Biso   1.000  H
  H107     1.0000 0.30680  0.41700  0.85220  Biso   1.000  H
  H108     1.0000 0.33320  0.42900  0.89120  Biso   1.000  H
  H109     1.0000 0.54270  0.08930  0.67730  Biso   1.000  H
  H110     1.0000 0.60490  0.10230  0.70590  Biso   1.000  H
  H111     1.0000 0.92910  0.91280  0.81120  Biso   1.000  H
  H112     1.0000 0.95100  0.87120  0.75620  Biso   1.000  H
  H113     1.0000 0.78980  0.87400  0.71980  Biso   1.000  H
  H114     1.0000 0.33020  0.04270  0.79110  Biso   1.000  H
  H115     1.0000 0.28910  0.03790  0.86230  Biso   1.000  H
  H116     1.0000 0.42750  0.99850  0.89570  Biso   1.000  H
  H117     1.0000 0.55840  0.20230  0.52530  Biso   1.000  H
  H118     1.0000 0.45520  0.21430  0.59230  Biso   1.000  H
  H119     1.0000 0.40080  0.15890  0.63150  Biso   1.000  H
  H120     1.0000 0.72030  0.97430  0.53730  Biso   1.000  H
  H121     1.0000 0.67950  0.97320  0.47160  Biso   1.000  H
  H122     1.0000 0.60270  0.03390  0.44150  Biso   1.000  H
  H123     1.0000 0.17470  0.88410  0.49790  Biso   1.000  H
  H124     1.0000 0.00440  0.93430  0.50510  Biso   1.000  H
  H125     1.0000 0.96910  0.97890  0.56070  Biso   1.000  H
  H126     1.0000 0.29080  0.87210  0.71030  Biso   1.000  H
  H127     1.0000 0.49300  0.85350  0.68150  Biso   1.000  H
  H128     1.0000 0.54990  0.86040  0.61200  Biso   1.000  H
  H129     1.0000 0.06010  0.04430  0.81310  Biso   1.000  H
  H130     1.0000 0.93520  0.07530  0.87030  Biso   1.000  H
  H131     1.0000 0.82270  0.13710  0.86330  Biso   1.000  H
  H132     1.0000 0.96640  0.15590  0.63570  Biso   1.000  H
  H133     1.0000 0.04100  0.21790  0.64130  Biso   1.000  H
  H134     1.0000 0.03660  0.24090  0.70610  Biso   1.000  H
  H135     1.0000 0.78890  0.94710  0.63790  Biso   1.000  H
  H136     1.0000 0.76030  0.94210  0.68090  Biso   1.000  H
  H137     1.0000 0.95800  0.01400  0.73100  Biso   1.000  H
  H138     1.0000 0.95050  0.97450  0.71830  Biso   1.000  H
  H139     1.0000 0.34410  0.95250  0.72190  Biso   1.000  H
  H140     1.0000 0.22940  0.95110  0.71270  Biso   1.000  H
  H141     1.0000 0.52930  0.98110  0.62890  Biso   1.000  H
  H142     1.0000 0.44420  0.95730  0.62110  Biso   1.000  H
  H143     1.0000 0.07600  0.08300  0.64780  Biso   1.000  H
  H144     1.0000 0.15340  0.07100  0.60880  Biso   1.000  H
  H145     1.0000 0.78000  0.67730  0.41070  Biso   1.000  H
  H146     1.0000 0.68920  0.70590  0.39770  Biso   1.000  H
  H147     1.0000 0.25970  0.81120  0.58720  Biso   1.000  H
  H148     1.0000 0.29280  0.75620  0.62880  Biso   1.000  H
  H149     1.0000 0.49040  0.71980  0.62600  Biso   1.000  H
  H150     1.0000 0.87870  0.79110  0.45730  Biso   1.000  H
  H151     1.0000 0.84860  0.86230  0.46210  Biso   1.000  H
  H152     1.0000 0.67680  0.89570  0.50150  Biso   1.000  H
  H153     1.0000 0.91630  0.52530  0.29770  Biso   1.000  H
  H154     1.0000 0.95250  0.59230  0.28570  Biso   1.000  H
  H155     1.0000 0.96770  0.63150  0.34110  Biso   1.000  H
  H156     1.0000 0.74240  0.53730  0.52570  Biso   1.000  H
  H157     1.0000 0.84890  0.47160  0.52680  Biso   1.000  H
  H158     1.0000 0.95580  0.44150  0.46610  Biso   1.000  H
  H159     1.0000 0.32740  0.49790  0.61590  Biso   1.000  H
  H160     1.0000 0.49050  0.50510  0.56570  Biso   1.000  H
  H161     1.0000 0.47020  0.56070  0.52110  Biso   1.000  H
  H162     1.0000 0.99890  0.71030  0.62790  Biso   1.000  H
  H163     1.0000 0.82550  0.68150  0.64650  Biso   1.000  H
  H164     1.0000 0.83810  0.61200  0.63960  Biso   1.000  H
  H165     1.0000 0.12680  0.81310  0.45570  Biso   1.000  H
  H166     1.0000 0.19450  0.87030  0.42470  Biso   1.000  H
  H167     1.0000 0.31400  0.86330  0.36290  Biso   1.000  H
  H168     1.0000 0.39790  0.63570  0.34410  Biso   1.000  H
  H169     1.0000 0.31770  0.64130  0.28210  Biso   1.000  H
  H170     1.0000 0.25730  0.70610  0.25910  Biso   1.000  H
  H171     1.0000 0.57320  0.63790  0.55290  Biso   1.000  H
  H172     1.0000 0.55880  0.68090  0.55790  Biso   1.000  H
  H173     1.0000 0.31100  0.73100  0.48600  Biso   1.000  H
  H174     1.0000 0.33120  0.71830  0.52550  Biso   1.000  H
  H175     1.0000 0.93400  0.72190  0.54750  Biso   1.000  H
  H176     1.0000 0.05790  0.71270  0.54890  Biso   1.000  H
  H177     1.0000 0.84180  0.62890  0.51890  Biso   1.000  H
  H178     1.0000 0.93470  0.62110  0.54270  Biso   1.000  H
  H179     1.0000 0.27620  0.64780  0.41700  Biso   1.000  H
  H180     1.0000 0.23780  0.60880  0.42900  Biso   1.000  H
  H181     1.0000 0.36800  0.82270  0.08930  Biso   1.000  H
  H182     1.0000 0.29280  0.79410  0.10230  Biso   1.000  H
  H183     1.0000 0.15810  0.68880  0.91280  Biso   1.000  H
  H184     1.0000 0.17780  0.74380  0.87120  Biso   1.000  H
  H185     1.0000 0.33620  0.78020  0.87400  Biso   1.000  H
  H186     1.0000 0.62710  0.70890  0.04270  Biso   1.000  H
  H187     1.0000 0.67300  0.63770  0.03790  Biso   1.000  H
  H188     1.0000 0.57400  0.60430  0.99850  Biso   1.000  H
  H189     1.0000 0.23930  0.97470  0.20230  Biso   1.000  H
  H190     1.0000 0.33050  0.90770  0.21430  Biso   1.000  H
  H191     1.0000 0.44030  0.86850  0.15890  Biso   1.000  H
  H192     1.0000 0.30540  0.96270  0.97430  Biso   1.000  H
  H193     1.0000 0.34730  0.02840  0.97320  Biso   1.000  H
  H194     1.0000 0.36340  0.05850  0.03390  Biso   1.000  H
  H195     1.0000 0.94120  0.00210  0.88410  Biso   1.000  H
  H196     1.0000 0.06130  0.99490  0.93430  Biso   1.000  H
  H197     1.0000 0.05200  0.93930  0.97890  Biso   1.000  H
  H198     1.0000 0.83710  0.78970  0.87210  Biso   1.000  H
  H199     1.0000 0.65350  0.81850  0.85350  Biso   1.000  H
  H200     1.0000 0.58970  0.88800  0.86040  Biso   1.000  H
  H201     1.0000 0.89560  0.68690  0.04430  Biso   1.000  H
  H202     1.0000 0.98950  0.62970  0.07530  Biso   1.000  H
  H203     1.0000 0.04020  0.63670  0.13710  Biso   1.000  H
  H204     1.0000 0.87770  0.86430  0.15590  Biso   1.000  H
  H205     1.0000 0.74110  0.85870  0.21790  Biso   1.000  H
  H206     1.0000 0.72250  0.79390  0.24090  Biso   1.000  H
  H207     1.0000 0.26400  0.86210  0.94710  Biso   1.000  H
  H208     1.0000 0.29760  0.81910  0.94210  Biso   1.000  H
  H209     1.0000 0.02800  0.76900  0.01400  Biso   1.000  H
  H210     1.0000 0.07500  0.78170  0.97450  Biso   1.000  H
  H211     1.0000 0.70340  0.77810  0.95250  Biso   1.000  H
  H212     1.0000 0.81950  0.78730  0.95110  Biso   1.000  H
  H213     1.0000 0.48960  0.87110  0.98110  Biso   1.000  H
  H214     1.0000 0.59850  0.87890  0.95730  Biso   1.000  H
  H215     1.0000 0.84100  0.85220  0.08300  Biso   1.000  H
  H216     1.0000 0.77560  0.89120  0.07100  Biso   1.000  H
  H217     1.0000 0.19070  0.58930  0.17730  Biso   1.000  H
  H218     1.0000 0.08690  0.60230  0.20590  Biso   1.000  H
  H219     1.0000 0.84690  0.41280  0.31120  Biso   1.000  H
  H220     1.0000 0.92160  0.37120  0.25620  Biso   1.000  H
  H221     1.0000 0.11640  0.37400  0.21980  Biso   1.000  H
  H222     1.0000 0.33600  0.54270  0.29110  Biso   1.000  H
  H223     1.0000 0.31070  0.53790  0.36230  Biso   1.000  H
  H224     1.0000 0.17830  0.49850  0.39570  Biso   1.000  H
  H225     1.0000 0.21400  0.70230  0.02530  Biso   1.000  H
  H226     1.0000 0.23820  0.71430  0.09230  Biso   1.000  H
  H227     1.0000 0.30880  0.65890  0.13150  Biso   1.000  H
  H228     1.0000 0.26810  0.47430  0.03730  Biso   1.000  H
  H229     1.0000 0.37570  0.47320  0.97160  Biso   1.000  H
  H230     1.0000 0.42190  0.53390  0.94150  Biso   1.000  H
  H231     1.0000 0.94330  0.38410  0.99790  Biso   1.000  H
  H232     1.0000 0.05620  0.43430  0.00510  Biso   1.000  H
  H233     1.0000 0.99130  0.47890  0.06070  Biso   1.000  H
  H234     1.0000 0.62680  0.37210  0.21030  Biso   1.000  H
  H235     1.0000 0.47200  0.35350  0.18150  Biso   1.000  H
  H236     1.0000 0.47770  0.36040  0.11200  Biso   1.000  H
  H237     1.0000 0.58250  0.54430  0.31310  Biso   1.000  H
  H238     1.0000 0.61920  0.57530  0.37030  Biso   1.000  H
  H239     1.0000 0.67690  0.63710  0.36330  Biso   1.000  H
  H240     1.0000 0.74200  0.65590  0.13570  Biso   1.000  H
  H241     1.0000 0.59980  0.71790  0.14130  Biso   1.000  H
  H242     1.0000 0.51640  0.74090  0.20610  Biso   1.000  H
  H243     1.0000 0.12610  0.44710  0.13790  Biso   1.000  H
  H244     1.0000 0.11670  0.44210  0.18090  Biso   1.000  H
  H245     1.0000 0.79700  0.51400  0.23100  Biso   1.000  H
  H246     1.0000 0.85670  0.47450  0.21830  Biso   1.000  H
  H247     1.0000 0.48150  0.45250  0.22190  Biso   1.000  H
  H248     1.0000 0.60680  0.45110  0.21270  Biso   1.000  H
  H249     1.0000 0.36070  0.48110  0.12890  Biso   1.000  H
  H250     1.0000 0.47740  0.45730  0.12110  Biso   1.000  H
  H251     1.0000 0.69320  0.58300  0.14780  Biso   1.000  H
  H252     1.0000 0.66680  0.57100  0.10880  Biso   1.000  H
  H253     1.0000 0.45730  0.91070  0.32270  Biso   1.000  H
  H254     1.0000 0.39510  0.89770  0.29410  Biso   1.000  H
  H255     1.0000 0.07090  0.08720  0.18880  Biso   1.000  H
  H256     1.0000 0.04900  0.12880  0.24380  Biso   1.000  H
  H257     1.0000 0.21020  0.12600  0.28020  Biso   1.000  H
  H258     1.0000 0.66980  0.95730  0.20890  Biso   1.000  H
  H259     1.0000 0.71090  0.96210  0.13770  Biso   1.000  H
  H260     1.0000 0.57250  0.00150  0.10430  Biso   1.000  H
  H261     1.0000 0.44160  0.79770  0.47470  Biso   1.000  H
  H262     1.0000 0.54480  0.78570  0.40770  Biso   1.000  H
  H263     1.0000 0.59920  0.84110  0.36850  Biso   1.000  H
  H264     1.0000 0.27970  0.02570  0.46270  Biso   1.000  H
  H265     1.0000 0.32050  0.02680  0.52840  Biso   1.000  H
  H266     1.0000 0.39730  0.96610  0.55850  Biso   1.000  H
  H267     1.0000 0.82530  0.11590  0.50210  Biso   1.000  H
  H268     1.0000 0.99560  0.06570  0.49490  Biso   1.000  H
  H269     1.0000 0.03090  0.02110  0.43930  Biso   1.000  H
  H270     1.0000 0.70920  0.12790  0.28970  Biso   1.000  H
  H271     1.0000 0.50700  0.14650  0.31850  Biso   1.000  H
  H272     1.0000 0.45010  0.13960  0.38800  Biso   1.000  H
  H273     1.0000 0.93990  0.95570  0.18690  Biso   1.000  H
  H274     1.0000 0.06480  0.92470  0.12970  Biso   1.000  H
  H275     1.0000 0.17730  0.86290  0.13670  Biso   1.000  H
  H276     1.0000 0.03360  0.84410  0.36430  Biso   1.000  H
  H277     1.0000 0.95900  0.78210  0.35870  Biso   1.000  H
  H278     1.0000 0.96340  0.75910  0.29390  Biso   1.000  H
  H279     1.0000 0.21110  0.05290  0.36210  Biso   1.000  H
  H280     1.0000 0.23970  0.05790  0.31910  Biso   1.000  H
  H281     1.0000 0.04200  0.98600  0.26900  Biso   1.000  H
  H282     1.0000 0.04950  0.02550  0.28170  Biso   1.000  H
  H283     1.0000 0.65590  0.04750  0.27810  Biso   1.000  H
  H284     1.0000 0.77060  0.04890  0.28730  Biso   1.000  H
  H285     1.0000 0.47070  0.01890  0.37110  Biso   1.000  H
  H286     1.0000 0.55580  0.04270  0.37890  Biso   1.000  H
  H287     1.0000 0.92400  0.91700  0.35220  Biso   1.000  H
  H288     1.0000 0.84660  0.92900  0.39120  Biso   1.000  H
  C1       1.0000 0.66172  0.20329  0.41447  Biso   1.000  C
  C2       1.0000 0.64281  0.23603  0.38935  Biso   1.000  C
  C3       1.0000 0.52490  0.25792  0.39128  Biso   1.000  C
  C4       1.0000 0.43034  0.24588  0.41944  Biso   1.000  C
  C5       1.0000 0.30333  0.27056  0.42098  Biso   1.000  C
  C6       1.0000 0.45889  0.21196  0.44466  Biso   1.000  C
  C7       1.0000 0.36801  0.19387  0.47491  Biso   1.000  C
  C8       1.0000 0.27245  0.21635  0.50235  Biso   1.000  C
  C9       1.0000 0.26324  0.26128  0.51064  Biso   1.000  C
  C10      1.0000 0.18899  0.19486  0.52556  Biso   1.000  C
  C11      1.0000 0.20742  0.15248  0.52308  Biso   1.000  C
  C12      1.0000 0.30859  0.13286  0.49876  Biso   1.000  C
  C13      1.0000 0.08104  0.45825  0.68027  Biso   1.000  C
  C14      1.0000 0.05760  0.41826  0.68774  Biso   1.000  C
  C15      1.0000 0.04992  0.39488  0.65468  Biso   1.000  C
  C16      1.0000 0.06844  0.41069  0.61483  Biso   1.000  C
  C17      1.0000 0.03978  0.38648  0.58136  Biso   1.000  C
  C18      1.0000 0.09827  0.44967  0.60999  Biso   1.000  C
  C19      1.0000 0.12490  0.46980  0.56900  Biso   1.000  C
  C20      1.0000 0.20156  0.45203  0.53465  Biso   1.000  C
  C21      1.0000 0.28224  0.41006  0.53606  Biso   1.000  C
  C22      1.0000 0.20993  0.47449  0.49825  Biso   1.000  C
  C23      1.0000 0.14855  0.51367  0.49763  Biso   1.000  C
  C24      1.0000 0.08199  0.53118  0.53404  Biso   1.000  C
  C25      1.0000 0.67650  0.47841  0.40019  Biso   1.000  C
  C26      1.0000 0.57980  0.47517  0.43103  Biso   1.000  C
  C27      1.0000 0.59126  0.44162  0.45686  Biso   1.000  C
  C28      1.0000 0.69465  0.41113  0.44997  Biso   1.000  C
  C29      1.0000 0.78105  0.41492  0.41538  Biso   1.000  C
  C30      1.0000 0.71115  0.37819  0.48171  Biso   1.000  C
  C31      1.0000 0.89052  0.38369  0.39947  Biso   1.000  C
  C32      1.0000 0.89050  0.34183  0.39517  Biso   1.000  C
  C33      1.0000 0.78037  0.32167  0.40919  Biso   1.000  C
  C34      1.0000 0.99869  0.31755  0.37647  Biso   1.000  C
  C35      1.0000 0.10122  0.33467  0.36449  Biso   1.000  C
  C36      1.0000 0.09307  0.37620  0.36926  Biso   1.000  C
  C37      1.0000 0.85204  0.26166  0.57186  Biso   1.000  C
  C38      1.0000 0.79738  0.22641  0.59123  Biso   1.000  C
  C39      1.0000 0.82620  0.18885  0.57035  Biso   1.000  C
  C40      1.0000 0.78530  0.15510  0.58830  Biso   1.000  C
  C41      1.0000 0.71460  0.15980  0.62540  Biso   1.000  C
  C42      1.0000 0.72520  0.22890  0.62990  Biso   1.000  C
  C43      1.0000 0.69810  0.26656  0.65504  Biso   1.000  C
  C44      1.0000 0.64030  0.30260  0.64200  Biso   1.000  C
  C45      1.0000 0.58156  0.30864  0.60284  Biso   1.000  C
  C46      1.0000 0.63520  0.33870  0.66530  Biso   1.000  C
  C47      1.0000 0.68030  0.33560  0.70260  Biso   1.000  C
  C48      1.0000 0.72070  0.29690  0.71490  Biso   1.000  C
  C49      1.0000 0.77948  0.29671  0.08553  Biso   1.000  C
  C50      1.0000 0.76819  0.26397  0.11065  Biso   1.000  C
  C51      1.0000 0.67410  0.24208  0.10872  Biso   1.000  C
  C52      1.0000 0.59566  0.25412  0.08056  Biso   1.000  C
  C53      1.0000 0.49487  0.22944  0.07902  Biso   1.000  C
  C54      1.0000 0.61551  0.28804  0.05534  Biso   1.000  C
  C55      1.0000 0.53679  0.30613  0.02509  Biso   1.000  C
  C56      1.0000 0.49115  0.28365  0.99765  Biso   1.000  C
  C57      1.0000 0.53516  0.23872  0.98936  Biso   1.000  C
  C58      1.0000 0.40941  0.30514  0.97444  Biso   1.000  C
  C59      1.0000 0.38298  0.34752  0.97692  Biso   1.000  C
  C60      1.0000 0.44021  0.36714  0.00124  Biso   1.000  C
  C61      1.0000 0.71956  0.04175  0.81973  Biso   1.000  C
  C62      1.0000 0.66360  0.08174  0.81226  Biso   1.000  C
  C63      1.0000 0.59948  0.10512  0.84532  Biso   1.000  C
  C64      1.0000 0.59396  0.08931  0.88517  Biso   1.000  C
  C65      1.0000 0.50762  0.11352  0.91864  Biso   1.000  C
  C66      1.0000 0.65793  0.05033  0.89001  Biso   1.000  C
  C67      1.0000 0.66370  0.03020  0.93100  Biso   1.000  C
  C68      1.0000 0.68824  0.04797  0.96535  Biso   1.000  C
  C69      1.0000 0.72836  0.08994  0.96394  Biso   1.000  C
  C70      1.0000 0.68267  0.02551  0.00175  Biso   1.000  C
  C71      1.0000 0.65985  0.98633  0.00237  Biso   1.000  C
  C72      1.0000 0.64721  0.96882  0.96596  Biso   1.000  C
  C73      1.0000 0.05510  0.02159  0.09981  Biso   1.000  C
  C74      1.0000 0.98600  0.02483  0.06897  Biso   1.000  C
  C75      1.0000 0.98974  0.05838  0.04314  Biso   1.000  C
  C76      1.0000 0.05575  0.08887  0.05003  Biso   1.000  C
  C77      1.0000 0.11135  0.08508  0.08462  Biso   1.000  C
  C78      1.0000 0.07105  0.12181  0.01829  Biso   1.000  C
  C79      1.0000 0.17368  0.11631  0.10053  Biso   1.000  C
  C80      1.0000 0.12750  0.15817  0.10483  Biso   1.000  C
  C81      1.0000 0.01123  0.17833  0.09081  Biso   1.000  C
  C82      1.0000 0.19271  0.18245  0.12353  Biso   1.000  C
  C83      1.0000 0.30038  0.16533  0.13551  Biso   1.000  C
  C84      1.0000 0.33853  0.12380  0.13074  Biso   1.000  C
  C85      1.0000 0.18556  0.23834  0.92814  Biso   1.000  C
  C86      1.0000 0.11502  0.27359  0.90877  Biso   1.000  C
  C87      1.0000 0.08540  0.31115  0.92965  Biso   1.000  C
  C88      1.0000 0.02870  0.34490  0.91170  Biso   1.000  C
  C89      1.0000 0.99980  0.34020  0.87460  Biso   1.000  C
  C90      1.0000 0.08400  0.27110  0.87010  Biso   1.000  C
  C91      1.0000 0.11970  0.23344  0.84496  Biso   1.000  C
  C92      1.0000 0.08490  0.19740  0.85800  Biso   1.000  C
  C93      1.0000 0.99304  0.19136  0.89716  Biso   1.000  C
  C94      1.0000 0.13920  0.16130  0.83470  Biso   1.000  C
  C95      1.0000 0.21850  0.16440  0.79740  Biso   1.000  C
  C96      1.0000 0.23250  0.20310  0.78510  Biso   1.000  C
  C97      1.0000 0.07619  0.58553  0.70329  Biso   1.000  C
  C98      1.0000 0.03216  0.61065  0.73603  Biso   1.000  C
  C99      1.0000 0.91618  0.60872  0.75792  Biso   1.000  C
  C100     1.0000 0.84978  0.58056  0.74588  Biso   1.000  C
  C101     1.0000 0.72431  0.57902  0.77056  Biso   1.000  C
  C102     1.0000 0.90355  0.55534  0.71196  Biso   1.000  C
  C103     1.0000 0.84292  0.52509  0.69387  Biso   1.000  C
  C104     1.0000 0.77480  0.49765  0.71635  Biso   1.000  C
  C105     1.0000 0.77388  0.48936  0.76128  Biso   1.000  C
  C106     1.0000 0.71455  0.47444  0.69486  Biso   1.000  C
  C107     1.0000 0.73050  0.47692  0.65248  Biso   1.000  C
  C108     1.0000 0.80735  0.50124  0.63286  Biso   1.000  C
  C109     1.0000 0.76131  0.31973  0.95825  Biso   1.000  C
  C110     1.0000 0.74534  0.31226  0.91826  Biso   1.000  C
  C111     1.0000 0.70460  0.34532  0.89488  Biso   1.000  C
  C112     1.0000 0.68327  0.38517  0.91069  Biso   1.000  C
  C113     1.0000 0.62114  0.41864  0.88648  Biso   1.000  C
  C114     1.0000 0.70826  0.39001  0.94967  Biso   1.000  C
  C115     1.0000 0.69390  0.43100  0.96980  Biso   1.000  C
  C116     1.0000 0.73621  0.46535  0.95203  Biso   1.000  C
  C117     1.0000 0.81830  0.46394  0.91006  Biso   1.000  C
  C118     1.0000 0.70818  0.50175  0.97449  Biso   1.000  C
  C119     1.0000 0.64618  0.50237  0.01367  Biso   1.000  C
  C120     1.0000 0.61603  0.46596  0.03118  Biso   1.000  C
  C121     1.0000 0.07669  0.59981  0.97841  Biso   1.000  C
  C122     1.0000 0.01083  0.56897  0.97517  Biso   1.000  C
  C123     1.0000 0.04812  0.54314  0.94162  Biso   1.000  C
  C124     1.0000 0.14462  0.55003  0.91113  Biso   1.000  C
  C125     1.0000 0.19643  0.58462  0.91492  Biso   1.000  C
  C126     1.0000 0.19286  0.51829  0.87819  Biso   1.000  C
  C127     1.0000 0.28999  0.60053  0.88369  Biso   1.000  C
  C128     1.0000 0.28567  0.60483  0.84183  Biso   1.000  C
  C129     1.0000 0.18956  0.59081  0.82167  Biso   1.000  C
  C130     1.0000 0.37516  0.62353  0.81755  Biso   1.000  C
  C131     1.0000 0.46571  0.63551  0.83467  Biso   1.000  C
  C132     1.0000 0.46233  0.63074  0.87620  Biso   1.000  C
  C133     1.0000 0.42390  0.42814  0.76166  Biso   1.000  C
  C134     1.0000 0.38861  0.40877  0.72641  Biso   1.000  C
  C135     1.0000 0.39655  0.42965  0.68885  Biso   1.000  C
  C136     1.0000 0.37360  0.41170  0.65510  Biso   1.000  C
  C137     1.0000 0.34000  0.37460  0.65980  Biso   1.000  C
  C138     1.0000 0.35510  0.37010  0.72890  Biso   1.000  C
  C139     1.0000 0.35314  0.34496  0.76656  Biso   1.000  C
  C140     1.0000 0.28230  0.35800  0.80260  Biso   1.000  C
  C141     1.0000 0.18440  0.39716  0.80864  Biso   1.000  C
  C142     1.0000 0.30050  0.33470  0.83870  Biso   1.000  C
  C143     1.0000 0.38290  0.29740  0.83560  Biso   1.000  C
  C144     1.0000 0.43560  0.28510  0.79690  Biso   1.000  C
  C145     1.0000 0.86501  0.91447  0.79671  Biso   1.000  C
  C146     1.0000 0.87884  0.88935  0.76397  Biso   1.000  C
  C147     1.0000 0.78282  0.89128  0.74208  Biso   1.000  C
  C148     1.0000 0.67622  0.91944  0.75412  Biso   1.000  C
  C149     1.0000 0.57389  0.92098  0.72944  Biso   1.000  C
  C150     1.0000 0.67085  0.94466  0.78804  Biso   1.000  C
  C151     1.0000 0.56188  0.97491  0.80613  Biso   1.000  C
  C152     1.0000 0.48880  0.00235  0.78365  Biso   1.000  C
  C153     1.0000 0.52452  0.01064  0.73872  Biso   1.000  C
  C154     1.0000 0.38385  0.02556  0.80514  Biso   1.000  C
  C155     1.0000 0.35990  0.02308  0.84752  Biso   1.000  C
  C156     1.0000 0.44145  0.99876  0.86714  Biso   1.000  C
  C157     1.0000 0.53929  0.18027  0.54175  Biso   1.000  C
  C158     1.0000 0.47586  0.18774  0.58174  Biso   1.000  C
  C159     1.0000 0.44480  0.15468  0.60512  Biso   1.000  C
  C160     1.0000 0.47913  0.11483  0.58931  Biso   1.000  C
  C161     1.0000 0.42626  0.08136  0.61352  Biso   1.000  C
  C162     1.0000 0.54794  0.10999  0.55033  Biso   1.000  C
  C163     1.0000 0.59470  0.06900  0.53020  Biso   1.000  C
  C164     1.0000 0.65359  0.03465  0.54797  Biso   1.000  C
  C165     1.0000 0.69230  0.03606  0.58994  Biso   1.000  C
  C166     1.0000 0.68442  0.99825  0.52551  Biso   1.000  C
  C167     1.0000 0.66222  0.99763  0.48633  Biso   1.000  C
  C168     1.0000 0.61317  0.03404  0.46882  Biso   1.000  C
  C169     1.0000 0.15491  0.90019  0.52159  Biso   1.000  C
  C170     1.0000 0.05497  0.93103  0.52483  Biso   1.000  C
  C171     1.0000 0.03288  0.95686  0.55838  Biso   1.000  C
  C172     1.0000 0.10578  0.94997  0.58887  Biso   1.000  C
  C173     1.0000 0.19597  0.91538  0.58508  Biso   1.000  C
  C174     1.0000 0.08934  0.98171  0.62181  Biso   1.000  C
  C175     1.0000 0.27421  0.89947  0.61631  Biso   1.000  C
  C176     1.0000 0.23233  0.89517  0.65817  Biso   1.000  C
  C177     1.0000 0.10204  0.90919  0.67833  Biso   1.000  C
  C178     1.0000 0.31624  0.87647  0.68245  Biso   1.000  C
  C179     1.0000 0.43589  0.86449  0.66533  Biso   1.000  C
  C180     1.0000 0.46927  0.86926  0.62380  Biso   1.000  C
  C181     1.0000 0.11370  0.07186  0.73834  Biso   1.000  C
  C182     1.0000 0.02379  0.09123  0.77359  Biso   1.000  C
  C183     1.0000 0.01505  0.07035  0.81115  Biso   1.000  C
  C184     1.0000 0.94040  0.08830  0.84490  Biso   1.000  C
  C185     1.0000 0.87440  0.12540  0.84020  Biso   1.000  C
  C186     1.0000 0.95410  0.12990  0.77110  Biso   1.000  C
  C187     1.0000 0.96466  0.15504  0.73344  Biso   1.000  C
  C188     1.0000 0.94290  0.14200  0.69740  Biso   1.000  C
  C189     1.0000 0.89020  0.10284  0.69136  Biso   1.000  C
  C190     1.0000 0.97390  0.16530  0.66130  Biso   1.000  C
  C191     1.0000 0.01590  0.20260  0.66440  Biso   1.000  C
  C192     1.0000 0.01760  0.21490  0.70310  Biso   1.000  C
  C193     1.0000 0.33828  0.79671  0.58553  Biso   1.000  C
  C194     1.0000 0.35719  0.76397  0.61065  Biso   1.000  C
  C195     1.0000 0.47510  0.74208  0.60872  Biso   1.000  C
  C196     1.0000 0.56966  0.75412  0.58056  Biso   1.000  C
  C197     1.0000 0.69667  0.72944  0.57902  Biso   1.000  C
  C198     1.0000 0.54111  0.78804  0.55534  Biso   1.000  C
  C199     1.0000 0.63199  0.80613  0.52509  Biso   1.000  C
  C200     1.0000 0.72755  0.78365  0.49765  Biso   1.000  C
  C201     1.0000 0.73676  0.73872  0.48936  Biso   1.000  C
  C202     1.0000 0.81101  0.80514  0.47444  Biso   1.000  C
  C203     1.0000 0.79258  0.84752  0.47692  Biso   1.000  C
  C204     1.0000 0.69141  0.86714  0.50124  Biso   1.000  C
  C205     1.0000 0.91896  0.54175  0.31973  Biso   1.000  C
  C206     1.0000 0.94240  0.58174  0.31226  Biso   1.000  C
  C207     1.0000 0.95008  0.60512  0.34532  Biso   1.000  C
  C208     1.0000 0.93156  0.58931  0.38517  Biso   1.000  C
  C209     1.0000 0.96022  0.61352  0.41864  Biso   1.000  C
  C210     1.0000 0.90173  0.55033  0.39001  Biso   1.000  C
  C211     1.0000 0.87510  0.53020  0.43100  Biso   1.000  C
  C212     1.0000 0.79844  0.54797  0.46535  Biso   1.000  C
  C213     1.0000 0.71776  0.58994  0.46394  Biso   1.000  C
  C214     1.0000 0.79007  0.52551  0.50175  Biso   1.000  C
  C215     1.0000 0.85145  0.48633  0.50237  Biso   1.000  C
  C216     1.0000 0.91801  0.46882  0.46596  Biso   1.000  C
  C217     1.0000 0.32350  0.52159  0.59981  Biso   1.000  C
  C218     1.0000 0.42020  0.52483  0.56897  Biso   1.000  C
  C219     1.0000 0.40874  0.55838  0.54314  Biso   1.000  C
  C220     1.0000 0.30535  0.58887  0.55003  Biso   1.000  C
  C221     1.0000 0.21895  0.58508  0.58462  Biso   1.000  C
  C222     1.0000 0.28885  0.62181  0.51829  Biso   1.000  C
  C223     1.0000 0.10948  0.61631  0.60053  Biso   1.000  C
  C224     1.0000 0.10950  0.65817  0.60483  Biso   1.000  C
  C225     1.0000 0.21963  0.67833  0.59081  Biso   1.000  C
  C226     1.0000 0.00131  0.68245  0.62353  Biso   1.000  C
  C227     1.0000 0.89878  0.66533  0.63551  Biso   1.000  C
  C228     1.0000 0.90693  0.62380  0.63074  Biso   1.000  C
  C229     1.0000 0.14796  0.73834  0.42814  Biso   1.000  C
  C230     1.0000 0.20262  0.77359  0.40877  Biso   1.000  C
  C231     1.0000 0.17380  0.81115  0.42965  Biso   1.000  C
  C232     1.0000 0.21470  0.84490  0.41170  Biso   1.000  C
  C233     1.0000 0.28540  0.84020  0.37460  Biso   1.000  C
  C234     1.0000 0.27480  0.77110  0.37010  Biso   1.000  C
  C235     1.0000 0.30190  0.73344  0.34496  Biso   1.000  C
  C236     1.0000 0.35970  0.69740  0.35800  Biso   1.000  C
  C237     1.0000 0.41844  0.69136  0.39716  Biso   1.000  C
  C238     1.0000 0.36480  0.66130  0.33470  Biso   1.000  C
  C239     1.0000 0.31970  0.66440  0.29740  Biso   1.000  C
  C240     1.0000 0.27930  0.70310  0.28510  Biso   1.000  C
  C241     1.0000 0.22052  0.70329  0.91447  Biso   1.000  C
  C242     1.0000 0.23181  0.73603  0.88935  Biso   1.000  C
  C243     1.0000 0.32590  0.75792  0.89128  Biso   1.000  C
  C244     1.0000 0.40434  0.74588  0.91944  Biso   1.000  C
  C245     1.0000 0.50513  0.77056  0.92098  Biso   1.000  C
  C246     1.0000 0.38449  0.71196  0.94466  Biso   1.000  C
  C247     1.0000 0.46321  0.69387  0.97491  Biso   1.000  C
  C248     1.0000 0.50885  0.71635  0.00235  Biso   1.000  C
  C249     1.0000 0.46484  0.76128  0.01064  Biso   1.000  C
  C250     1.0000 0.59059  0.69486  0.02556  Biso   1.000  C
  C251     1.0000 0.61702  0.65248  0.02308  Biso   1.000  C
  C252     1.0000 0.55979  0.63286  0.99876  Biso   1.000  C
  C253     1.0000 0.28044  0.95825  0.18027  Biso   1.000  C
  C254     1.0000 0.33640  0.91826  0.18774  Biso   1.000  C
  C255     1.0000 0.40052  0.89488  0.15468  Biso   1.000  C
  C256     1.0000 0.40604  0.91069  0.11483  Biso   1.000  C
  C257     1.0000 0.49238  0.88648  0.08136  Biso   1.000  C
  C258     1.0000 0.34207  0.94967  0.10999  Biso   1.000  C
  C259     1.0000 0.33630  0.96980  0.06900  Biso   1.000  C
  C260     1.0000 0.31176  0.95203  0.03465  Biso   1.000  C
  C261     1.0000 0.27164  0.91006  0.03606  Biso   1.000  C
  C262     1.0000 0.31733  0.97449  0.99825  Biso   1.000  C
  C263     1.0000 0.34015  0.01367  0.99763  Biso   1.000  C
  C264     1.0000 0.35279  0.03118  0.03404  Biso   1.000  C
  C265     1.0000 0.94490  0.97841  0.90019  Biso   1.000  C
  C266     1.0000 0.01400  0.97517  0.93103  Biso   1.000  C
  C267     1.0000 0.01026  0.94162  0.95686  Biso   1.000  C
  C268     1.0000 0.94425  0.91113  0.94997  Biso   1.000  C
  C269     1.0000 0.88865  0.91492  0.91538  Biso   1.000  C
  C270     1.0000 0.92895  0.87819  0.98171  Biso   1.000  C
  C271     1.0000 0.82632  0.88369  0.89947  Biso   1.000  C
  C272     1.0000 0.87250  0.84183  0.89517  Biso   1.000  C
  C273     1.0000 0.98877  0.82167  0.90919  Biso   1.000  C
  C274     1.0000 0.80729  0.81755  0.87647  Biso   1.000  C
  C275     1.0000 0.69962  0.83467  0.86449  Biso   1.000  C
  C276     1.0000 0.66147  0.87620  0.86926  Biso   1.000  C
  C277     1.0000 0.81444  0.76166  0.07186  Biso   1.000  C
  C278     1.0000 0.88498  0.72641  0.09123  Biso   1.000  C
  C279     1.0000 0.91460  0.68885  0.07035  Biso   1.000  C
  C280     1.0000 0.97130  0.65510  0.08830  Biso   1.000  C
  C281     1.0000 0.00020  0.65980  0.12540  Biso   1.000  C
  C282     1.0000 0.91600  0.72890  0.12990  Biso   1.000  C
  C283     1.0000 0.88030  0.76656  0.15504  Biso   1.000  C
  C284     1.0000 0.91510  0.80260  0.14200  Biso   1.000  C
  C285     1.0000 0.00696  0.80864  0.10284  Biso   1.000  C
  C286     1.0000 0.86080  0.83870  0.16530  Biso   1.000  C
  C287     1.0000 0.78150  0.83560  0.20260  Biso   1.000  C
  C288     1.0000 0.76750  0.79690  0.21490  Biso   1.000  C
  C289     1.0000 0.92381  0.41447  0.29671  Biso   1.000  C
  C290     1.0000 0.96784  0.38935  0.26397  Biso   1.000  C
  C291     1.0000 0.08382  0.39128  0.24208  Biso   1.000  C
  C292     1.0000 0.15022  0.41944  0.25412  Biso   1.000  C
  C293     1.0000 0.27569  0.42098  0.22944  Biso   1.000  C
  C294     1.0000 0.09645  0.44466  0.28804  Biso   1.000  C
  C295     1.0000 0.15708  0.47491  0.30613  Biso   1.000  C
  C296     1.0000 0.22520  0.50235  0.28365  Biso   1.000  C
  C297     1.0000 0.22612  0.51064  0.23872  Biso   1.000  C
  C298     1.0000 0.28545  0.52556  0.30514  Biso   1.000  C
  C299     1.0000 0.26950  0.52308  0.34752  Biso   1.000  C
  C300     1.0000 0.19265  0.49876  0.36714  Biso   1.000  C
  C301     1.0000 0.23869  0.68027  0.04175  Biso   1.000  C
  C302     1.0000 0.25466  0.68774  0.08174  Biso   1.000  C
  C303     1.0000 0.29540  0.65468  0.10512  Biso   1.000  C
  C304     1.0000 0.31673  0.61483  0.08931  Biso   1.000  C
  C305     1.0000 0.37886  0.58136  0.11352  Biso   1.000  C
  C306     1.0000 0.29174  0.60999  0.05033  Biso   1.000  C
  C307     1.0000 0.30610  0.56900  0.03020  Biso   1.000  C
  C308     1.0000 0.26379  0.53465  0.04797  Biso   1.000  C
  C309     1.0000 0.18170  0.53606  0.08994  Biso   1.000  C
  C310     1.0000 0.29182  0.49825  0.02551  Biso   1.000  C
  C311     1.0000 0.35382  0.49763  0.98633  Biso   1.000  C
  C312     1.0000 0.38397  0.53404  0.96882  Biso   1.000  C
  C313     1.0000 0.92331  0.40019  0.02159  Biso   1.000  C
  C314     1.0000 0.98917  0.43103  0.02483  Biso   1.000  C
  C315     1.0000 0.95188  0.45686  0.05838  Biso   1.000  C
  C316     1.0000 0.85538  0.44997  0.08887  Biso   1.000  C
  C317     1.0000 0.80357  0.41538  0.08508  Biso   1.000  C
  C318     1.0000 0.80714  0.48171  0.12181  Biso   1.000  C
  C319     1.0000 0.71001  0.39947  0.11631  Biso   1.000  C
  C320     1.0000 0.71433  0.39517  0.15817  Biso   1.000  C
  C321     1.0000 0.81044  0.40919  0.17833  Biso   1.000  C
  C322     1.0000 0.62484  0.37647  0.18245  Biso   1.000  C
  C323     1.0000 0.53429  0.36449  0.16533  Biso   1.000  C
  C324     1.0000 0.53767  0.36926  0.12380  Biso   1.000  C
  C325     1.0000 0.57610  0.57186  0.23834  Biso   1.000  C
  C326     1.0000 0.61139  0.59123  0.27359  Biso   1.000  C
  C327     1.0000 0.60345  0.57035  0.31115  Biso   1.000  C
  C328     1.0000 0.62640  0.58830  0.34490  Biso   1.000  C
  C329     1.0000 0.66000  0.62540  0.34020  Biso   1.000  C
  C330     1.0000 0.64490  0.62990  0.27110  Biso   1.000  C
  C331     1.0000 0.64686  0.65504  0.23344  Biso   1.000  C
  C332     1.0000 0.71770  0.64200  0.19740  Biso   1.000  C
  C333     1.0000 0.81560  0.60284  0.19136  Biso   1.000  C
  C334     1.0000 0.69950  0.66530  0.16130  Biso   1.000  C
  C335     1.0000 0.61710  0.70260  0.16440  Biso   1.000  C
  C336     1.0000 0.56440  0.71490  0.20310  Biso   1.000  C
  C337     1.0000 0.13499  0.08553  0.20329  Biso   1.000  C
  C338     1.0000 0.12116  0.11065  0.23603  Biso   1.000  C
  C339     1.0000 0.21718  0.10872  0.25792  Biso   1.000  C
  C340     1.0000 0.32378  0.08056  0.24588  Biso   1.000  C
  C341     1.0000 0.42611  0.07902  0.27056  Biso   1.000  C
  C342     1.0000 0.32915  0.05534  0.21196  Biso   1.000  C
  C343     1.0000 0.43812  0.02509  0.19387  Biso   1.000  C
  C344     1.0000 0.51120  0.99765  0.21635  Biso   1.000  C
  C345     1.0000 0.47548  0.98936  0.26128  Biso   1.000  C
  C346     1.0000 0.61615  0.97444  0.19486  Biso   1.000  C
  C347     1.0000 0.64010  0.97692  0.15248  Biso   1.000  C
  C348     1.0000 0.55855  0.00124  0.13286  Biso   1.000  C
  C349     1.0000 0.46071  0.81973  0.45825  Biso   1.000  C
  C350     1.0000 0.52414  0.81226  0.41826  Biso   1.000  C
  C351     1.0000 0.55520  0.84532  0.39488  Biso   1.000  C
  C352     1.0000 0.52087  0.88517  0.41069  Biso   1.000  C
  C353     1.0000 0.57374  0.91864  0.38648  Biso   1.000  C
  C354     1.0000 0.45206  0.89001  0.44967  Biso   1.000  C
  C355     1.0000 0.40530  0.93100  0.46980  Biso   1.000  C
  C356     1.0000 0.34641  0.96535  0.45203  Biso   1.000  C
  C357     1.0000 0.30770  0.96394  0.41006  Biso   1.000  C
  C358     1.0000 0.31558  0.00175  0.47449  Biso   1.000  C
  C359     1.0000 0.33778  0.00237  0.51367  Biso   1.000  C
  C360     1.0000 0.38683  0.96596  0.53118  Biso   1.000  C
  C361     1.0000 0.84509  0.09981  0.47841  Biso   1.000  C
  C362     1.0000 0.94503  0.06897  0.47517  Biso   1.000  C
  C363     1.0000 0.96712  0.04314  0.44162  Biso   1.000  C
  C364     1.0000 0.89422  0.05003  0.41113  Biso   1.000  C
  C365     1.0000 0.80403  0.08462  0.41492  Biso   1.000  C
  C366     1.0000 0.91066  0.01829  0.37819  Biso   1.000  C
  C367     1.0000 0.72579  0.10053  0.38369  Biso   1.000  C
  C368     1.0000 0.76767  0.10483  0.34183  Biso   1.000  C
  C369     1.0000 0.89796  0.09081  0.32167  Biso   1.000  C
  C370     1.0000 0.68376  0.12353  0.31755  Biso   1.000  C
  C371     1.0000 0.56411  0.13551  0.33467  Biso   1.000  C
  C372     1.0000 0.53073  0.13074  0.37620  Biso   1.000  C
  C373     1.0000 0.88630  0.92814  0.26166  Biso   1.000  C
  C374     1.0000 0.97621  0.90877  0.22641  Biso   1.000  C
  C375     1.0000 0.98495  0.92965  0.18885  Biso   1.000  C
  C376     1.0000 0.05960  0.91170  0.15510  Biso   1.000  C
  C377     1.0000 0.12560  0.87460  0.15980  Biso   1.000  C
  C378     1.0000 0.04590  0.87010  0.22890  Biso   1.000  C
  C379     1.0000 0.03534  0.84496  0.26656  Biso   1.000  C
  C380     1.0000 0.05710  0.85800  0.30260  Biso   1.000  C
  C381     1.0000 0.10980  0.89716  0.30864  Biso   1.000  C
  C382     1.0000 0.02610  0.83470  0.33870  Biso   1.000  C
  C383     1.0000 0.98410  0.79740  0.33560  Biso   1.000  C
  C384     1.0000 0.98240  0.78510  0.29690  Biso   1.000  C
  N1       1.0000 0.57235  0.19062  0.44188  Biso   1.000  N
  N2       1.0000 0.38898  0.15303  0.47501  Biso   1.000  N
  N3       1.0000 0.09978  0.47336  0.64228  Biso   1.000  N
  N4       1.0000 0.07058  0.51023  0.56901  Biso   1.000  N
  N5       1.0000 0.99121  0.40038  0.38600  Biso   1.000  N
  N6       1.0000 0.77562  0.44949  0.39207  Biso   1.000  N
  N7       1.0000 0.73157  0.26210  0.69256  Biso   1.000  N
  N8       1.0000 0.68040  0.19556  0.64784  Biso   1.000  N
  N9       1.0000 0.70485  0.30938  0.05812  Biso   1.000  N
  N10      1.0000 0.51702  0.34697  0.02499  Biso   1.000  N
  N11      1.0000 0.71542  0.02664  0.85772  Biso   1.000  N
  N12      1.0000 0.64982  0.98977  0.93099  Biso   1.000  N
  N13      1.0000 0.27759  0.09962  0.11400  Biso   1.000  N
  N14      1.0000 0.11718  0.05051  0.10793  Biso   1.000  N
  N15      1.0000 0.18623  0.23790  0.80744  Biso   1.000  N
  N16      1.0000 0.02380  0.30444  0.85216  Biso   1.000  N
  N17      1.0000 0.01423  0.55812  0.69062  Biso   1.000  N
  N18      1.0000 0.86399  0.52499  0.65303  Biso   1.000  N
  N19      1.0000 0.74206  0.35772  0.97336  Biso   1.000  N
  N20      1.0000 0.63959  0.43099  0.01023  Biso   1.000  N
  N21      1.0000 0.37721  0.61400  0.90038  Biso   1.000  N
  N22      1.0000 0.16769  0.60793  0.94949  Biso   1.000  N
  N23      1.0000 0.42413  0.30744  0.76210  Biso   1.000  N
  N24      1.0000 0.32824  0.35216  0.69556  Biso   1.000  N
  N25      1.0000 0.76297  0.94188  0.80938  Biso   1.000  N
  N26      1.0000 0.54201  0.97501  0.84697  Biso   1.000  N
  N27      1.0000 0.57314  0.14228  0.52664  Biso   1.000  N
  N28      1.0000 0.58081  0.06901  0.48977  Biso   1.000  N
  N29      1.0000 0.39159  0.88600  0.59962  Biso   1.000  N
  N30      1.0000 0.22511  0.89207  0.55051  Biso   1.000  N
  N31      1.0000 0.99367  0.19256  0.73790  Biso   1.000  N
  N32      1.0000 0.87596  0.14784  0.80444  Biso   1.000  N
  N33      1.0000 0.42765  0.80938  0.55812  Biso   1.000  N
  N34      1.0000 0.61102  0.84697  0.52499  Biso   1.000  N
  N35      1.0000 0.90022  0.52664  0.35772  Biso   1.000  N
  N36      1.0000 0.92942  0.48977  0.43099  Biso   1.000  N
  N37      1.0000 0.00879  0.59962  0.61400  Biso   1.000  N
  N38      1.0000 0.22438  0.55051  0.60793  Biso   1.000  N
  N39      1.0000 0.26843  0.73790  0.30744  Biso   1.000  N
  N40      1.0000 0.31960  0.80444  0.35216  Biso   1.000  N
  N41      1.0000 0.29515  0.69062  0.94188  Biso   1.000  N
  N42      1.0000 0.48298  0.65303  0.97501  Biso   1.000  N
  N43      1.0000 0.28458  0.97336  0.14228  Biso   1.000  N
  N44      1.0000 0.35018  0.01023  0.06901  Biso   1.000  N
  N45      1.0000 0.72241  0.90038  0.88600  Biso   1.000  N
  N46      1.0000 0.88282  0.94949  0.89207  Biso   1.000  N
  N47      1.0000 0.81377  0.76210  0.19256  Biso   1.000  N
  N48      1.0000 0.97620  0.69556  0.14784  Biso   1.000  N
  N49      1.0000 0.98577  0.44188  0.30938  Biso   1.000  N
  N50      1.0000 0.13601  0.47501  0.34697  Biso   1.000  N
  N51      1.0000 0.25794  0.64228  0.02664  Biso   1.000  N
  N52      1.0000 0.36041  0.56901  0.98977  Biso   1.000  N
  N53      1.0000 0.62279  0.38600  0.09962  Biso   1.000  N
  N54      1.0000 0.83231  0.39207  0.05051  Biso   1.000  N
  N55      1.0000 0.57587  0.69256  0.23790  Biso   1.000  N
  N56      1.0000 0.67176  0.64784  0.30444  Biso   1.000  N
  N57      1.0000 0.23703  0.05812  0.19062  Biso   1.000  N
  N58      1.0000 0.45799  0.02499  0.15303  Biso   1.000  N
  N59      1.0000 0.42686  0.85772  0.47336  Biso   1.000  N
  N60      1.0000 0.41919  0.93099  0.51023  Biso   1.000  N
  N61      1.0000 0.60841  0.11400  0.40038  Biso   1.000  N
  N62      1.0000 0.77489  0.10793  0.44949  Biso   1.000  N
  N63      1.0000 0.00633  0.80744  0.26210  Biso   1.000  N
  N64      1.0000 0.12404  0.85216  0.19556  Biso   1.000  N
  O1       1.0000 0.29314  0.30866  0.42206  Biso   1.000  O
  O2       1.0000 0.21696  0.25064  0.42144  Biso   1.000  O
  O3       1.0000 0.36313  0.27460  0.50634  Biso   1.000  O
  O4       1.0000 0.16095  0.28222  0.52248  Biso   1.000  O
  O5       1.0000 0.06040  0.34738  0.58502  Biso   1.000  O
  O6       1.0000 0.99618  0.40368  0.55216  Biso   1.000  O
  O7       1.0000 0.36129  0.40647  0.55855  Biso   1.000  O
  O8       1.0000 0.27154  0.38185  0.51307  Biso   1.000  O
  O9       1.0000 0.79737  0.28886  0.42880  Biso   1.000  O
  O10      1.0000 0.68070  0.33922  0.39998  Biso   1.000  O
  O11      1.0000 0.46975  0.33870  0.45240  Biso   1.000  O
  O12      1.0000 0.63533  0.27365  0.49809  Biso   1.000  O
  O13      1.0000 0.29604  0.31541  0.58791  Biso   1.000  O
  O14      1.0000 0.54121  0.27945  0.58973  Biso   1.000  O
  O15      1.0000 0.56823  0.34326  0.58828  Biso   1.000  O
  O16      1.0000 0.61823  0.36941  0.50353  Biso   1.000  O
  O17      1.0000 0.81894  0.36333  0.48479  Biso   1.000  O
  O18      1.0000 0.99493  0.27896  0.46638  Biso   1.000  O
  O19      1.0000 0.10732  0.36017  0.47019  Biso   1.000  O
  O20      1.0000 0.78835  0.36534  0.57916  Biso   1.000  O
  O21      1.0000 0.93380  0.27401  0.58619  Biso   1.000  O
  O22      1.0000 0.81371  0.27819  0.54059  Biso   1.000  O
  O23      1.0000 0.52386  0.19134  0.07794  Biso   1.000  O
  O24      1.0000 0.38904  0.24936  0.07856  Biso   1.000  O
  O25      1.0000 0.64407  0.22540  0.99366  Biso   1.000  O
  O26      1.0000 0.46565  0.21778  0.97752  Biso   1.000  O
  O27      1.0000 0.49280  0.15262  0.91498  Biso   1.000  O
  O28      1.0000 0.45202  0.09632  0.94784  Biso   1.000  O
  O29      1.0000 0.82631  0.09353  0.94145  Biso   1.000  O
  O30      1.0000 0.66646  0.11815  0.98693  Biso   1.000  O
  O31      1.0000 0.01503  0.21114  0.07120  Biso   1.000  O
  O32      1.0000 0.91990  0.16078  0.10002  Biso   1.000  O
  O33      1.0000 0.76085  0.16130  0.04760  Biso   1.000  O
  O34      1.0000 0.90707  0.22635  0.00191  Biso   1.000  O
  O35      1.0000 0.69936  0.18459  0.91209  Biso   1.000  O
  O36      1.0000 0.91039  0.22055  0.91027  Biso   1.000  O
  O37      1.0000 0.99977  0.15674  0.91172  Biso   1.000  O
  O38      1.0000 0.99117  0.13059  0.99647  Biso   1.000  O
  O39      1.0000 0.16706  0.13667  0.01521  Biso   1.000  O
  O40      1.0000 0.24027  0.22104  0.03362  Biso   1.000  O
  O41      1.0000 0.43768  0.13983  0.02981  Biso   1.000  O
  O42      1.0000 0.23285  0.13466  0.92084  Biso   1.000  O
  O43      1.0000 0.29400  0.22599  0.91381  Biso   1.000  O
  O44      1.0000 0.13249  0.22181  0.95941  Biso   1.000  O
  O45      1.0000 0.71520  0.57794  0.80866  Biso   1.000  O
  O46      1.0000 0.63840  0.57856  0.75064  Biso   1.000  O
  O47      1.0000 0.86947  0.49366  0.77460  Biso   1.000  O
  O48      1.0000 0.68343  0.47752  0.78222  Biso   1.000  O
  O49      1.0000 0.64542  0.41498  0.84738  Biso   1.000  O
  O50      1.0000 0.54834  0.44784  0.90368  Biso   1.000  O
  O51      1.0000 0.91984  0.44145  0.90647  Biso   1.000  O
  O52      1.0000 0.78461  0.48693  0.88185  Biso   1.000  O
  O53      1.0000 0.22617  0.57120  0.78886  Biso   1.000  O
  O54      1.0000 0.08068  0.60002  0.83922  Biso   1.000  O
  O55      1.0000 0.92215  0.54760  0.83870  Biso   1.000  O
  O56      1.0000 0.13342  0.50191  0.77365  Biso   1.000  O
  O57      1.0000 0.88395  0.41209  0.81541  Biso   1.000  O
  O58      1.0000 0.13094  0.41027  0.77945  Biso   1.000  O
  O59      1.0000 0.15651  0.41172  0.84326  Biso   1.000  O
  O60      1.0000 0.12176  0.49647  0.86941  Biso   1.000  O
  O61      1.0000 0.30373  0.51521  0.86333  Biso   1.000  O
  O62      1.0000 0.46131  0.53362  0.77896  Biso   1.000  O
  O63      1.0000 0.57751  0.52981  0.86017  Biso   1.000  O
  O64      1.0000 0.36751  0.42084  0.86534  Biso   1.000  O
  O65      1.0000 0.51999  0.41381  0.77401  Biso   1.000  O
  O66      1.0000 0.35430  0.45941  0.77819  Biso   1.000  O
  O67      1.0000 0.60180  0.92206  0.69134  Biso   1.000  O
  O68      1.0000 0.46760  0.92144  0.74936  Biso   1.000  O
  O69      1.0000 0.63773  0.00634  0.72540  Biso   1.000  O
  O70      1.0000 0.44317  0.02248  0.71778  Biso   1.000  O
  O71      1.0000 0.40778  0.08502  0.65262  Biso   1.000  O
  O72      1.0000 0.39986  0.05216  0.59632  Biso   1.000  O
  O73      1.0000 0.76776  0.05855  0.59353  Biso   1.000  O
  O74      1.0000 0.65339  0.01307  0.61815  Biso   1.000  O
  O75      1.0000 0.08623  0.92880  0.71114  Biso   1.000  O
  O76      1.0000 0.01992  0.89998  0.66078  Biso   1.000  O
  O77      1.0000 0.80845  0.95240  0.66130  Biso   1.000  O
  O78      1.0000 0.90898  0.99809  0.72635  Biso   1.000  O
  O79      1.0000 0.61145  0.08791  0.68459  Biso   1.000  O
  O80      1.0000 0.82066  0.08973  0.72055  Biso   1.000  O
  O81      1.0000 0.91149  0.08828  0.65674  Biso   1.000  O
  O82      1.0000 0.98764  0.00353  0.63059  Biso   1.000  O
  O83      1.0000 0.18227  0.98479  0.63667  Biso   1.000  O
  O84      1.0000 0.27389  0.96638  0.72104  Biso   1.000  O
  O85      1.0000 0.46749  0.97019  0.63983  Biso   1.000  O
  O86      1.0000 0.15369  0.07916  0.63466  Biso   1.000  O
  O87      1.0000 0.20781  0.08619  0.72599  Biso   1.000  O
  O88      1.0000 0.09190  0.04059  0.72181  Biso   1.000  O
  O89      1.0000 0.70686  0.69134  0.57794  Biso   1.000  O
  O90      1.0000 0.78304  0.74936  0.57856  Biso   1.000  O
  O91      1.0000 0.63687  0.72540  0.49366  Biso   1.000  O
  O92      1.0000 0.83905  0.71778  0.47752  Biso   1.000  O
  O93      1.0000 0.93960  0.65262  0.41498  Biso   1.000  O
  O94      1.0000 0.00382  0.59632  0.44784  Biso   1.000  O
  O95      1.0000 0.63871  0.59353  0.44145  Biso   1.000  O
  O96      1.0000 0.72846  0.61815  0.48693  Biso   1.000  O
  O97      1.0000 0.20263  0.71114  0.57120  Biso   1.000  O
  O98      1.0000 0.31930  0.66078  0.60002  Biso   1.000  O
  O99      1.0000 0.53025  0.66130  0.54760  Biso   1.000  O
  O100     1.0000 0.36467  0.72635  0.50191  Biso   1.000  O
  O101     1.0000 0.70396  0.68459  0.41209  Biso   1.000  O
  O102     1.0000 0.45879  0.72055  0.41027  Biso   1.000  O
  O103     1.0000 0.43177  0.65674  0.41172  Biso   1.000  O
  O104     1.0000 0.38177  0.63059  0.49647  Biso   1.000  O
  O105     1.0000 0.18106  0.63667  0.51521  Biso   1.000  O
  O106     1.0000 0.00507  0.72104  0.53362  Biso   1.000  O
  O107     1.0000 0.89268  0.63983  0.52981  Biso   1.000  O
  O108     1.0000 0.21165  0.63466  0.42084  Biso   1.000  O
  O109     1.0000 0.06620  0.72599  0.41381  Biso   1.000  O
  O110     1.0000 0.18629  0.72181  0.45941  Biso   1.000  O
  O111     1.0000 0.47614  0.80866  0.92206  Biso   1.000  O
  O112     1.0000 0.61096  0.75064  0.92144  Biso   1.000  O
  O113     1.0000 0.35593  0.77460  0.00634  Biso   1.000  O
  O114     1.0000 0.53435  0.78222  0.02248  Biso   1.000  O
  O115     1.0000 0.50720  0.84738  0.08502  Biso   1.000  O
  O116     1.0000 0.54798  0.90368  0.05216  Biso   1.000  O
  O117     1.0000 0.17369  0.90647  0.05855  Biso   1.000  O
  O118     1.0000 0.33354  0.88185  0.01307  Biso   1.000  O
  O119     1.0000 0.98497  0.78886  0.92880  Biso   1.000  O
  O120     1.0000 0.08010  0.83922  0.89998  Biso   1.000  O
  O121     1.0000 0.23915  0.83870  0.95240  Biso   1.000  O
  O122     1.0000 0.09293  0.77365  0.99809  Biso   1.000  O
  O123     1.0000 0.30064  0.81541  0.08791  Biso   1.000  O
  O124     1.0000 0.08961  0.77945  0.08973  Biso   1.000  O
  O125     1.0000 0.00023  0.84326  0.08828  Biso   1.000  O
  O126     1.0000 0.00883  0.86941  0.00353  Biso   1.000  O
  O127     1.0000 0.83294  0.86333  0.98479  Biso   1.000  O
  O128     1.0000 0.75973  0.77896  0.96638  Biso   1.000  O
  O129     1.0000 0.56232  0.86017  0.97019  Biso   1.000  O
  O130     1.0000 0.76715  0.86534  0.07916  Biso   1.000  O
  O131     1.0000 0.70600  0.77401  0.08619  Biso   1.000  O
  O132     1.0000 0.86751  0.77819  0.04059  Biso   1.000  O
  O133     1.0000 0.28480  0.42206  0.19134  Biso   1.000  O
  O134     1.0000 0.36160  0.42144  0.24936  Biso   1.000  O
  O135     1.0000 0.13053  0.50634  0.22540  Biso   1.000  O
  O136     1.0000 0.31657  0.52248  0.21778  Biso   1.000  O
  O137     1.0000 0.35458  0.58502  0.15262  Biso   1.000  O
  O138     1.0000 0.45166  0.55216  0.09632  Biso   1.000  O
  O139     1.0000 0.08016  0.55855  0.09353  Biso   1.000  O
  O140     1.0000 0.21539  0.51307  0.11815  Biso   1.000  O
  O141     1.0000 0.77383  0.42880  0.21114  Biso   1.000  O
  O142     1.0000 0.91932  0.39998  0.16078  Biso   1.000  O
  O143     1.0000 0.07785  0.45240  0.16130  Biso   1.000  O
  O144     1.0000 0.86658  0.49809  0.22635  Biso   1.000  O
  O145     1.0000 0.11605  0.58791  0.18459  Biso   1.000  O
  O146     1.0000 0.86906  0.58973  0.22055  Biso   1.000  O
  O147     1.0000 0.84349  0.58828  0.15674  Biso   1.000  O
  O148     1.0000 0.87824  0.50353  0.13059  Biso   1.000  O
  O149     1.0000 0.69627  0.48479  0.13667  Biso   1.000  O
  O150     1.0000 0.53869  0.46638  0.22104  Biso   1.000  O
  O151     1.0000 0.42249  0.47019  0.13983  Biso   1.000  O
  O152     1.0000 0.63249  0.57916  0.13466  Biso   1.000  O
  O153     1.0000 0.48001  0.58619  0.22599  Biso   1.000  O
  O154     1.0000 0.64570  0.54059  0.22181  Biso   1.000  O
  O155     1.0000 0.39820  0.07794  0.30866  Biso   1.000  O
  O156     1.0000 0.53240  0.07856  0.25064  Biso   1.000  O
  O157     1.0000 0.36227  0.99366  0.27460  Biso   1.000  O
  O158     1.0000 0.55683  0.97752  0.28222  Biso   1.000  O
  O159     1.0000 0.59222  0.91498  0.34738  Biso   1.000  O
  O160     1.0000 0.60014  0.94784  0.40368  Biso   1.000  O
  O161     1.0000 0.23224  0.94145  0.40647  Biso   1.000  O
  O162     1.0000 0.34661  0.98693  0.38185  Biso   1.000  O
  O163     1.0000 0.91377  0.07120  0.28886  Biso   1.000  O
  O164     1.0000 0.98008  0.10002  0.33922  Biso   1.000  O
  O165     1.0000 0.19155  0.04760  0.33870  Biso   1.000  O
  O166     1.0000 0.09102  0.00191  0.27365  Biso   1.000  O
  O167     1.0000 0.38855  0.91209  0.31541  Biso   1.000  O
  O168     1.0000 0.17934  0.91027  0.27945  Biso   1.000  O
  O169     1.0000 0.08851  0.91172  0.34326  Biso   1.000  O
  O170     1.0000 0.01236  0.99647  0.36941  Biso   1.000  O
  O171     1.0000 0.81773  0.01521  0.36333  Biso   1.000  O
  O172     1.0000 0.72611  0.03362  0.27896  Biso   1.000  O
  O173     1.0000 0.53251  0.02981  0.36017  Biso   1.000  O
  O174     1.0000 0.84631  0.92084  0.36534  Biso   1.000  O
  O175     1.0000 0.79219  0.91381  0.27401  Biso   1.000  O
  O176     1.0000 0.90810  0.95941  0.27819  Biso   1.000  O
