data_image0
_cell_length_a       11.2367
_cell_length_b       32.9682
_cell_length_c       32.9682
_cell_angle_alpha    88.3357
_cell_angle_beta     80.1879
_cell_angle_gamma    80.1877

_symmetry_space_group_name_H-M    P 1
_symmetry_int_tables_number       1

loop_
  _symmetry_equiv_pos_as_xyz
  'x, y, z'

loop_
  _atom_site_label
  _atom_site_occupancy
  _atom_site_fract_x
  _atom_site_fract_y
  _atom_site_fract_z
  _atom_site_thermal_displace_type
  _atom_site_B_iso_or_equiv
  _atom_site_type_symbol
  Pr1      1.0000 0.81646  0.97138  0.17134  Biso   1.000  Pr
  Pr2      1.0000 0.31687  0.97408  0.17314  Biso   1.000  Pr
  Pr3      1.0000 0.45918  0.52862  0.32866  Biso   1.000  Pr
  Pr4      1.0000 0.96409  0.52592  0.32686  Biso   1.000  Pr
  Pr5      1.0000 0.98780  0.82866  0.47138  Biso   1.000  Pr
  Pr6      1.0000 0.49002  0.82685  0.47408  Biso   1.000  Pr
  Pr7      1.0000 0.78784  0.67134  0.02862  Biso   1.000  Pr
  Pr8      1.0000 0.29094  0.67315  0.02592  Biso   1.000  Pr
  Pr9      1.0000 0.18354  0.02862  0.82866  Biso   1.000  Pr
  Pr10     1.0000 0.68313  0.02592  0.82686  Biso   1.000  Pr
  Pr11     1.0000 0.54082  0.47138  0.67134  Biso   1.000  Pr
  Pr12     1.0000 0.03591  0.47408  0.67314  Biso   1.000  Pr
  Pr13     1.0000 0.01220  0.17134  0.52862  Biso   1.000  Pr
  Pr14     1.0000 0.50998  0.17315  0.52592  Biso   1.000  Pr
  Pr15     1.0000 0.21216  0.32866  0.97138  Biso   1.000  Pr
  Pr16     1.0000 0.70906  0.32685  0.97408  Biso   1.000  Pr
  Co1      1.0000 0.71127  0.87107  0.96359  Biso   1.000  Co
  Co2      1.0000 0.04593  0.62893  0.53641  Biso   1.000  Co
  Co3      1.0000 0.67486  0.03641  0.37107  Biso   1.000  Co
  Co4      1.0000 0.58234  0.46359  0.12893  Biso   1.000  Co
  Co5      1.0000 0.28873  0.12893  0.03641  Biso   1.000  Co
  Co6      1.0000 0.95407  0.37107  0.46359  Biso   1.000  Co
  Co7      1.0000 0.32514  0.96359  0.62893  Biso   1.000  Co
  Co8      1.0000 0.41766  0.53641  0.87107  Biso   1.000  Co
  H1       1.0000 0.70200  0.89220  0.19780  Biso   1.000  H
  H2       1.0000 0.63800  0.91800  0.17200  Biso   1.000  H
  H3       1.0000 0.95980  0.01650  0.05930  Biso   1.000  H
  H4       1.0000 0.93570  0.06390  0.00610  Biso   1.000  H
  H5       1.0000 0.06610  0.11370  0.99670  Biso   1.000  H
  H6       1.0000 0.41440  0.13890  0.11170  Biso   1.000  H
  H7       1.0000 0.34710  0.14820  0.18000  Biso   1.000  H
  H8       1.0000 0.16510  0.12670  0.20970  Biso   1.000  H
  H9       1.0000 0.55540  0.84230  0.13270  Biso   1.000  H
  H10      1.0000 0.66350  0.78740  0.09360  Biso   1.000  H
  H11      1.0000 0.75920  0.79890  0.02670  Biso   1.000  H
  H12      1.0000 0.63590  0.96680  0.94180  Biso   1.000  H
  H13      1.0000 0.65270  0.02830  0.97230  Biso   1.000  H
  H14      1.0000 0.69730  0.02600  0.03800  Biso   1.000  H
  H15      1.0000 0.66700  0.12360  0.21980  Biso   1.000  H
  H16      1.0000 0.82460  0.12810  0.25570  Biso   1.000  H
  H17      1.0000 0.84250  0.08660  0.31300  Biso   1.000  H
  H18      1.0000 0.42380  0.99950  0.39610  Biso   1.000  H
  H19      1.0000 0.31880  0.96260  0.36100  Biso   1.000  H
  H20      1.0000 0.37520  0.95550  0.29030  Biso   1.000  H
  H21      1.0000 0.10210  0.95650  0.31350  Biso   1.000  H
  H22      1.0000 0.01560  0.92540  0.37180  Biso   1.000  H
  H23      1.0000 0.95770  0.86550  0.36330  Biso   1.000  H
  H24      1.0000 0.26820  0.75970  0.20590  Biso   1.000  H
  H25      1.0000 0.26730  0.78550  0.13950  Biso   1.000  H
  H26      1.0000 0.12700  0.84520  0.13400  Biso   1.000  H
  H27      1.0000 0.16510  0.04680  0.21600  Biso   1.000  H
  H28      1.0000 0.28970  0.05190  0.21750  Biso   1.000  H
  H29      1.0000 0.51000  0.01770  0.12730  Biso   1.000  H
  H30      1.0000 0.44360  0.04730  0.15890  Biso   1.000  H
  H31      1.0000 0.25140  0.89610  0.14370  Biso   1.000  H
  H32      1.0000 0.23600  0.92620  0.10940  Biso   1.000  H
  H33      1.0000 0.79060  0.06150  0.17810  Biso   1.000  H
  H34      1.0000 0.67840  0.05530  0.16550  Biso   1.000  H
  H35      1.0000 0.91950  0.02750  0.21950  Biso   1.000  H
  H36      1.0000 0.97690  0.98640  0.23020  Biso   1.000  H
  H37      1.0000 0.29200  0.60780  0.30220  Biso   1.000  H
  H38      1.0000 0.22800  0.58200  0.32800  Biso   1.000  H
  H39      1.0000 0.53560  0.48350  0.44070  Biso   1.000  H
  H40      1.0000 0.50570  0.43610  0.49390  Biso   1.000  H
  H41      1.0000 0.67650  0.38630  0.50330  Biso   1.000  H
  H42      1.0000 0.16500  0.36110  0.38830  Biso   1.000  H
  H43      1.0000 0.17530  0.35180  0.32000  Biso   1.000  H
  H44      1.0000 0.00150  0.37330  0.29030  Biso   1.000  H
  H45      1.0000 0.03040  0.65770  0.36730  Biso   1.000  H
  H46      1.0000 0.04450  0.71260  0.40640  Biso   1.000  H
  H47      1.0000 0.08480  0.70110  0.47330  Biso   1.000  H
  H48      1.0000 0.04450  0.53320  0.55820  Biso   1.000  H
  H49      1.0000 0.15330  0.47170  0.52770  Biso   1.000  H
  H50      1.0000 0.26130  0.47400  0.46200  Biso   1.000  H
  H51      1.0000 0.51040  0.37640  0.28020  Biso   1.000  H
  H52      1.0000 0.70840  0.37190  0.24430  Biso   1.000  H
  H53      1.0000 0.74210  0.41340  0.18700  Biso   1.000  H
  H54      1.0000 0.31940  0.50050  0.10390  Biso   1.000  H
  H55      1.0000 0.14240  0.53740  0.13900  Biso   1.000  H
  H56      1.0000 0.12100  0.54450  0.20970  Biso   1.000  H
  H57      1.0000 0.87210  0.54350  0.18650  Biso   1.000  H
  H58      1.0000 0.81280  0.57460  0.12820  Biso   1.000  H
  H59      1.0000 0.68650  0.63450  0.13670  Biso   1.000  H
  H60      1.0000 0.73380  0.74030  0.29410  Biso   1.000  H
  H61      1.0000 0.69230  0.71450  0.36050  Biso   1.000  H
  H62      1.0000 0.60620  0.65480  0.36600  Biso   1.000  H
  H63      1.0000 0.92790  0.45320  0.28400  Biso   1.000  H
  H64      1.0000 0.05910  0.44810  0.28250  Biso   1.000  H
  H65      1.0000 0.15500  0.48230  0.37270  Biso   1.000  H
  H66      1.0000 0.14980  0.45270  0.34110  Biso   1.000  H
  H67      1.0000 0.79120  0.60390  0.35630  Biso   1.000  H
  H68      1.0000 0.77160  0.57380  0.39060  Biso   1.000  H
  H69      1.0000 0.53020  0.43850  0.32190  Biso   1.000  H
  H70      1.0000 0.39920  0.44470  0.33450  Biso   1.000  H
  H71      1.0000 0.66650  0.47250  0.28050  Biso   1.000  H
  H72      1.0000 0.69350  0.51360  0.26980  Biso   1.000  H
  H73      1.0000 0.89980  0.80220  0.39220  Biso   1.000  H
  H74      1.0000 0.81000  0.82800  0.41800  Biso   1.000  H
  H75      1.0000 0.01910  0.94070  0.51650  Biso   1.000  H
  H76      1.0000 0.94180  0.99390  0.56390  Biso   1.000  H
  H77      1.0000 0.06280  0.00330  0.61370  Biso   1.000  H
  H78      1.0000 0.52610  0.88830  0.63890  Biso   1.000  H
  H79      1.0000 0.52710  0.82000  0.64820  Biso   1.000  H
  H80      1.0000 0.37480  0.79030  0.62670  Biso   1.000  H
  H81      1.0000 0.68810  0.86730  0.34230  Biso   1.000  H
  H82      1.0000 0.75710  0.90640  0.28740  Biso   1.000  H
  H83      1.0000 0.78590  0.97330  0.29890  Biso   1.000  H
  H84      1.0000 0.57770  0.05820  0.46680  Biso   1.000  H
  H85      1.0000 0.62500  0.02770  0.52830  Biso   1.000  H
  H86      1.0000 0.73530  0.96200  0.52600  Biso   1.000  H
  H87      1.0000 0.88680  0.78020  0.62360  Biso   1.000  H
  H88      1.0000 0.08030  0.74430  0.62810  Biso   1.000  H
  H89      1.0000 0.15550  0.68700  0.58660  Biso   1.000  H
  H90      1.0000 0.81990  0.60390  0.49950  Biso   1.000  H
  H91      1.0000 0.67980  0.63900  0.46260  Biso   1.000  H
  H92      1.0000 0.66550  0.70970  0.45550  Biso   1.000  H
  H93      1.0000 0.41560  0.68650  0.45650  Biso   1.000  H
  H94      1.0000 0.38740  0.62820  0.42540  Biso   1.000  H
  H95      1.0000 0.32100  0.63670  0.36550  Biso   1.000  H
  H96      1.0000 0.47410  0.79410  0.25970  Biso   1.000  H
  H97      1.0000 0.40680  0.86050  0.28550  Biso   1.000  H
  H98      1.0000 0.26100  0.86600  0.34520  Biso   1.000  H
  H99      1.0000 0.38110  0.78400  0.54680  Biso   1.000  H
  H100     1.0000 0.50720  0.78250  0.55190  Biso   1.000  H
  H101     1.0000 0.63730  0.87270  0.51770  Biso   1.000  H
  H102     1.0000 0.60250  0.84110  0.54730  Biso   1.000  H
  H103     1.0000 0.39510  0.85630  0.39610  Biso   1.000  H
  H104     1.0000 0.34540  0.89060  0.42620  Biso   1.000  H
  H105     1.0000 0.96870  0.82190  0.56150  Biso   1.000  H
  H106     1.0000 0.84390  0.83450  0.55530  Biso   1.000  H
  H107     1.0000 0.13900  0.78050  0.52750  Biso   1.000  H
  H108     1.0000 0.20710  0.76980  0.48640  Biso   1.000  H
  H109     1.0000 0.59420  0.69780  0.10780  Biso   1.000  H
  H110     1.0000 0.55600  0.67200  0.08200  Biso   1.000  H
  H111     1.0000 0.97630  0.55930  0.98350  Biso   1.000  H
  H112     1.0000 0.99960  0.50610  0.93610  Biso   1.000  H
  H113     1.0000 0.17980  0.49670  0.88630  Biso   1.000  H
  H114     1.0000 0.55330  0.61170  0.86110  Biso   1.000  H
  H115     1.0000 0.49530  0.68000  0.85180  Biso   1.000  H
  H116     1.0000 0.29180  0.70970  0.87330  Biso   1.000  H
  H117     1.0000 0.39770  0.63270  0.15770  Biso   1.000  H
  H118     1.0000 0.45090  0.59360  0.21260  Biso   1.000  H
  H119     1.0000 0.55810  0.52670  0.20110  Biso   1.000  H
  H120     1.0000 0.60270  0.44180  0.03320  Biso   1.000  H
  H121     1.0000 0.68100  0.47230  0.97170  Biso   1.000  H
  H122     1.0000 0.72330  0.53800  0.97400  Biso   1.000  H
  H123     1.0000 0.79060  0.71980  0.87640  Biso   1.000  H
  H124     1.0000 0.95270  0.75570  0.87190  Biso   1.000  H
  H125     1.0000 0.92910  0.81300  0.91340  Biso   1.000  H
  H126     1.0000 0.42330  0.89610  0.00050  Biso   1.000  H
  H127     1.0000 0.28140  0.86100  0.03740  Biso   1.000  H
  H128     1.0000 0.33070  0.79030  0.04450  Biso   1.000  H
  H129     1.0000 0.05860  0.81350  0.04350  Biso   1.000  H
  H130     1.0000 0.94100  0.87180  0.07460  Biso   1.000  H
  H131     1.0000 0.82320  0.86330  0.13450  Biso   1.000  H
  H132     1.0000 0.02790  0.70590  0.24030  Biso   1.000  H
  H133     1.0000 0.05280  0.63950  0.21450  Biso   1.000  H
  H134     1.0000 0.97220  0.63400  0.15480  Biso   1.000  H
  H135     1.0000 0.21190  0.71600  0.95320  Biso   1.000  H
  H136     1.0000 0.34160  0.71750  0.94810  Biso   1.000  H
  H137     1.0000 0.52770  0.62730  0.98230  Biso   1.000  H
  H138     1.0000 0.49090  0.65890  0.95270  Biso   1.000  H
  H139     1.0000 0.14750  0.64370  0.10390  Biso   1.000  H
  H140     1.0000 0.16220  0.60940  0.07380  Biso   1.000  H
  H141     1.0000 0.85210  0.67810  0.93850  Biso   1.000  H
  H142     1.0000 0.73370  0.66550  0.94470  Biso   1.000  H
  H143     1.0000 0.94700  0.71950  0.97250  Biso   1.000  H
  H144     1.0000 0.96330  0.73020  0.01360  Biso   1.000  H
  H145     1.0000 0.29800  0.10780  0.80220  Biso   1.000  H
  H146     1.0000 0.36200  0.08200  0.82800  Biso   1.000  H
  H147     1.0000 0.04020  0.98350  0.94070  Biso   1.000  H
  H148     1.0000 0.06430  0.93610  0.99390  Biso   1.000  H
  H149     1.0000 0.93390  0.88630  0.00330  Biso   1.000  H
  H150     1.0000 0.58560  0.86110  0.88830  Biso   1.000  H
  H151     1.0000 0.65290  0.85180  0.82000  Biso   1.000  H
  H152     1.0000 0.83490  0.87330  0.79030  Biso   1.000  H
  H153     1.0000 0.44460  0.15770  0.86730  Biso   1.000  H
  H154     1.0000 0.33650  0.21260  0.90640  Biso   1.000  H
  H155     1.0000 0.24080  0.20110  0.97330  Biso   1.000  H
  H156     1.0000 0.36410  0.03320  0.05820  Biso   1.000  H
  H157     1.0000 0.34730  0.97170  0.02770  Biso   1.000  H
  H158     1.0000 0.30270  0.97400  0.96200  Biso   1.000  H
  H159     1.0000 0.33300  0.87640  0.78020  Biso   1.000  H
  H160     1.0000 0.17540  0.87190  0.74430  Biso   1.000  H
  H161     1.0000 0.15750  0.91340  0.68700  Biso   1.000  H
  H162     1.0000 0.57620  0.00050  0.60390  Biso   1.000  H
  H163     1.0000 0.68120  0.03740  0.63900  Biso   1.000  H
  H164     1.0000 0.62480  0.04450  0.70970  Biso   1.000  H
  H165     1.0000 0.89790  0.04350  0.68650  Biso   1.000  H
  H166     1.0000 0.98440  0.07460  0.62820  Biso   1.000  H
  H167     1.0000 0.04230  0.13450  0.63670  Biso   1.000  H
  H168     1.0000 0.73180  0.24030  0.79410  Biso   1.000  H
  H169     1.0000 0.73270  0.21450  0.86050  Biso   1.000  H
  H170     1.0000 0.87300  0.15480  0.86600  Biso   1.000  H
  H171     1.0000 0.83490  0.95320  0.78400  Biso   1.000  H
  H172     1.0000 0.71030  0.94810  0.78250  Biso   1.000  H
  H173     1.0000 0.49000  0.98230  0.87270  Biso   1.000  H
  H174     1.0000 0.55640  0.95270  0.84110  Biso   1.000  H
  H175     1.0000 0.74860  0.10390  0.85630  Biso   1.000  H
  H176     1.0000 0.76400  0.07380  0.89060  Biso   1.000  H
  H177     1.0000 0.20940  0.93850  0.82190  Biso   1.000  H
  H178     1.0000 0.32160  0.94470  0.83450  Biso   1.000  H
  H179     1.0000 0.08050  0.97250  0.78050  Biso   1.000  H
  H180     1.0000 0.02310  0.01360  0.76980  Biso   1.000  H
  H181     1.0000 0.70800  0.39220  0.69780  Biso   1.000  H
  H182     1.0000 0.77200  0.41800  0.67200  Biso   1.000  H
  H183     1.0000 0.46440  0.51650  0.55930  Biso   1.000  H
  H184     1.0000 0.49430  0.56390  0.50610  Biso   1.000  H
  H185     1.0000 0.32350  0.61370  0.49670  Biso   1.000  H
  H186     1.0000 0.83500  0.63890  0.61170  Biso   1.000  H
  H187     1.0000 0.82470  0.64820  0.68000  Biso   1.000  H
  H188     1.0000 0.99850  0.62670  0.70970  Biso   1.000  H
  H189     1.0000 0.96960  0.34230  0.63270  Biso   1.000  H
  H190     1.0000 0.95550  0.28740  0.59360  Biso   1.000  H
  H191     1.0000 0.91520  0.29890  0.52670  Biso   1.000  H
  H192     1.0000 0.95550  0.46680  0.44180  Biso   1.000  H
  H193     1.0000 0.84670  0.52830  0.47230  Biso   1.000  H
  H194     1.0000 0.73870  0.52600  0.53800  Biso   1.000  H
  H195     1.0000 0.48960  0.62360  0.71980  Biso   1.000  H
  H196     1.0000 0.29160  0.62810  0.75570  Biso   1.000  H
  H197     1.0000 0.25790  0.58660  0.81300  Biso   1.000  H
  H198     1.0000 0.68060  0.49950  0.89610  Biso   1.000  H
  H199     1.0000 0.85760  0.46260  0.86100  Biso   1.000  H
  H200     1.0000 0.87900  0.45550  0.79030  Biso   1.000  H
  H201     1.0000 0.12790  0.45650  0.81350  Biso   1.000  H
  H202     1.0000 0.18720  0.42540  0.87180  Biso   1.000  H
  H203     1.0000 0.31350  0.36550  0.86330  Biso   1.000  H
  H204     1.0000 0.26620  0.25970  0.70590  Biso   1.000  H
  H205     1.0000 0.30770  0.28550  0.63950  Biso   1.000  H
  H206     1.0000 0.39380  0.34520  0.63400  Biso   1.000  H
  H207     1.0000 0.07210  0.54680  0.71600  Biso   1.000  H
  H208     1.0000 0.94090  0.55190  0.71750  Biso   1.000  H
  H209     1.0000 0.84500  0.51770  0.62730  Biso   1.000  H
  H210     1.0000 0.85020  0.54730  0.65890  Biso   1.000  H
  H211     1.0000 0.20880  0.39610  0.64370  Biso   1.000  H
  H212     1.0000 0.22840  0.42620  0.60940  Biso   1.000  H
  H213     1.0000 0.46980  0.56150  0.67810  Biso   1.000  H
  H214     1.0000 0.60080  0.55530  0.66550  Biso   1.000  H
  H215     1.0000 0.33350  0.52750  0.71950  Biso   1.000  H
  H216     1.0000 0.30650  0.48640  0.73020  Biso   1.000  H
  H217     1.0000 0.10020  0.19780  0.60780  Biso   1.000  H
  H218     1.0000 0.19000  0.17200  0.58200  Biso   1.000  H
  H219     1.0000 0.98090  0.05930  0.48350  Biso   1.000  H
  H220     1.0000 0.05820  0.00610  0.43610  Biso   1.000  H
  H221     1.0000 0.93720  0.99670  0.38630  Biso   1.000  H
  H222     1.0000 0.47390  0.11170  0.36110  Biso   1.000  H
  H223     1.0000 0.47290  0.18000  0.35180  Biso   1.000  H
  H224     1.0000 0.62520  0.20970  0.37330  Biso   1.000  H
  H225     1.0000 0.31190  0.13270  0.65770  Biso   1.000  H
  H226     1.0000 0.24290  0.09360  0.71260  Biso   1.000  H
  H227     1.0000 0.21410  0.02670  0.70110  Biso   1.000  H
  H228     1.0000 0.42230  0.94180  0.53320  Biso   1.000  H
  H229     1.0000 0.37500  0.97230  0.47170  Biso   1.000  H
  H230     1.0000 0.26470  0.03800  0.47400  Biso   1.000  H
  H231     1.0000 0.11320  0.21980  0.37640  Biso   1.000  H
  H232     1.0000 0.91970  0.25570  0.37190  Biso   1.000  H
  H233     1.0000 0.84450  0.31300  0.41340  Biso   1.000  H
  H234     1.0000 0.18010  0.39610  0.50050  Biso   1.000  H
  H235     1.0000 0.32020  0.36100  0.53740  Biso   1.000  H
  H236     1.0000 0.33450  0.29030  0.54450  Biso   1.000  H
  H237     1.0000 0.58440  0.31350  0.54350  Biso   1.000  H
  H238     1.0000 0.61260  0.37180  0.57460  Biso   1.000  H
  H239     1.0000 0.67900  0.36330  0.63450  Biso   1.000  H
  H240     1.0000 0.52590  0.20590  0.74030  Biso   1.000  H
  H241     1.0000 0.59320  0.13950  0.71450  Biso   1.000  H
  H242     1.0000 0.73900  0.13400  0.65480  Biso   1.000  H
  H243     1.0000 0.61890  0.21600  0.45320  Biso   1.000  H
  H244     1.0000 0.49280  0.21750  0.44810  Biso   1.000  H
  H245     1.0000 0.36270  0.12730  0.48230  Biso   1.000  H
  H246     1.0000 0.39750  0.15890  0.45270  Biso   1.000  H
  H247     1.0000 0.60490  0.14370  0.60390  Biso   1.000  H
  H248     1.0000 0.65460  0.10940  0.57380  Biso   1.000  H
  H249     1.0000 0.03130  0.17810  0.43850  Biso   1.000  H
  H250     1.0000 0.15610  0.16550  0.44470  Biso   1.000  H
  H251     1.0000 0.86100  0.21950  0.47250  Biso   1.000  H
  H252     1.0000 0.79290  0.23020  0.51360  Biso   1.000  H
  H253     1.0000 0.40580  0.30220  0.89220  Biso   1.000  H
  H254     1.0000 0.44400  0.32800  0.91800  Biso   1.000  H
  H255     1.0000 0.02370  0.44070  0.01650  Biso   1.000  H
  H256     1.0000 0.00040  0.49390  0.06390  Biso   1.000  H
  H257     1.0000 0.82020  0.50330  0.11370  Biso   1.000  H
  H258     1.0000 0.44670  0.38830  0.13890  Biso   1.000  H
  H259     1.0000 0.50470  0.32000  0.14820  Biso   1.000  H
  H260     1.0000 0.70820  0.29030  0.12670  Biso   1.000  H
  H261     1.0000 0.60230  0.36730  0.84230  Biso   1.000  H
  H262     1.0000 0.54910  0.40640  0.78740  Biso   1.000  H
  H263     1.0000 0.44190  0.47330  0.79890  Biso   1.000  H
  H264     1.0000 0.39730  0.55820  0.96680  Biso   1.000  H
  H265     1.0000 0.31900  0.52770  0.02830  Biso   1.000  H
  H266     1.0000 0.27670  0.46200  0.02600  Biso   1.000  H
  H267     1.0000 0.20940  0.28020  0.12360  Biso   1.000  H
  H268     1.0000 0.04730  0.24430  0.12810  Biso   1.000  H
  H269     1.0000 0.07090  0.18700  0.08660  Biso   1.000  H
  H270     1.0000 0.57670  0.10390  0.99950  Biso   1.000  H
  H271     1.0000 0.71860  0.13900  0.96260  Biso   1.000  H
  H272     1.0000 0.66930  0.20970  0.95550  Biso   1.000  H
  H273     1.0000 0.94140  0.18650  0.95650  Biso   1.000  H
  H274     1.0000 0.05900  0.12820  0.92540  Biso   1.000  H
  H275     1.0000 0.17680  0.13670  0.86550  Biso   1.000  H
  H276     1.0000 0.97210  0.29410  0.75970  Biso   1.000  H
  H277     1.0000 0.94720  0.36050  0.78550  Biso   1.000  H
  H278     1.0000 0.02780  0.36600  0.84520  Biso   1.000  H
  H279     1.0000 0.78810  0.28400  0.04680  Biso   1.000  H
  H280     1.0000 0.65840  0.28250  0.05190  Biso   1.000  H
  H281     1.0000 0.47230  0.37270  0.01770  Biso   1.000  H
  H282     1.0000 0.50910  0.34110  0.04730  Biso   1.000  H
  H283     1.0000 0.85250  0.35630  0.89610  Biso   1.000  H
  H284     1.0000 0.83780  0.39060  0.92620  Biso   1.000  H
  H285     1.0000 0.14790  0.32190  0.06150  Biso   1.000  H
  H286     1.0000 0.26630  0.33450  0.05530  Biso   1.000  H
  H287     1.0000 0.05300  0.28050  0.02750  Biso   1.000  H
  H288     1.0000 0.03670  0.26980  0.98640  Biso   1.000  H
  C1       1.0000 0.06920  0.01790  0.12310  Biso   1.000  C
  C2       1.0000 0.05450  0.04950  0.08910  Biso   1.000  C
  C3       1.0000 0.99450  0.04030  0.05790  Biso   1.000  C
  C4       1.0000 0.98670  0.06670  0.02490  Biso   1.000  C
  C5       1.0000 0.05930  0.09840  0.02080  Biso   1.000  C
  C6       1.0000 0.11110  0.08340  0.08480  Biso   1.000  C
  C7       1.0000 0.17450  0.10050  0.11630  Biso   1.000  C
  C8       1.0000 0.34140  0.13040  0.12360  Biso   1.000  C
  C9       1.0000 0.30250  0.13590  0.16390  Biso   1.000  C
  C10      1.0000 0.19310  0.12300  0.18160  Biso   1.000  C
  C11      1.0000 0.12640  0.10490  0.15830  Biso   1.000  C
  C12      1.0000 0.01040  0.09110  0.17770  Biso   1.000  C
  C13      1.0000 0.50130  0.92130  0.11350  Biso   1.000  C
  C14      1.0000 0.58820  0.88610  0.08970  Biso   1.000  C
  C15      1.0000 0.59460  0.84650  0.10610  Biso   1.000  C
  C16      1.0000 0.65840  0.81400  0.08320  Biso   1.000  C
  C17      1.0000 0.71730  0.82120  0.04280  Biso   1.000  C
  C18      1.0000 0.65650  0.89160  0.05020  Biso   1.000  C
  C19      1.0000 0.66500  0.93140  0.03000  Biso   1.000  C
  C20      1.0000 0.64560  0.96670  0.96930  Biso   1.000  C
  C21      1.0000 0.65930  0.00380  0.98700  Biso   1.000  C
  C22      1.0000 0.68270  0.00220  0.02640  Biso   1.000  C
  C23      1.0000 0.68510  0.96600  0.05000  Biso   1.000  C
  C24      1.0000 0.72940  0.96350  0.09050  Biso   1.000  C
  C25      1.0000 0.49200  0.07930  0.23070  Biso   1.000  C
  C26      1.0000 0.59480  0.08010  0.25490  Biso   1.000  C
  C27      1.0000 0.67600  0.10700  0.24280  Biso   1.000  C
  C28      1.0000 0.77040  0.10990  0.26390  Biso   1.000  C
  C29      1.0000 0.78090  0.08470  0.29790  Biso   1.000  C
  C30      1.0000 0.61600  0.05550  0.28810  Biso   1.000  C
  C31      1.0000 0.53850  0.02440  0.30580  Biso   1.000  C
  C32      1.0000 0.43840  0.99980  0.36740  Biso   1.000  C
  C33      1.0000 0.37890  0.97640  0.34680  Biso   1.000  C
  C34      1.0000 0.40930  0.97330  0.30450  Biso   1.000  C
  C35      1.0000 0.48990  0.99660  0.28340  Biso   1.000  C
  C36      1.0000 0.53510  0.98890  0.23770  Biso   1.000  C
  C37      1.0000 0.11310  0.90900  0.27380  Biso   1.000  C
  C38      1.0000 0.08370  0.93030  0.31210  Biso   1.000  C
  C39      1.0000 0.03020  0.91300  0.34600  Biso   1.000  C
  C40      1.0000 0.99960  0.87690  0.34010  Biso   1.000  C
  C41      1.0000 0.08170  0.87000  0.27060  Biso   1.000  C
  C42      1.0000 0.11900  0.84600  0.23260  Biso   1.000  C
  C43      1.0000 0.22880  0.78650  0.20270  Biso   1.000  C
  C44      1.0000 0.22190  0.79990  0.16250  Biso   1.000  C
  C45      1.0000 0.14320  0.83580  0.15960  Biso   1.000  C
  C46      1.0000 0.08370  0.85960  0.19660  Biso   1.000  C
  C47      1.0000 0.99080  0.89940  0.19180  Biso   1.000  C
  C48      1.0000 0.18760  0.92900  0.23880  Biso   1.000  C
  C49      1.0000 0.71020  0.48210  0.37690  Biso   1.000  C
  C50      1.0000 0.69310  0.45050  0.41090  Biso   1.000  C
  C51      1.0000 0.59270  0.45970  0.44210  Biso   1.000  C
  C52      1.0000 0.57830  0.43330  0.47510  Biso   1.000  C
  C53      1.0000 0.67850  0.40160  0.47920  Biso   1.000  C
  C54      1.0000 0.77930  0.41660  0.41520  Biso   1.000  C
  C55      1.0000 0.89130  0.39950  0.38370  Biso   1.000  C
  C56      1.0000 0.09540  0.36960  0.37640  Biso   1.000  C
  C57      1.0000 0.10230  0.36410  0.33610  Biso   1.000  C
  C58      1.0000 0.99770  0.37700  0.31840  Biso   1.000  C
  C59      1.0000 0.88960  0.39510  0.34170  Biso   1.000  C
  C60      1.0000 0.77920  0.40890  0.32230  Biso   1.000  C
  C61      1.0000 0.03610  0.57870  0.38650  Biso   1.000  C
  C62      1.0000 0.06400  0.61390  0.41030  Biso   1.000  C
  C63      1.0000 0.04720  0.65350  0.39390  Biso   1.000  C
  C64      1.0000 0.05560  0.68600  0.41680  Biso   1.000  C
  C65      1.0000 0.08130  0.67880  0.45720  Biso   1.000  C
  C66      1.0000 0.09830  0.60840  0.44980  Biso   1.000  C
  C67      1.0000 0.12640  0.56860  0.47000  Biso   1.000  C
  C68      1.0000 0.08160  0.53330  0.53070  Biso   1.000  C
  C69      1.0000 0.15010  0.49620  0.51300  Biso   1.000  C
  C70      1.0000 0.21130  0.49780  0.47360  Biso   1.000  C
  C71      1.0000 0.20110  0.53400  0.45000  Biso   1.000  C
  C72      1.0000 0.28340  0.53650  0.40950  Biso   1.000  C
  C73      1.0000 0.30200  0.42070  0.26930  Biso   1.000  C
  C74      1.0000 0.42980  0.41990  0.24510  Biso   1.000  C
  C75      1.0000 0.52580  0.39300  0.25720  Biso   1.000  C
  C76      1.0000 0.64420  0.39010  0.23610  Biso   1.000  C
  C77      1.0000 0.66350  0.41530  0.20210  Biso   1.000  C
  C78      1.0000 0.45960  0.44450  0.21190  Biso   1.000  C
  C79      1.0000 0.36870  0.47560  0.19420  Biso   1.000  C
  C80      1.0000 0.30560  0.50020  0.13260  Biso   1.000  C
  C81      1.0000 0.20210  0.52360  0.15320  Biso   1.000  C
  C82      1.0000 0.18710  0.52670  0.19550  Biso   1.000  C
  C83      1.0000 0.26990  0.50340  0.21660  Biso   1.000  C
  C84      1.0000 0.26170  0.51110  0.26230  Biso   1.000  C
  C85      1.0000 0.79590  0.59100  0.22620  Biso   1.000  C
  C86      1.0000 0.82610  0.56970  0.18790  Biso   1.000  C
  C87      1.0000 0.78920  0.58700  0.15400  Biso   1.000  C
  C88      1.0000 0.71660  0.62310  0.15990  Biso   1.000  C
  C89      1.0000 0.72230  0.63000  0.22940  Biso   1.000  C
  C90      1.0000 0.69760  0.65400  0.26740  Biso   1.000  C
  C91      1.0000 0.71800  0.71350  0.29730  Biso   1.000  C
  C92      1.0000 0.68430  0.70010  0.33750  Biso   1.000  C
  C93      1.0000 0.63860  0.66420  0.34040  Biso   1.000  C
  C94      1.0000 0.63990  0.64040  0.30340  Biso   1.000  C
  C95      1.0000 0.58200  0.60060  0.30820  Biso   1.000  C
  C96      1.0000 0.85540  0.57100  0.26120  Biso   1.000  C
  C97      1.0000 0.19230  0.87690  0.51790  Biso   1.000  C
  C98      1.0000 0.14360  0.91090  0.54950  Biso   1.000  C
  C99      1.0000 0.05240  0.94210  0.54030  Biso   1.000  C
  C100     1.0000 0.01160  0.97510  0.56670  Biso   1.000  C
  C101     1.0000 0.08010  0.97920  0.59840  Biso   1.000  C
  C102     1.0000 0.19590  0.91520  0.58340  Biso   1.000  C
  C103     1.0000 0.29080  0.88370  0.60050  Biso   1.000  C
  C104     1.0000 0.46500  0.87640  0.63040  Biso   1.000  C
  C105     1.0000 0.46640  0.83610  0.63590  Biso   1.000  C
  C106     1.0000 0.37470  0.81840  0.62300  Biso   1.000  C
  C107     1.0000 0.28470  0.84170  0.60490  Biso   1.000  C
  C108     1.0000 0.18810  0.82230  0.59110  Biso   1.000  C
  C109     1.0000 0.61480  0.88650  0.42130  Biso   1.000  C
  C110     1.0000 0.67790  0.91030  0.38610  Biso   1.000  C
  C111     1.0000 0.70070  0.89390  0.34650  Biso   1.000  C
  C112     1.0000 0.74160  0.91680  0.31400  Biso   1.000  C
  C113     1.0000 0.76010  0.95720  0.32120  Biso   1.000  C
  C114     1.0000 0.70670  0.94980  0.39160  Biso   1.000  C
  C115     1.0000 0.69500  0.97000  0.43140  Biso   1.000  C
  C116     1.0000 0.61490  0.03070  0.46670  Biso   1.000  C
  C117     1.0000 0.64630  0.01300  0.50380  Biso   1.000  C
  C118     1.0000 0.70910  0.97360  0.50220  Biso   1.000  C
  C119     1.0000 0.73510  0.95000  0.46600  Biso   1.000  C
  C120     1.0000 0.81990  0.90950  0.46350  Biso   1.000  C
  C121     1.0000 0.72270  0.76930  0.57930  Biso   1.000  C
  C122     1.0000 0.84970  0.74510  0.58010  Biso   1.000  C
  C123     1.0000 0.91880  0.75720  0.60700  Biso   1.000  C
  C124     1.0000 0.03430  0.73610  0.60990  Biso   1.000  C
  C125     1.0000 0.07880  0.70210  0.58470  Biso   1.000  C
  C126     1.0000 0.90410  0.71190  0.55550  Biso   1.000  C
  C127     1.0000 0.84430  0.69420  0.52440  Biso   1.000  C
  C128     1.0000 0.80580  0.63260  0.49980  Biso   1.000  C
  C129     1.0000 0.72570  0.65320  0.47640  Biso   1.000  C
  C130     1.0000 0.71380  0.69550  0.47330  Biso   1.000  C
  C131     1.0000 0.77330  0.71660  0.49660  Biso   1.000  C
  C132     1.0000 0.77280  0.76230  0.48890  Biso   1.000  C
  C133     1.0000 0.38690  0.72620  0.40900  Biso   1.000  C
  C134     1.0000 0.39580  0.68790  0.43030  Biso   1.000  C
  C135     1.0000 0.37620  0.65400  0.41300  Biso   1.000  C
  C136     1.0000 0.33970  0.65990  0.37690  Biso   1.000  C
  C137     1.0000 0.35230  0.72940  0.37000  Biso   1.000  C
  C138     1.0000 0.35160  0.76740  0.34600  Biso   1.000  C
  C139     1.0000 0.43150  0.79730  0.28650  Biso   1.000  C
  C140     1.0000 0.38440  0.83750  0.29990  Biso   1.000  C
  C141     1.0000 0.30280  0.84040  0.33580  Biso   1.000  C
  C142     1.0000 0.28030  0.80340  0.35960  Biso   1.000  C
  C143     1.0000 0.18260  0.80820  0.39940  Biso   1.000  C
  C144     1.0000 0.42640  0.76120  0.42900  Biso   1.000  C
  C145     1.0000 0.08710  0.62310  0.98210  Biso   1.000  C
  C146     1.0000 0.10400  0.58910  0.95050  Biso   1.000  C
  C147     1.0000 0.03480  0.55790  0.95970  Biso   1.000  C
  C148     1.0000 0.05340  0.52490  0.93330  Biso   1.000  C
  C149     1.0000 0.15770  0.52080  0.90160  Biso   1.000  C
  C150     1.0000 0.19450  0.58480  0.91660  Biso   1.000  C
  C151     1.0000 0.27500  0.61630  0.89950  Biso   1.000  C
  C152     1.0000 0.47180  0.62360  0.86960  Biso   1.000  C
  C153     1.0000 0.43840  0.66390  0.86410  Biso   1.000  C
  C154     1.0000 0.31610  0.68160  0.87700  Biso   1.000  C
  C155     1.0000 0.23130  0.65830  0.89510  Biso   1.000  C
  C156     1.0000 0.10150  0.67770  0.90890  Biso   1.000  C
  C157     1.0000 0.42260  0.61350  0.07870  Biso   1.000  C
  C158     1.0000 0.47430  0.58970  0.11390  Biso   1.000  C
  C159     1.0000 0.44110  0.60610  0.15350  Biso   1.000  C
  C160     1.0000 0.47240  0.58320  0.18600  Biso   1.000  C
  C161     1.0000 0.53850  0.54280  0.17880  Biso   1.000  C
  C162     1.0000 0.54810  0.55020  0.10840  Biso   1.000  C
  C163     1.0000 0.59640  0.53000  0.06860  Biso   1.000  C
  C164     1.0000 0.61230  0.46930  0.03330  Biso   1.000  C
  C165     1.0000 0.66310  0.48700  0.99620  Biso   1.000  C
  C166     1.0000 0.68490  0.52640  0.99780  Biso   1.000  C
  C167     1.0000 0.65110  0.55000  0.03400  Biso   1.000  C
  C168     1.0000 0.69290  0.59050  0.03650  Biso   1.000  C
  C169     1.0000 0.57130  0.73070  0.92070  Biso   1.000  C
  C170     1.0000 0.67490  0.75490  0.91990  Biso   1.000  C
  C171     1.0000 0.78300  0.74280  0.89300  Biso   1.000  C
  C172     1.0000 0.88030  0.76390  0.89010  Biso   1.000  C
  C173     1.0000 0.86560  0.79790  0.91530  Biso   1.000  C
  C174     1.0000 0.67150  0.78810  0.94450  Biso   1.000  C
  C175     1.0000 0.56290  0.80580  0.97560  Biso   1.000  C
  C176     1.0000 0.43820  0.86740  0.00020  Biso   1.000  C
  C177     1.0000 0.35530  0.84680  0.02360  Biso   1.000  C
  C178     1.0000 0.38260  0.80450  0.02670  Biso   1.000  C
  C179     1.0000 0.48650  0.78340  0.00340  Biso   1.000  C
  C180     1.0000 0.52400  0.73770  0.01110  Biso   1.000  C
  C181     1.0000 0.02210  0.77380  0.09100  Biso   1.000  C
  C182     1.0000 0.01400  0.81210  0.06970  Biso   1.000  C
  C183     1.0000 0.94320  0.84600  0.08700  Biso   1.000  C
  C184     1.0000 0.87650  0.84010  0.12310  Biso   1.000  C
  C185     1.0000 0.95170  0.77060  0.13000  Biso   1.000  C
  C186     1.0000 0.96500  0.73260  0.15400  Biso   1.000  C
  C187     1.0000 0.01530  0.70270  0.21350  Biso   1.000  C
  C188     1.0000 0.02180  0.66250  0.20010  Biso   1.000  C
  C189     1.0000 0.97900  0.65960  0.16420  Biso   1.000  C
  C190     1.0000 0.94330  0.69660  0.14040  Biso   1.000  C
  C191     1.0000 0.89020  0.69180  0.10060  Biso   1.000  C
  C192     1.0000 0.11660  0.73880  0.07100  Biso   1.000  C
  C193     1.0000 0.93080  0.98210  0.87690  Biso   1.000  C
  C194     1.0000 0.94550  0.95050  0.91090  Biso   1.000  C
  C195     1.0000 0.00550  0.95970  0.94210  Biso   1.000  C
  C196     1.0000 0.01330  0.93330  0.97510  Biso   1.000  C
  C197     1.0000 0.94070  0.90160  0.97920  Biso   1.000  C
  C198     1.0000 0.88890  0.91660  0.91520  Biso   1.000  C
  C199     1.0000 0.82550  0.89950  0.88370  Biso   1.000  C
  C200     1.0000 0.65860  0.86960  0.87640  Biso   1.000  C
  C201     1.0000 0.69750  0.86410  0.83610  Biso   1.000  C
  C202     1.0000 0.80690  0.87700  0.81840  Biso   1.000  C
  C203     1.0000 0.87360  0.89510  0.84170  Biso   1.000  C
  C204     1.0000 0.98960  0.90890  0.82230  Biso   1.000  C
  C205     1.0000 0.49870  0.07870  0.88650  Biso   1.000  C
  C206     1.0000 0.41180  0.11390  0.91030  Biso   1.000  C
  C207     1.0000 0.40540  0.15350  0.89390  Biso   1.000  C
  C208     1.0000 0.34160  0.18600  0.91680  Biso   1.000  C
  C209     1.0000 0.28270  0.17880  0.95720  Biso   1.000  C
  C210     1.0000 0.34350  0.10840  0.94980  Biso   1.000  C
  C211     1.0000 0.33500  0.06860  0.97000  Biso   1.000  C
  C212     1.0000 0.35440  0.03330  0.03070  Biso   1.000  C
  C213     1.0000 0.34070  0.99620  0.01300  Biso   1.000  C
  C214     1.0000 0.31730  0.99780  0.97360  Biso   1.000  C
  C215     1.0000 0.31490  0.03400  0.95000  Biso   1.000  C
  C216     1.0000 0.27060  0.03650  0.90950  Biso   1.000  C
  C217     1.0000 0.50800  0.92070  0.76930  Biso   1.000  C
  C218     1.0000 0.40520  0.91990  0.74510  Biso   1.000  C
  C219     1.0000 0.32400  0.89300  0.75720  Biso   1.000  C
  C220     1.0000 0.22960  0.89010  0.73610  Biso   1.000  C
  C221     1.0000 0.21910  0.91530  0.70210  Biso   1.000  C
  C222     1.0000 0.38400  0.94450  0.71190  Biso   1.000  C
  C223     1.0000 0.46150  0.97560  0.69420  Biso   1.000  C
  C224     1.0000 0.56160  0.00020  0.63260  Biso   1.000  C
  C225     1.0000 0.62110  0.02360  0.65320  Biso   1.000  C
  C226     1.0000 0.59070  0.02670  0.69550  Biso   1.000  C
  C227     1.0000 0.51010  0.00340  0.71660  Biso   1.000  C
  C228     1.0000 0.46490  0.01110  0.76230  Biso   1.000  C
  C229     1.0000 0.88690  0.09100  0.72620  Biso   1.000  C
  C230     1.0000 0.91630  0.06970  0.68790  Biso   1.000  C
  C231     1.0000 0.96980  0.08700  0.65400  Biso   1.000  C
  C232     1.0000 0.00040  0.12310  0.65990  Biso   1.000  C
  C233     1.0000 0.91830  0.13000  0.72940  Biso   1.000  C
  C234     1.0000 0.88100  0.15400  0.76740  Biso   1.000  C
  C235     1.0000 0.77120  0.21350  0.79730  Biso   1.000  C
  C236     1.0000 0.77810  0.20010  0.83750  Biso   1.000  C
  C237     1.0000 0.85680  0.16420  0.84040  Biso   1.000  C
  C238     1.0000 0.91630  0.14040  0.80340  Biso   1.000  C
  C239     1.0000 0.00920  0.10060  0.80820  Biso   1.000  C
  C240     1.0000 0.81240  0.07100  0.76120  Biso   1.000  C
  C241     1.0000 0.28980  0.51790  0.62310  Biso   1.000  C
  C242     1.0000 0.30690  0.54950  0.58910  Biso   1.000  C
  C243     1.0000 0.40730  0.54030  0.55790  Biso   1.000  C
  C244     1.0000 0.42170  0.56670  0.52490  Biso   1.000  C
  C245     1.0000 0.32150  0.59840  0.52080  Biso   1.000  C
  C246     1.0000 0.22070  0.58340  0.58480  Biso   1.000  C
  C247     1.0000 0.10870  0.60050  0.61630  Biso   1.000  C
  C248     1.0000 0.90460  0.63040  0.62360  Biso   1.000  C
  C249     1.0000 0.89770  0.63590  0.66390  Biso   1.000  C
  C250     1.0000 0.00230  0.62300  0.68160  Biso   1.000  C
  C251     1.0000 0.11040  0.60490  0.65830  Biso   1.000  C
  C252     1.0000 0.22080  0.59110  0.67770  Biso   1.000  C
  C253     1.0000 0.96390  0.42130  0.61350  Biso   1.000  C
  C254     1.0000 0.93600  0.38610  0.58970  Biso   1.000  C
  C255     1.0000 0.95280  0.34650  0.60610  Biso   1.000  C
  C256     1.0000 0.94440  0.31400  0.58320  Biso   1.000  C
  C257     1.0000 0.91870  0.32120  0.54280  Biso   1.000  C
  C258     1.0000 0.90170  0.39160  0.55020  Biso   1.000  C
  C259     1.0000 0.87360  0.43140  0.53000  Biso   1.000  C
  C260     1.0000 0.91840  0.46670  0.46930  Biso   1.000  C
  C261     1.0000 0.84990  0.50380  0.48700  Biso   1.000  C
  C262     1.0000 0.78870  0.50220  0.52640  Biso   1.000  C
  C263     1.0000 0.79890  0.46600  0.55000  Biso   1.000  C
  C264     1.0000 0.71660  0.46350  0.59050  Biso   1.000  C
  C265     1.0000 0.69800  0.57930  0.73070  Biso   1.000  C
  C266     1.0000 0.57020  0.58010  0.75490  Biso   1.000  C
  C267     1.0000 0.47420  0.60700  0.74280  Biso   1.000  C
  C268     1.0000 0.35580  0.60990  0.76390  Biso   1.000  C
  C269     1.0000 0.33650  0.58470  0.79790  Biso   1.000  C
  C270     1.0000 0.54040  0.55550  0.78810  Biso   1.000  C
  C271     1.0000 0.63130  0.52440  0.80580  Biso   1.000  C
  C272     1.0000 0.69440  0.49980  0.86740  Biso   1.000  C
  C273     1.0000 0.79790  0.47640  0.84680  Biso   1.000  C
  C274     1.0000 0.81290  0.47330  0.80450  Biso   1.000  C
  C275     1.0000 0.73010  0.49660  0.78340  Biso   1.000  C
  C276     1.0000 0.73830  0.48890  0.73770  Biso   1.000  C
  C277     1.0000 0.20410  0.40900  0.77380  Biso   1.000  C
  C278     1.0000 0.17390  0.43030  0.81210  Biso   1.000  C
  C279     1.0000 0.21080  0.41300  0.84600  Biso   1.000  C
  C280     1.0000 0.28340  0.37690  0.84010  Biso   1.000  C
  C281     1.0000 0.27770  0.37000  0.77060  Biso   1.000  C
  C282     1.0000 0.30240  0.34600  0.73260  Biso   1.000  C
  C283     1.0000 0.28200  0.28650  0.70270  Biso   1.000  C
  C284     1.0000 0.31570  0.29990  0.66250  Biso   1.000  C
  C285     1.0000 0.36140  0.33580  0.65960  Biso   1.000  C
  C286     1.0000 0.36010  0.35960  0.69660  Biso   1.000  C
  C287     1.0000 0.41800  0.39940  0.69180  Biso   1.000  C
  C288     1.0000 0.14460  0.42900  0.73880  Biso   1.000  C
  C289     1.0000 0.80770  0.12310  0.48210  Biso   1.000  C
  C290     1.0000 0.85640  0.08910  0.45050  Biso   1.000  C
  C291     1.0000 0.94760  0.05790  0.45970  Biso   1.000  C
  C292     1.0000 0.98840  0.02490  0.43330  Biso   1.000  C
  C293     1.0000 0.91990  0.02080  0.40160  Biso   1.000  C
  C294     1.0000 0.80410  0.08480  0.41660  Biso   1.000  C
  C295     1.0000 0.70920  0.11630  0.39950  Biso   1.000  C
  C296     1.0000 0.53500  0.12360  0.36960  Biso   1.000  C
  C297     1.0000 0.53360  0.16390  0.36410  Biso   1.000  C
  C298     1.0000 0.62530  0.18160  0.37700  Biso   1.000  C
  C299     1.0000 0.71530  0.15830  0.39510  Biso   1.000  C
  C300     1.0000 0.81190  0.17770  0.40890  Biso   1.000  C
  C301     1.0000 0.38520  0.11350  0.57870  Biso   1.000  C
  C302     1.0000 0.32210  0.08970  0.61390  Biso   1.000  C
  C303     1.0000 0.29930  0.10610  0.65350  Biso   1.000  C
  C304     1.0000 0.25840  0.08320  0.68600  Biso   1.000  C
  C305     1.0000 0.23990  0.04280  0.67880  Biso   1.000  C
  C306     1.0000 0.29330  0.05020  0.60840  Biso   1.000  C
  C307     1.0000 0.30500  0.03000  0.56860  Biso   1.000  C
  C308     1.0000 0.38510  0.96930  0.53330  Biso   1.000  C
  C309     1.0000 0.35370  0.98700  0.49620  Biso   1.000  C
  C310     1.0000 0.29090  0.02640  0.49780  Biso   1.000  C
  C311     1.0000 0.26490  0.05000  0.53400  Biso   1.000  C
  C312     1.0000 0.18010  0.09050  0.53650  Biso   1.000  C
  C313     1.0000 0.27730  0.23070  0.42070  Biso   1.000  C
  C314     1.0000 0.15030  0.25490  0.41990  Biso   1.000  C
  C315     1.0000 0.08120  0.24280  0.39300  Biso   1.000  C
  C316     1.0000 0.96570  0.26390  0.39010  Biso   1.000  C
  C317     1.0000 0.92120  0.29790  0.41530  Biso   1.000  C
  C318     1.0000 0.09590  0.28810  0.44450  Biso   1.000  C
  C319     1.0000 0.15570  0.30580  0.47560  Biso   1.000  C
  C320     1.0000 0.19420  0.36740  0.50020  Biso   1.000  C
  C321     1.0000 0.27430  0.34680  0.52360  Biso   1.000  C
  C322     1.0000 0.28620  0.30450  0.52670  Biso   1.000  C
  C323     1.0000 0.22670  0.28340  0.50340  Biso   1.000  C
  C324     1.0000 0.22720  0.23770  0.51110  Biso   1.000  C
  C325     1.0000 0.61310  0.27380  0.59100  Biso   1.000  C
  C326     1.0000 0.60420  0.31210  0.56970  Biso   1.000  C
  C327     1.0000 0.62380  0.34600  0.58700  Biso   1.000  C
  C328     1.0000 0.66030  0.34010  0.62310  Biso   1.000  C
  C329     1.0000 0.64770  0.27060  0.63000  Biso   1.000  C
  C330     1.0000 0.64840  0.23260  0.65400  Biso   1.000  C
  C331     1.0000 0.56850  0.20270  0.71350  Biso   1.000  C
  C332     1.0000 0.61560  0.16250  0.70010  Biso   1.000  C
  C333     1.0000 0.69720  0.15960  0.66420  Biso   1.000  C
  C334     1.0000 0.71970  0.19660  0.64040  Biso   1.000  C
  C335     1.0000 0.81740  0.19180  0.60060  Biso   1.000  C
  C336     1.0000 0.57360  0.23880  0.57100  Biso   1.000  C
  C337     1.0000 0.91290  0.37690  0.01790  Biso   1.000  C
  C338     1.0000 0.89600  0.41090  0.04950  Biso   1.000  C
  C339     1.0000 0.96520  0.44210  0.04030  Biso   1.000  C
  C340     1.0000 0.94660  0.47510  0.06670  Biso   1.000  C
  C341     1.0000 0.84230  0.47920  0.09840  Biso   1.000  C
  C342     1.0000 0.80550  0.41520  0.08340  Biso   1.000  C
  C343     1.0000 0.72500  0.38370  0.10050  Biso   1.000  C
  C344     1.0000 0.52820  0.37640  0.13040  Biso   1.000  C
  C345     1.0000 0.56160  0.33610  0.13590  Biso   1.000  C
  C346     1.0000 0.68390  0.31840  0.12300  Biso   1.000  C
  C347     1.0000 0.76870  0.34170  0.10490  Biso   1.000  C
  C348     1.0000 0.89850  0.32230  0.09110  Biso   1.000  C
  C349     1.0000 0.57740  0.38650  0.92130  Biso   1.000  C
  C350     1.0000 0.52570  0.41030  0.88610  Biso   1.000  C
  C351     1.0000 0.55890  0.39390  0.84650  Biso   1.000  C
  C352     1.0000 0.52760  0.41680  0.81400  Biso   1.000  C
  C353     1.0000 0.46150  0.45720  0.82120  Biso   1.000  C
  C354     1.0000 0.45190  0.44980  0.89160  Biso   1.000  C
  C355     1.0000 0.40360  0.47000  0.93140  Biso   1.000  C
  C356     1.0000 0.38770  0.53070  0.96670  Biso   1.000  C
  C357     1.0000 0.33690  0.51300  0.00380  Biso   1.000  C
  C358     1.0000 0.31510  0.47360  0.00220  Biso   1.000  C
  C359     1.0000 0.34890  0.45000  0.96600  Biso   1.000  C
  C360     1.0000 0.30710  0.40950  0.96350  Biso   1.000  C
  C361     1.0000 0.42870  0.26930  0.07930  Biso   1.000  C
  C362     1.0000 0.32510  0.24510  0.08010  Biso   1.000  C
  C363     1.0000 0.21700  0.25720  0.10700  Biso   1.000  C
  C364     1.0000 0.11970  0.23610  0.10990  Biso   1.000  C
  C365     1.0000 0.13440  0.20210  0.08470  Biso   1.000  C
  C366     1.0000 0.32850  0.21190  0.05550  Biso   1.000  C
  C367     1.0000 0.43710  0.19420  0.02440  Biso   1.000  C
  C368     1.0000 0.56180  0.13260  0.99980  Biso   1.000  C
  C369     1.0000 0.64470  0.15320  0.97640  Biso   1.000  C
  C370     1.0000 0.61740  0.19550  0.97330  Biso   1.000  C
  C371     1.0000 0.51350  0.21660  0.99660  Biso   1.000  C
  C372     1.0000 0.47600  0.26230  0.98890  Biso   1.000  C
  C373     1.0000 0.97790  0.22620  0.90900  Biso   1.000  C
  C374     1.0000 0.98600  0.18790  0.93030  Biso   1.000  C
  C375     1.0000 0.05680  0.15400  0.91300  Biso   1.000  C
  C376     1.0000 0.12350  0.15990  0.87690  Biso   1.000  C
  C377     1.0000 0.04830  0.22940  0.87000  Biso   1.000  C
  C378     1.0000 0.03500  0.26740  0.84600  Biso   1.000  C
  C379     1.0000 0.98470  0.29730  0.78650  Biso   1.000  C
  C380     1.0000 0.97820  0.33750  0.79990  Biso   1.000  C
  C381     1.0000 0.02100  0.34040  0.83580  Biso   1.000  C
  C382     1.0000 0.05670  0.30340  0.85960  Biso   1.000  C
  C383     1.0000 0.10980  0.30820  0.89940  Biso   1.000  C
  C384     1.0000 0.88340  0.26120  0.92900  Biso   1.000  C
  N1       1.0000 0.11730  0.10680  0.05040  Biso   1.000  N
  N2       1.0000 0.27910  0.11280  0.09900  Biso   1.000  N
  N3       1.0000 0.64630  0.93160  0.99020  Biso   1.000  N
  N4       1.0000 0.71470  0.85840  0.02720  Biso   1.000  N
  N5       1.0000 0.70580  0.05780  0.30960  Biso   1.000  N
  N6       1.0000 0.51760  0.02350  0.34770  Biso   1.000  N
  N7       1.0000 0.02000  0.85340  0.30540  Biso   1.000  N
  N8       1.0000 0.18510  0.80800  0.23700  Biso   1.000  N
  N9       1.0000 0.77450  0.39320  0.44960  Biso   1.000  N
  N10      1.0000 0.99090  0.38720  0.40100  Biso   1.000  N
  N11      1.0000 0.06810  0.56840  0.50980  Biso   1.000  N
  N12      1.0000 0.10030  0.64160  0.47280  Biso   1.000  N
  N13      1.0000 0.57320  0.44220  0.19040  Biso   1.000  N
  N14      1.0000 0.38880  0.47650  0.15230  Biso   1.000  N
  N15      1.0000 0.67880  0.64660  0.19460  Biso   1.000  N
  N16      1.0000 0.73010  0.69200  0.26300  Biso   1.000  N
  N17      1.0000 0.16770  0.94960  0.60680  Biso   1.000  N
  N18      1.0000 0.37810  0.90100  0.61280  Biso   1.000  N
  N19      1.0000 0.63650  0.00980  0.43160  Biso   1.000  N
  N20      1.0000 0.74190  0.97280  0.35840  Biso   1.000  N
  N21      1.0000 0.01540  0.69040  0.55780  Biso   1.000  N
  N22      1.0000 0.86530  0.65230  0.52350  Biso   1.000  N
  N23      1.0000 0.32540  0.69460  0.35340  Biso   1.000  N
  N24      1.0000 0.42210  0.76300  0.30800  Biso   1.000  N
  N25      1.0000 0.22410  0.55040  0.89320  Biso   1.000  N
  N26      1.0000 0.39190  0.59900  0.88720  Biso   1.000  N
  N27      1.0000 0.57790  0.49020  0.06840  Biso   1.000  N
  N28      1.0000 0.57310  0.52720  0.14160  Biso   1.000  N
  N29      1.0000 0.76360  0.80960  0.94220  Biso   1.000  N
  N30      1.0000 0.54110  0.84770  0.97650  Biso   1.000  N
  N31      1.0000 0.87340  0.80540  0.14660  Biso   1.000  N
  N32      1.0000 0.99310  0.73700  0.19200  Biso   1.000  N
  N33      1.0000 0.88270  0.89320  0.94960  Biso   1.000  N
  N34      1.0000 0.72090  0.88720  0.90100  Biso   1.000  N
  N35      1.0000 0.35370  0.06840  0.00980  Biso   1.000  N
  N36      1.0000 0.28530  0.14160  0.97280  Biso   1.000  N
  N37      1.0000 0.29420  0.94220  0.69040  Biso   1.000  N
  N38      1.0000 0.48240  0.97650  0.65230  Biso   1.000  N
  N39      1.0000 0.98000  0.14660  0.69460  Biso   1.000  N
  N40      1.0000 0.81490  0.19200  0.76300  Biso   1.000  N
  N41      1.0000 0.22550  0.60680  0.55040  Biso   1.000  N
  N42      1.0000 0.00910  0.61280  0.59900  Biso   1.000  N
  N43      1.0000 0.93190  0.43160  0.49020  Biso   1.000  N
  N44      1.0000 0.89970  0.35840  0.52720  Biso   1.000  N
  N45      1.0000 0.42680  0.55780  0.80960  Biso   1.000  N
  N46      1.0000 0.61120  0.52350  0.84770  Biso   1.000  N
  N47      1.0000 0.32120  0.35340  0.80540  Biso   1.000  N
  N48      1.0000 0.26990  0.30800  0.73700  Biso   1.000  N
  N49      1.0000 0.83230  0.05040  0.39320  Biso   1.000  N
  N50      1.0000 0.62190  0.09900  0.38720  Biso   1.000  N
  N51      1.0000 0.36350  0.99020  0.56840  Biso   1.000  N
  N52      1.0000 0.25810  0.02720  0.64160  Biso   1.000  N
  N53      1.0000 0.98460  0.30960  0.44220  Biso   1.000  N
  N54      1.0000 0.13470  0.34770  0.47650  Biso   1.000  N
  N55      1.0000 0.67460  0.30540  0.64660  Biso   1.000  N
  N56      1.0000 0.57790  0.23700  0.69200  Biso   1.000  N
  N57      1.0000 0.77590  0.44960  0.10680  Biso   1.000  N
  N58      1.0000 0.60810  0.40100  0.11280  Biso   1.000  N
  N59      1.0000 0.42210  0.50980  0.93160  Biso   1.000  N
  N60      1.0000 0.42690  0.47280  0.85840  Biso   1.000  N
  N61      1.0000 0.23640  0.19040  0.05780  Biso   1.000  N
  N62      1.0000 0.45890  0.15230  0.02350  Biso   1.000  N
  N63      1.0000 0.12660  0.19460  0.85340  Biso   1.000  N
  N64      1.0000 0.00690  0.26300  0.80800  Biso   1.000  N
  O1       1.0000 0.48858  0.91723  0.15341  Biso   1.000  O
  O2       1.0000 0.44470  0.94930  0.09650  Biso   1.000  O
  O3       1.0000 0.83100  0.94270  0.09370  Biso   1.000  O
  O4       1.0000 0.66443  0.98607  0.11967  Biso   1.000  O
  O5       1.0000 0.98788  0.99670  0.13194  Biso   1.000  O
  O6       1.0000 0.16628  0.01514  0.13790  Biso   1.000  O
  O7       1.0000 0.91781  0.10003  0.16055  Biso   1.000  O
  O8       1.0000 0.01176  0.07202  0.21086  Biso   1.000  O
  O9       1.0000 0.52203  0.07769  0.19185  Biso   1.000  O
  O10      1.0000 0.38682  0.07867  0.25009  Biso   1.000  O
  O11      1.0000 0.64398  0.99283  0.22521  Biso   1.000  O
  O12      1.0000 0.46291  0.97763  0.21735  Biso   1.000  O
  O13      1.0000 0.13370  0.96010  0.22350  Biso   1.000  O
  O14      1.0000 0.29580  0.91460  0.22600  Biso   1.000  O
  O15      1.0000 0.99390  0.91320  0.15780  Biso   1.000  O
  O16      1.0000 0.90640  0.91100  0.22160  Biso   1.000  O
  O17      1.0000 0.23848  0.03336  0.22048  Biso   1.000  O
  O18      1.0000 0.43339  0.02874  0.14028  Biso   1.000  O
  O19      1.0000 0.22130  0.92380  0.13820  Biso   1.000  O
  O20      1.0000 0.70110  0.91390  0.18330  Biso   1.000  O
  O21      1.0000 0.75971  0.04725  0.16093  Biso   1.000  O
  O22      1.0000 0.90460  0.00170  0.22610  Biso   1.000  O
  O23      1.0000 0.05922  0.58277  0.34659  Biso   1.000  O
  O24      1.0000 0.99050  0.55070  0.40350  Biso   1.000  O
  O25      1.0000 0.36740  0.55730  0.40630  Biso   1.000  O
  O26      1.0000 0.27017  0.51393  0.38033  Biso   1.000  O
  O27      1.0000 0.61652  0.50330  0.36806  Biso   1.000  O
  O28      1.0000 0.81932  0.48486  0.36210  Biso   1.000  O
  O29      1.0000 0.67839  0.39997  0.33945  Biso   1.000  O
  O30      1.0000 0.79464  0.42798  0.28914  Biso   1.000  O
  O31      1.0000 0.29157  0.42231  0.30815  Biso   1.000  O
  O32      1.0000 0.21558  0.42133  0.24991  Biso   1.000  O
  O33      1.0000 0.36202  0.50717  0.27479  Biso   1.000  O
  O34      1.0000 0.15789  0.52237  0.28265  Biso   1.000  O
  O35      1.0000 0.81730  0.53990  0.27650  Biso   1.000  O
  O36      1.0000 0.93640  0.58540  0.27400  Biso   1.000  O
  O37      1.0000 0.56490  0.58680  0.34220  Biso   1.000  O
  O38      1.0000 0.53900  0.58900  0.27840  Biso   1.000  O
  O39      1.0000 0.99232  0.46664  0.27952  Biso   1.000  O
  O40      1.0000 0.10241  0.47126  0.35972  Biso   1.000  O
  O41      1.0000 0.78330  0.57620  0.36180  Biso   1.000  O
  O42      1.0000 0.29830  0.58610  0.31670  Biso   1.000  O
  O43      1.0000 0.46789  0.45275  0.33907  Biso   1.000  O
  O44      1.0000 0.63240  0.49830  0.27390  Biso   1.000  O
  O45      1.0000 0.64199  0.84659  0.41723  Biso   1.000  O
  O46      1.0000 0.54120  0.90350  0.44930  Biso   1.000  O
  O47      1.0000 0.92470  0.90630  0.44270  Biso   1.000  O
  O48      1.0000 0.78410  0.88033  0.48607  Biso   1.000  O
  O49      1.0000 0.11982  0.86806  0.49670  Biso   1.000  O
  O50      1.0000 0.30418  0.86210  0.51514  Biso   1.000  O
  O51      1.0000 0.07836  0.83945  0.60003  Biso   1.000  O
  O52      1.0000 0.22262  0.78914  0.57202  Biso   1.000  O
  O53      1.0000 0.71388  0.80815  0.57769  Biso   1.000  O
  O54      1.0000 0.63691  0.74991  0.57867  Biso   1.000  O
  O55      1.0000 0.86919  0.77479  0.49283  Biso   1.000  O
  O56      1.0000 0.68026  0.78265  0.47763  Biso   1.000  O
  O57      1.0000 0.35720  0.77650  0.46010  Biso   1.000  O
  O58      1.0000 0.52180  0.77400  0.41460  Biso   1.000  O
  O59      1.0000 0.15170  0.84220  0.41320  Biso   1.000  O
  O60      1.0000 0.12800  0.77840  0.41100  Biso   1.000  O
  O61      1.0000 0.45896  0.77952  0.53336  Biso   1.000  O
  O62      1.0000 0.57367  0.85972  0.52874  Biso   1.000  O
  O63      1.0000 0.35950  0.86180  0.42380  Biso   1.000  O
  O64      1.0000 0.88440  0.81670  0.41390  Biso   1.000  O
  O65      1.0000 0.92064  0.83907  0.54725  Biso   1.000  O
  O66      1.0000 0.13070  0.77390  0.50170  Biso   1.000  O
  O67      1.0000 0.40581  0.65341  0.08277  Biso   1.000  O
  O68      1.0000 0.39400  0.59650  0.05070  Biso   1.000  O
  O69      1.0000 0.77370  0.59370  0.05730  Biso   1.000  O
  O70      1.0000 0.65050  0.61967  0.01393  Biso   1.000  O
  O71      1.0000 0.98458  0.63194  0.00330  Biso   1.000  O
  O72      1.0000 0.18142  0.63790  0.98486  Biso   1.000  O
  O73      1.0000 0.01784  0.66055  0.89997  Biso   1.000  O
  O74      1.0000 0.08378  0.71086  0.92798  Biso   1.000  O
  O75      1.0000 0.59972  0.69185  0.92231  Biso   1.000  O
  O76      1.0000 0.46549  0.75009  0.92133  Biso   1.000  O
  O77      1.0000 0.63681  0.72521  0.00717  Biso   1.000  O
  O78      1.0000 0.44054  0.71735  0.02237  Biso   1.000  O
  O79      1.0000 0.09380  0.72350  0.03990  Biso   1.000  O
  O80      1.0000 0.21040  0.72600  0.08540  Biso   1.000  O
  O81      1.0000 0.90710  0.65780  0.08680  Biso   1.000  O
  O82      1.0000 0.81740  0.72160  0.08900  Biso   1.000  O
  O83      1.0000 0.27184  0.72048  0.96664  Biso   1.000  O
  O84      1.0000 0.46213  0.64028  0.97126  Biso   1.000  O
  O85      1.0000 0.14510  0.63820  0.07620  Biso   1.000  O
  O86      1.0000 0.61500  0.68330  0.08610  Biso   1.000  O
  O87      1.0000 0.80696  0.66093  0.95275  Biso   1.000  O
  O88      1.0000 0.90630  0.72610  0.99830  Biso   1.000  O
  O89      1.0000 0.51142  0.08277  0.84659  Biso   1.000  O
  O90      1.0000 0.55530  0.05070  0.90350  Biso   1.000  O
  O91      1.0000 0.16900  0.05730  0.90630  Biso   1.000  O
  O92      1.0000 0.33557  0.01393  0.88033  Biso   1.000  O
  O93      1.0000 0.01212  0.00330  0.86806  Biso   1.000  O
  O94      1.0000 0.83372  0.98486  0.86210  Biso   1.000  O
  O95      1.0000 0.08219  0.89997  0.83945  Biso   1.000  O
  O96      1.0000 0.98824  0.92798  0.78914  Biso   1.000  O
  O97      1.0000 0.47797  0.92231  0.80815  Biso   1.000  O
  O98      1.0000 0.61318  0.92133  0.74991  Biso   1.000  O
  O99      1.0000 0.35602  0.00717  0.77479  Biso   1.000  O
  O100     1.0000 0.53709  0.02237  0.78265  Biso   1.000  O
  O101     1.0000 0.86630  0.03990  0.77650  Biso   1.000  O
  O102     1.0000 0.70420  0.08540  0.77400  Biso   1.000  O
  O103     1.0000 0.00610  0.08680  0.84220  Biso   1.000  O
  O104     1.0000 0.09360  0.08900  0.77840  Biso   1.000  O
  O105     1.0000 0.76152  0.96664  0.77952  Biso   1.000  O
  O106     1.0000 0.56661  0.97126  0.85972  Biso   1.000  O
  O107     1.0000 0.77870  0.07620  0.86180  Biso   1.000  O
  O108     1.0000 0.29890  0.08610  0.81670  Biso   1.000  O
  O109     1.0000 0.24029  0.95275  0.83907  Biso   1.000  O
  O110     1.0000 0.09540  0.99830  0.77390  Biso   1.000  O
  O111     1.0000 0.94078  0.41723  0.65341  Biso   1.000  O
  O112     1.0000 0.00950  0.44930  0.59650  Biso   1.000  O
  O113     1.0000 0.63260  0.44270  0.59370  Biso   1.000  O
  O114     1.0000 0.72983  0.48607  0.61967  Biso   1.000  O
  O115     1.0000 0.38348  0.49670  0.63194  Biso   1.000  O
  O116     1.0000 0.18068  0.51514  0.63790  Biso   1.000  O
  O117     1.0000 0.32161  0.60003  0.66055  Biso   1.000  O
  O118     1.0000 0.20536  0.57202  0.71086  Biso   1.000  O
  O119     1.0000 0.70843  0.57769  0.69185  Biso   1.000  O
  O120     1.0000 0.78442  0.57867  0.75009  Biso   1.000  O
  O121     1.0000 0.63798  0.49283  0.72521  Biso   1.000  O
  O122     1.0000 0.84211  0.47763  0.71735  Biso   1.000  O
  O123     1.0000 0.18270  0.46010  0.72350  Biso   1.000  O
  O124     1.0000 0.06360  0.41460  0.72600  Biso   1.000  O
  O125     1.0000 0.43510  0.41320  0.65780  Biso   1.000  O
  O126     1.0000 0.46100  0.41100  0.72160  Biso   1.000  O
  O127     1.0000 0.00768  0.53336  0.72048  Biso   1.000  O
  O128     1.0000 0.89759  0.52874  0.64028  Biso   1.000  O
  O129     1.0000 0.21670  0.42380  0.63820  Biso   1.000  O
  O130     1.0000 0.70170  0.41390  0.68330  Biso   1.000  O
  O131     1.0000 0.53211  0.54725  0.66093  Biso   1.000  O
  O132     1.0000 0.36760  0.50170  0.72610  Biso   1.000  O
  O133     1.0000 0.35801  0.15341  0.58277  Biso   1.000  O
  O134     1.0000 0.45880  0.09650  0.55070  Biso   1.000  O
  O135     1.0000 0.07530  0.09370  0.55730  Biso   1.000  O
  O136     1.0000 0.21590  0.11967  0.51393  Biso   1.000  O
  O137     1.0000 0.88018  0.13194  0.50330  Biso   1.000  O
  O138     1.0000 0.69582  0.13790  0.48486  Biso   1.000  O
  O139     1.0000 0.92164  0.16055  0.39997  Biso   1.000  O
  O140     1.0000 0.77738  0.21086  0.42798  Biso   1.000  O
  O141     1.0000 0.28612  0.19185  0.42231  Biso   1.000  O
  O142     1.0000 0.36309  0.25009  0.42133  Biso   1.000  O
  O143     1.0000 0.13081  0.22521  0.50717  Biso   1.000  O
  O144     1.0000 0.31974  0.21735  0.52237  Biso   1.000  O
  O145     1.0000 0.64280  0.22350  0.53990  Biso   1.000  O
  O146     1.0000 0.47820  0.22600  0.58540  Biso   1.000  O
  O147     1.0000 0.84830  0.15780  0.58680  Biso   1.000  O
  O148     1.0000 0.87200  0.22160  0.58900  Biso   1.000  O
  O149     1.0000 0.54104  0.22048  0.46664  Biso   1.000  O
  O150     1.0000 0.42633  0.14028  0.47126  Biso   1.000  O
  O151     1.0000 0.64050  0.13820  0.57620  Biso   1.000  O
  O152     1.0000 0.11560  0.18330  0.58610  Biso   1.000  O
  O153     1.0000 0.07936  0.16093  0.45275  Biso   1.000  O
  O154     1.0000 0.86930  0.22610  0.49830  Biso   1.000  O
  O155     1.0000 0.59419  0.34659  0.91723  Biso   1.000  O
  O156     1.0000 0.60600  0.40350  0.94930  Biso   1.000  O
  O157     1.0000 0.22630  0.40630  0.94270  Biso   1.000  O
  O158     1.0000 0.34950  0.38033  0.98607  Biso   1.000  O
  O159     1.0000 0.01542  0.36806  0.99670  Biso   1.000  O
  O160     1.0000 0.81858  0.36210  0.01514  Biso   1.000  O
  O161     1.0000 0.98216  0.33945  0.10003  Biso   1.000  O
  O162     1.0000 0.91622  0.28914  0.07202  Biso   1.000  O
  O163     1.0000 0.40028  0.30815  0.07769  Biso   1.000  O
  O164     1.0000 0.53451  0.24991  0.07867  Biso   1.000  O
  O165     1.0000 0.36319  0.27479  0.99283  Biso   1.000  O
  O166     1.0000 0.55946  0.28265  0.97763  Biso   1.000  O
  O167     1.0000 0.90620  0.27650  0.96010  Biso   1.000  O
  O168     1.0000 0.78960  0.27400  0.91460  Biso   1.000  O
  O169     1.0000 0.09290  0.34220  0.91320  Biso   1.000  O
  O170     1.0000 0.18260  0.27840  0.91100  Biso   1.000  O
  O171     1.0000 0.72816  0.27952  0.03336  Biso   1.000  O
  O172     1.0000 0.53787  0.35972  0.02874  Biso   1.000  O
  O173     1.0000 0.85490  0.36180  0.92380  Biso   1.000  O
  O174     1.0000 0.38500  0.31670  0.91390  Biso   1.000  O
  O175     1.0000 0.19304  0.33907  0.04725  Biso   1.000  O
  O176     1.0000 0.09370  0.27390  0.00170  Biso   1.000  O
