data_image0
_cell_length_a       11.2276
_cell_length_b       32.867
_cell_length_c       32.867
_cell_angle_alpha    88.3282
_cell_angle_beta     80.1655
_cell_angle_gamma    80.1656

_symmetry_space_group_name_H-M    P 1
_symmetry_int_tables_number       1

loop_
  _symmetry_equiv_pos_as_xyz
  'x, y, z'

loop_
  _atom_site_label
  _atom_site_occupancy
  _atom_site_fract_x
  _atom_site_fract_y
  _atom_site_fract_z
  _atom_site_thermal_displace_type
  _atom_site_B_iso_or_equiv
  _atom_site_type_symbol
  Nd1      1.0000 0.81681  0.97073  0.17109  Biso   1.000  Nd
  Nd2      1.0000 0.31759  0.97373  0.17318  Biso   1.000  Nd
  Nd3      1.0000 0.45863  0.52927  0.32891  Biso   1.000  Nd
  Nd4      1.0000 0.96449  0.52627  0.32682  Biso   1.000  Nd
  Nd5      1.0000 0.98790  0.82891  0.47073  Biso   1.000  Nd
  Nd6      1.0000 0.49076  0.82682  0.47374  Biso   1.000  Nd
  Nd7      1.0000 0.78754  0.67109  0.02927  Biso   1.000  Nd
  Nd8      1.0000 0.29132  0.67318  0.02626  Biso   1.000  Nd
  Nd9      1.0000 0.18319  0.02927  0.82891  Biso   1.000  Nd
  Nd10     1.0000 0.68241  0.02627  0.82682  Biso   1.000  Nd
  Nd11     1.0000 0.54137  0.47073  0.67109  Biso   1.000  Nd
  Nd12     1.0000 0.03551  0.47373  0.67318  Biso   1.000  Nd
  Nd13     1.0000 0.01210  0.17109  0.52927  Biso   1.000  Nd
  Nd14     1.0000 0.50924  0.17318  0.52626  Biso   1.000  Nd
  Nd15     1.0000 0.21246  0.32891  0.97073  Biso   1.000  Nd
  Nd16     1.0000 0.70868  0.32682  0.97374  Biso   1.000  Nd
  Co1      1.0000 0.67461  0.03689  0.37083  Biso   1.000  Co
  Co2      1.0000 0.58233  0.46311  0.12917  Biso   1.000  Co
  Co3      1.0000 0.04544  0.62917  0.53689  Biso   1.000  Co
  Co4      1.0000 0.71150  0.87083  0.96311  Biso   1.000  Co
  Co5      1.0000 0.32539  0.96311  0.62917  Biso   1.000  Co
  Co6      1.0000 0.41767  0.53689  0.87083  Biso   1.000  Co
  Co7      1.0000 0.95456  0.37083  0.46311  Biso   1.000  Co
  Co8      1.0000 0.28850  0.12917  0.03689  Biso   1.000  Co
  H1       1.0000 0.69030  0.05490  0.17550  Biso   1.000  H
  H2       1.0000 0.75650  0.05130  0.13550  Biso   1.000  H
  H3       1.0000 0.84640  0.01230  0.24390  Biso   1.000  H
  H4       1.0000 0.94700  0.01860  0.21480  Biso   1.000  H
  H5       1.0000 0.37210  0.95660  0.29020  Biso   1.000  H
  H6       1.0000 0.69830  0.02610  0.03830  Biso   1.000  H
  H7       1.0000 0.31850  0.96300  0.36180  Biso   1.000  H
  H8       1.0000 0.17870  0.04940  0.21220  Biso   1.000  H
  H9       1.0000 0.29790  0.04700  0.22260  Biso   1.000  H
  H10      1.0000 0.44480  0.04440  0.15920  Biso   1.000  H
  H11      1.0000 0.39220  0.04280  0.12320  Biso   1.000  H
  H12      1.0000 0.26050  0.89620  0.14320  Biso   1.000  H
  H13      1.0000 0.24250  0.92520  0.11020  Biso   1.000  H
  H14      1.0000 0.65350  0.02790  0.97170  Biso   1.000  H
  H15      1.0000 0.42400  0.00060  0.39600  Biso   1.000  H
  H16      1.0000 0.63590  0.96720  0.94180  Biso   1.000  H
  H17      1.0000 0.66450  0.12530  0.21970  Biso   1.000  H
  H18      1.0000 0.84390  0.08720  0.31180  Biso   1.000  H
  H19      1.0000 0.54980  0.84110  0.13210  Biso   1.000  H
  H20      1.0000 0.75760  0.79770  0.02630  Biso   1.000  H
  H21      1.0000 0.82250  0.12930  0.25570  Biso   1.000  H
  H22      1.0000 0.95080  0.01860  0.06100  Biso   1.000  H
  H23      1.0000 0.10160  0.95670  0.31290  Biso   1.000  H
  H24      1.0000 0.66360  0.78600  0.09300  Biso   1.000  H
  H25      1.0000 0.93620  0.06350  0.00550  Biso   1.000  H
  H26      1.0000 0.01040  0.92470  0.37170  Biso   1.000  H
  H27      1.0000 0.05660  0.11490  0.99750  Biso   1.000  H
  H28      1.0000 0.95720  0.86450  0.36350  Biso   1.000  H
  H29      1.0000 0.16440  0.12660  0.21100  Biso   1.000  H
  H30      1.0000 0.41250  0.13960  0.11240  Biso   1.000  H
  H31      1.0000 0.12070  0.84360  0.13480  Biso   1.000  H
  H32      1.0000 0.27660  0.75910  0.20590  Biso   1.000  H
  H33      1.0000 0.34740  0.14800  0.18120  Biso   1.000  H
  H34      1.0000 0.26220  0.78290  0.14030  Biso   1.000  H
  H35      1.0000 0.42070  0.44510  0.32450  Biso   1.000  H
  H36      1.0000 0.44330  0.44870  0.36450  Biso   1.000  H
  H37      1.0000 0.60260  0.48770  0.25610  Biso   1.000  H
  H38      1.0000 0.68040  0.48140  0.28520  Biso   1.000  H
  H39      1.0000 0.11890  0.54340  0.20980  Biso   1.000  H
  H40      1.0000 0.26270  0.47390  0.46170  Biso   1.000  H
  H41      1.0000 0.14330  0.53700  0.13820  Biso   1.000  H
  H42      1.0000 0.94030  0.45060  0.28780  Biso   1.000  H
  H43      1.0000 0.06750  0.45300  0.27740  Biso   1.000  H
  H44      1.0000 0.14840  0.45560  0.34080  Biso   1.000  H
  H45      1.0000 0.05820  0.45720  0.37680  Biso   1.000  H
  H46      1.0000 0.79990  0.60380  0.35680  Biso   1.000  H
  H47      1.0000 0.77790  0.57480  0.38980  Biso   1.000  H
  H48      1.0000 0.15310  0.47210  0.52830  Biso   1.000  H
  H49      1.0000 0.32060  0.49940  0.10400  Biso   1.000  H
  H50      1.0000 0.04490  0.53280  0.55820  Biso   1.000  H
  H51      1.0000 0.50950  0.37470  0.28030  Biso   1.000  H
  H52      1.0000 0.74290  0.41280  0.18820  Biso   1.000  H
  H53      1.0000 0.02300  0.65890  0.36790  Biso   1.000  H
  H54      1.0000 0.08160  0.70230  0.47370  Biso   1.000  H
  H55      1.0000 0.70750  0.37070  0.24430  Biso   1.000  H
  H56      1.0000 0.53040  0.48140  0.43900  Biso   1.000  H
  H57      1.0000 0.87120  0.54330  0.18710  Biso   1.000  H
  H58      1.0000 0.04260  0.71400  0.40700  Biso   1.000  H
  H59      1.0000 0.50520  0.43650  0.49450  Biso   1.000  H
  H60      1.0000 0.80680  0.57530  0.12830  Biso   1.000  H
  H61      1.0000 0.66900  0.38510  0.50250  Biso   1.000  H
  H62      1.0000 0.68520  0.63550  0.13650  Biso   1.000  H
  H63      1.0000 0.00200  0.37340  0.28900  Biso   1.000  H
  H64      1.0000 0.16450  0.36040  0.38760  Biso   1.000  H
  H65      1.0000 0.59910  0.65640  0.36520  Biso   1.000  H
  H66      1.0000 0.74160  0.74090  0.29410  Biso   1.000  H
  H67      1.0000 0.17660  0.35200  0.31880  Biso   1.000  H
  H68      1.0000 0.68540  0.71710  0.35970  Biso   1.000  H
  H69      1.0000 0.86580  0.82450  0.55490  Biso   1.000  H
  H70      1.0000 0.89200  0.86450  0.55130  Biso   1.000  H
  H71      1.0000 0.09030  0.75610  0.51230  Biso   1.000  H
  H72      1.0000 0.16180  0.78520  0.51860  Biso   1.000  H
  H73      1.0000 0.66230  0.70980  0.45660  Biso   1.000  H
  H74      1.0000 0.73660  0.96170  0.52610  Biso   1.000  H
  H75      1.0000 0.68030  0.63820  0.46300  Biso   1.000  H
  H76      1.0000 0.39090  0.78780  0.54940  Biso   1.000  H
  H77      1.0000 0.52050  0.77740  0.54700  Biso   1.000  H
  H78      1.0000 0.60400  0.84080  0.54440  Biso   1.000  H
  H79      1.0000 0.51540  0.87680  0.54280  Biso   1.000  H
  H80      1.0000 0.40370  0.85680  0.39620  Biso   1.000  H
  H81      1.0000 0.35270  0.88980  0.42520  Biso   1.000  H
  H82      1.0000 0.62520  0.02830  0.52790  Biso   1.000  H
  H83      1.0000 0.82000  0.60400  0.50060  Biso   1.000  H
  H84      1.0000 0.57770  0.05820  0.46720  Biso   1.000  H
  H85      1.0000 0.88420  0.78030  0.62530  Biso   1.000  H
  H86      1.0000 0.15570  0.68820  0.58720  Biso   1.000  H
  H87      1.0000 0.68190  0.86790  0.34110  Biso   1.000  H
  H88      1.0000 0.78390  0.97370  0.29770  Biso   1.000  H
  H89      1.0000 0.07820  0.74430  0.62930  Biso   1.000  H
  H90      1.0000 0.01180  0.93900  0.51860  Biso   1.000  H
  H91      1.0000 0.41450  0.68710  0.45670  Biso   1.000  H
  H92      1.0000 0.75660  0.90700  0.28600  Biso   1.000  H
  H93      1.0000 0.94170  0.99450  0.56350  Biso   1.000  H
  H94      1.0000 0.38210  0.62830  0.42470  Biso   1.000  H
  H95      1.0000 0.05410  0.00250  0.61490  Biso   1.000  H
  H96      1.0000 0.32070  0.63650  0.36450  Biso   1.000  H
  H97      1.0000 0.37540  0.78900  0.62660  Biso   1.000  H
  H98      1.0000 0.52490  0.88760  0.63960  Biso   1.000  H
  H99      1.0000 0.25550  0.86520  0.34360  Biso   1.000  H
  H100     1.0000 0.48250  0.79410  0.25910  Biso   1.000  H
  H101     1.0000 0.52860  0.81880  0.64800  Biso   1.000  H
  H102     1.0000 0.40250  0.85970  0.28290  Biso   1.000  H
  H103     1.0000 0.74520  0.67550  0.94510  Biso   1.000  H
  H104     1.0000 0.80780  0.63550  0.94870  Biso   1.000  H
  H105     1.0000 0.85870  0.74390  0.98770  Biso   1.000  H
  H106     1.0000 0.96560  0.71480  0.98140  Biso   1.000  H
  H107     1.0000 0.32870  0.79020  0.04340  Biso   1.000  H
  H108     1.0000 0.72440  0.53830  0.97390  Biso   1.000  H
  H109     1.0000 0.28150  0.86180  0.03700  Biso   1.000  H
  H110     1.0000 0.22810  0.71220  0.95060  Biso   1.000  H
  H111     1.0000 0.34490  0.72260  0.95300  Biso   1.000  H
  H112     1.0000 0.48920  0.65920  0.95560  Biso   1.000  H
  H113     1.0000 0.43500  0.62320  0.95720  Biso   1.000  H
  H114     1.0000 0.15670  0.64320  0.10380  Biso   1.000  H
  H115     1.0000 0.16770  0.61020  0.07480  Biso   1.000  H
  H116     1.0000 0.68140  0.47170  0.97210  Biso   1.000  H
  H117     1.0000 0.42460  0.89600  0.99940  Biso   1.000  H
  H118     1.0000 0.60310  0.44180  0.03280  Biso   1.000  H
  H119     1.0000 0.78980  0.71970  0.87470  Biso   1.000  H
  H120     1.0000 0.93110  0.81180  0.91280  Biso   1.000  H
  H121     1.0000 0.39090  0.63210  0.15890  Biso   1.000  H
  H122     1.0000 0.55530  0.52630  0.20230  Biso   1.000  H
  H123     1.0000 0.95180  0.75570  0.87070  Biso   1.000  H
  H124     1.0000 0.96940  0.56100  0.98140  Biso   1.000  H
  H125     1.0000 0.05830  0.81290  0.04330  Biso   1.000  H
  H126     1.0000 0.44960  0.59300  0.21400  Biso   1.000  H
  H127     1.0000 0.99970  0.50550  0.93650  Biso   1.000  H
  H128     1.0000 0.93510  0.87170  0.07530  Biso   1.000  H
  H129     1.0000 0.17150  0.49750  0.88510  Biso   1.000  H
  H130     1.0000 0.82170  0.86350  0.13550  Biso   1.000  H
  H131     1.0000 0.29100  0.71100  0.87340  Biso   1.000  H
  H132     1.0000 0.55210  0.61240  0.86040  Biso   1.000  H
  H133     1.0000 0.96430  0.63480  0.15640  Biso   1.000  H
  H134     1.0000 0.03570  0.70590  0.24090  Biso   1.000  H
  H135     1.0000 0.49540  0.68120  0.85200  Biso   1.000  H
  H136     1.0000 0.04510  0.64030  0.21710  Biso   1.000  H
  H137     1.0000 0.30970  0.94510  0.82450  Biso   1.000  H
  H138     1.0000 0.24350  0.94870  0.86450  Biso   1.000  H
  H139     1.0000 0.15360  0.98770  0.75610  Biso   1.000  H
  H140     1.0000 0.05300  0.98140  0.78520  Biso   1.000  H
  H141     1.0000 0.62790  0.04340  0.70980  Biso   1.000  H
  H142     1.0000 0.30170  0.97390  0.96170  Biso   1.000  H
  H143     1.0000 0.68150  0.03700  0.63820  Biso   1.000  H
  H144     1.0000 0.82130  0.95060  0.78780  Biso   1.000  H
  H145     1.0000 0.70210  0.95300  0.77740  Biso   1.000  H
  H146     1.0000 0.55520  0.95560  0.84080  Biso   1.000  H
  H147     1.0000 0.60780  0.95720  0.87680  Biso   1.000  H
  H148     1.0000 0.73950  0.10380  0.85680  Biso   1.000  H
  H149     1.0000 0.75750  0.07480  0.88980  Biso   1.000  H
  H150     1.0000 0.34650  0.97210  0.02830  Biso   1.000  H
  H151     1.0000 0.57600  0.99940  0.60400  Biso   1.000  H
  H152     1.0000 0.36410  0.03280  0.05820  Biso   1.000  H
  H153     1.0000 0.33550  0.87470  0.78030  Biso   1.000  H
  H154     1.0000 0.15610  0.91280  0.68820  Biso   1.000  H
  H155     1.0000 0.45020  0.15890  0.86790  Biso   1.000  H
  H156     1.0000 0.24240  0.20230  0.97370  Biso   1.000  H
  H157     1.0000 0.17750  0.87070  0.74430  Biso   1.000  H
  H158     1.0000 0.04920  0.98140  0.93900  Biso   1.000  H
  H159     1.0000 0.89840  0.04330  0.68710  Biso   1.000  H
  H160     1.0000 0.33640  0.21400  0.90700  Biso   1.000  H
  H161     1.0000 0.06380  0.93650  0.99450  Biso   1.000  H
  H162     1.0000 0.98960  0.07530  0.62830  Biso   1.000  H
  H163     1.0000 0.94340  0.88510  0.00250  Biso   1.000  H
  H164     1.0000 0.04280  0.13550  0.63650  Biso   1.000  H
  H165     1.0000 0.83560  0.87340  0.78900  Biso   1.000  H
  H166     1.0000 0.58750  0.86040  0.88760  Biso   1.000  H
  H167     1.0000 0.87930  0.15640  0.86520  Biso   1.000  H
  H168     1.0000 0.72340  0.24090  0.79410  Biso   1.000  H
  H169     1.0000 0.65260  0.85200  0.81880  Biso   1.000  H
  H170     1.0000 0.73780  0.21710  0.85970  Biso   1.000  H
  H171     1.0000 0.57930  0.55490  0.67550  Biso   1.000  H
  H172     1.0000 0.55670  0.55130  0.63550  Biso   1.000  H
  H173     1.0000 0.39740  0.51230  0.74390  Biso   1.000  H
  H174     1.0000 0.31960  0.51860  0.71480  Biso   1.000  H
  H175     1.0000 0.88110  0.45660  0.79020  Biso   1.000  H
  H176     1.0000 0.73730  0.52610  0.53830  Biso   1.000  H
  H177     1.0000 0.85670  0.46300  0.86180  Biso   1.000  H
  H178     1.0000 0.05970  0.54940  0.71220  Biso   1.000  H
  H179     1.0000 0.93250  0.54700  0.72260  Biso   1.000  H
  H180     1.0000 0.85160  0.54440  0.65920  Biso   1.000  H
  H181     1.0000 0.94180  0.54280  0.62320  Biso   1.000  H
  H182     1.0000 0.20010  0.39620  0.64320  Biso   1.000  H
  H183     1.0000 0.22210  0.42520  0.61020  Biso   1.000  H
  H184     1.0000 0.84690  0.52790  0.47170  Biso   1.000  H
  H185     1.0000 0.67940  0.50060  0.89600  Biso   1.000  H
  H186     1.0000 0.95510  0.46720  0.44180  Biso   1.000  H
  H187     1.0000 0.49050  0.62530  0.71970  Biso   1.000  H
  H188     1.0000 0.25710  0.58720  0.81180  Biso   1.000  H
  H189     1.0000 0.97700  0.34110  0.63210  Biso   1.000  H
  H190     1.0000 0.91840  0.29770  0.52630  Biso   1.000  H
  H191     1.0000 0.29250  0.62930  0.75570  Biso   1.000  H
  H192     1.0000 0.46960  0.51860  0.56100  Biso   1.000  H
  H193     1.0000 0.12880  0.45670  0.81290  Biso   1.000  H
  H194     1.0000 0.95740  0.28600  0.59300  Biso   1.000  H
  H195     1.0000 0.49480  0.56350  0.50550  Biso   1.000  H
  H196     1.0000 0.19320  0.42470  0.87170  Biso   1.000  H
  H197     1.0000 0.33100  0.61490  0.49750  Biso   1.000  H
  H198     1.0000 0.31480  0.36450  0.86350  Biso   1.000  H
  H199     1.0000 0.99800  0.62660  0.71100  Biso   1.000  H
  H200     1.0000 0.83550  0.63960  0.61240  Biso   1.000  H
  H201     1.0000 0.40090  0.34360  0.63480  Biso   1.000  H
  H202     1.0000 0.25840  0.25910  0.70590  Biso   1.000  H
  H203     1.0000 0.82340  0.64800  0.68120  Biso   1.000  H
  H204     1.0000 0.31460  0.28290  0.64030  Biso   1.000  H
  H205     1.0000 0.13420  0.17550  0.44510  Biso   1.000  H
  H206     1.0000 0.10800  0.13550  0.44870  Biso   1.000  H
  H207     1.0000 0.90970  0.24390  0.48770  Biso   1.000  H
  H208     1.0000 0.83820  0.21480  0.48140  Biso   1.000  H
  H209     1.0000 0.33770  0.29020  0.54340  Biso   1.000  H
  H210     1.0000 0.26340  0.03830  0.47390  Biso   1.000  H
  H211     1.0000 0.31970  0.36180  0.53700  Biso   1.000  H
  H212     1.0000 0.60910  0.21220  0.45060  Biso   1.000  H
  H213     1.0000 0.47950  0.22260  0.45300  Biso   1.000  H
  H214     1.0000 0.39600  0.15920  0.45560  Biso   1.000  H
  H215     1.0000 0.48460  0.12320  0.45720  Biso   1.000  H
  H216     1.0000 0.59630  0.14320  0.60380  Biso   1.000  H
  H217     1.0000 0.64730  0.11020  0.57480  Biso   1.000  H
  H218     1.0000 0.37480  0.97170  0.47210  Biso   1.000  H
  H219     1.0000 0.18000  0.39600  0.49940  Biso   1.000  H
  H220     1.0000 0.42230  0.94180  0.53280  Biso   1.000  H
  H221     1.0000 0.11580  0.21970  0.37470  Biso   1.000  H
  H222     1.0000 0.84430  0.31180  0.41280  Biso   1.000  H
  H223     1.0000 0.31810  0.13210  0.65890  Biso   1.000  H
  H224     1.0000 0.21610  0.02630  0.70230  Biso   1.000  H
  H225     1.0000 0.92180  0.25570  0.37070  Biso   1.000  H
  H226     1.0000 0.98820  0.06100  0.48140  Biso   1.000  H
  H227     1.0000 0.58550  0.31290  0.54330  Biso   1.000  H
  H228     1.0000 0.24340  0.09300  0.71400  Biso   1.000  H
  H229     1.0000 0.05830  0.00550  0.43650  Biso   1.000  H
  H230     1.0000 0.61790  0.37170  0.57530  Biso   1.000  H
  H231     1.0000 0.94590  0.99750  0.38510  Biso   1.000  H
  H232     1.0000 0.67930  0.36350  0.63550  Biso   1.000  H
  H233     1.0000 0.62460  0.21100  0.37340  Biso   1.000  H
  H234     1.0000 0.47510  0.11240  0.36040  Biso   1.000  H
  H235     1.0000 0.74450  0.13480  0.65640  Biso   1.000  H
  H236     1.0000 0.51750  0.20590  0.74090  Biso   1.000  H
  H237     1.0000 0.47140  0.18120  0.35200  Biso   1.000  H
  H238     1.0000 0.59750  0.14030  0.71710  Biso   1.000  H
  H239     1.0000 0.25480  0.32450  0.05490  Biso   1.000  H
  H240     1.0000 0.19220  0.36450  0.05130  Biso   1.000  H
  H241     1.0000 0.14130  0.25610  0.01230  Biso   1.000  H
  H242     1.0000 0.03440  0.28520  0.01860  Biso   1.000  H
  H243     1.0000 0.67130  0.20980  0.95660  Biso   1.000  H
  H244     1.0000 0.27560  0.46170  0.02610  Biso   1.000  H
  H245     1.0000 0.71850  0.13820  0.96300  Biso   1.000  H
  H246     1.0000 0.77190  0.28780  0.04940  Biso   1.000  H
  H247     1.0000 0.65510  0.27740  0.04700  Biso   1.000  H
  H248     1.0000 0.51080  0.34080  0.04440  Biso   1.000  H
  H249     1.0000 0.56500  0.37680  0.04280  Biso   1.000  H
  H250     1.0000 0.84330  0.35680  0.89620  Biso   1.000  H
  H251     1.0000 0.83230  0.38980  0.92520  Biso   1.000  H
  H252     1.0000 0.31860  0.52830  0.02790  Biso   1.000  H
  H253     1.0000 0.57540  0.10400  0.00060  Biso   1.000  H
  H254     1.0000 0.39690  0.55820  0.96720  Biso   1.000  H
  H255     1.0000 0.21020  0.28030  0.12530  Biso   1.000  H
  H256     1.0000 0.06890  0.18820  0.08720  Biso   1.000  H
  H257     1.0000 0.60910  0.36790  0.84110  Biso   1.000  H
  H258     1.0000 0.44470  0.47370  0.79770  Biso   1.000  H
  H259     1.0000 0.04820  0.24430  0.12930  Biso   1.000  H
  H260     1.0000 0.03060  0.43900  0.01860  Biso   1.000  H
  H261     1.0000 0.94170  0.18710  0.95670  Biso   1.000  H
  H262     1.0000 0.55040  0.40700  0.78600  Biso   1.000  H
  H263     1.0000 0.00030  0.49450  0.06350  Biso   1.000  H
  H264     1.0000 0.06490  0.12830  0.92470  Biso   1.000  H
  H265     1.0000 0.82850  0.50250  0.11490  Biso   1.000  H
  H266     1.0000 0.17830  0.13650  0.86450  Biso   1.000  H
  H267     1.0000 0.70900  0.28900  0.12660  Biso   1.000  H
  H268     1.0000 0.44790  0.38760  0.13960  Biso   1.000  H
  H269     1.0000 0.03570  0.36520  0.84360  Biso   1.000  H
  H270     1.0000 0.96430  0.29410  0.75910  Biso   1.000  H
  H271     1.0000 0.50460  0.31880  0.14800  Biso   1.000  H
  H272     1.0000 0.95490  0.35970  0.78290  Biso   1.000  H
  C1       1.0000 0.53616  0.98895  0.23733  Biso   1.000  C
  C2       1.0000 0.72841  0.96403  0.09135  Biso   1.000  C
  C3       1.0000 0.49003  0.99707  0.28307  Biso   1.000  C
  C4       1.0000 0.68671  0.96577  0.04941  Biso   1.000  C
  C5       1.0000 0.40760  0.97410  0.30450  Biso   1.000  C
  C6       1.0000 0.53588  0.02470  0.30554  Biso   1.000  C
  C7       1.0000 0.68403  0.00235  0.02659  Biso   1.000  C
  C8       1.0000 0.66291  0.93123  0.03035  Biso   1.000  C
  C9       1.0000 0.37770  0.97700  0.34720  Biso   1.000  C
  C10      1.0000 0.61489  0.05554  0.28788  Biso   1.000  C
  C11      1.0000 0.66024  0.00334  0.98658  Biso   1.000  C
  C12      1.0000 0.65390  0.89081  0.05079  Biso   1.000  C
  C13      1.0000 0.43720  0.00090  0.36730  Biso   1.000  C
  C14      1.0000 0.59599  0.08072  0.25370  Biso   1.000  C
  C15      1.0000 0.07146  0.01768  0.12280  Biso   1.000  C
  C16      1.0000 0.18587  0.92876  0.23830  Biso   1.000  C
  C17      1.0000 0.50240  0.91980  0.11440  Biso   1.000  C
  C18      1.0000 0.64669  0.96698  0.96924  Biso   1.000  C
  C19      1.0000 0.58851  0.88574  0.09004  Biso   1.000  C
  C20      1.0000 0.67458  0.10813  0.24231  Biso   1.000  C
  C21      1.0000 0.49354  0.07869  0.22923  Biso   1.000  C
  C22      1.0000 0.78119  0.08549  0.29713  Biso   1.000  C
  C23      1.0000 0.05505  0.04903  0.08907  Biso   1.000  C
  C24      1.0000 0.11381  0.90902  0.27376  Biso   1.000  C
  C25      1.0000 0.59204  0.84545  0.10587  Biso   1.000  C
  C26      1.0000 0.71590  0.82006  0.04274  Biso   1.000  C
  C27      1.0000 0.76883  0.11081  0.26373  Biso   1.000  C
  C28      1.0000 0.11097  0.08380  0.08526  Biso   1.000  C
  C29      1.0000 0.99060  0.04130  0.05870  Biso   1.000  C
  C30      1.0000 0.08260  0.87010  0.27110  Biso   1.000  C
  C31      1.0000 0.08360  0.93030  0.31130  Biso   1.000  C
  C32      1.0000 0.65783  0.81271  0.08243  Biso   1.000  C
  C33      1.0000 0.17365  0.10012  0.11678  Biso   1.000  C
  C34      1.0000 0.98450  0.06720  0.02500  Biso   1.000  C
  C35      1.0000 0.11980  0.84520  0.23300  Biso   1.000  C
  C36      1.0000 0.02720  0.91210  0.34590  Biso   1.000  C
  C37      1.0000 0.12836  0.10455  0.15833  Biso   1.000  C
  C38      1.0000 0.05350  0.09880  0.02120  Biso   1.000  C
  C39      1.0000 0.98870  0.89780  0.19140  Biso   1.000  C
  C40      1.0000 0.08510  0.85850  0.19630  Biso   1.000  C
  C41      1.0000 0.99860  0.87590  0.34030  Biso   1.000  C
  C42      1.0000 0.00964  0.09017  0.17835  Biso   1.000  C
  C43      1.0000 0.19345  0.12300  0.18290  Biso   1.000  C
  C44      1.0000 0.33984  0.13082  0.12430  Biso   1.000  C
  C45      1.0000 0.13930  0.83460  0.16040  Biso   1.000  C
  C46      1.0000 0.23230  0.78530  0.20270  Biso   1.000  C
  C47      1.0000 0.30198  0.13604  0.16520  Biso   1.000  C
  C48      1.0000 0.21970  0.79790  0.16350  Biso   1.000  C
  C49      1.0000 0.26244  0.51105  0.26267  Biso   1.000  C
  C50      1.0000 0.28379  0.53597  0.40865  Biso   1.000  C
  C51      1.0000 0.27017  0.50293  0.21693  Biso   1.000  C
  C52      1.0000 0.20189  0.53423  0.45059  Biso   1.000  C
  C53      1.0000 0.18620  0.52590  0.19550  Biso   1.000  C
  C54      1.0000 0.36612  0.47530  0.19446  Biso   1.000  C
  C55      1.0000 0.21297  0.49765  0.47341  Biso   1.000  C
  C56      1.0000 0.12449  0.56877  0.46965  Biso   1.000  C
  C57      1.0000 0.20190  0.52300  0.15280  Biso   1.000  C
  C58      1.0000 0.45831  0.44446  0.21212  Biso   1.000  C
  C59      1.0000 0.15016  0.49666  0.51342  Biso   1.000  C
  C60      1.0000 0.09550  0.60919  0.44921  Biso   1.000  C
  C61      1.0000 0.30540  0.49910  0.13270  Biso   1.000  C
  C62      1.0000 0.43041  0.41928  0.24630  Biso   1.000  C
  C63      1.0000 0.71194  0.48232  0.37720  Biso   1.000  C
  C64      1.0000 0.85293  0.57124  0.26170  Biso   1.000  C
  C65      1.0000 0.03660  0.58020  0.38560  Biso   1.000  C
  C66      1.0000 0.08291  0.53302  0.53076  Biso   1.000  C
  C67      1.0000 0.06429  0.61426  0.40996  Biso   1.000  C
  C68      1.0000 0.52502  0.39187  0.25769  Biso   1.000  C
  C69      1.0000 0.30146  0.42131  0.27077  Biso   1.000  C
  C70      1.0000 0.66381  0.41451  0.20287  Biso   1.000  C
  C71      1.0000 0.69315  0.45097  0.41093  Biso   1.000  C
  C72      1.0000 0.79659  0.59098  0.22624  Biso   1.000  C
  C73      1.0000 0.04336  0.65455  0.39413  Biso   1.000  C
  C74      1.0000 0.07870  0.67994  0.45726  Biso   1.000  C
  C75      1.0000 0.64337  0.38919  0.23627  Biso   1.000  C
  C76      1.0000 0.78003  0.41620  0.41474  Biso   1.000  C
  C77      1.0000 0.59060  0.45870  0.44130  Biso   1.000  C
  C78      1.0000 0.72380  0.62990  0.22890  Biso   1.000  C
  C79      1.0000 0.82520  0.56970  0.18870  Biso   1.000  C
  C80      1.0000 0.05297  0.68729  0.41757  Biso   1.000  C
  C81      1.0000 0.89055  0.39988  0.38322  Biso   1.000  C
  C82      1.0000 0.57670  0.43280  0.47500  Biso   1.000  C
  C83      1.0000 0.69800  0.65480  0.26700  Biso   1.000  C
  C84      1.0000 0.78520  0.58790  0.15410  Biso   1.000  C
  C85      1.0000 0.89124  0.39545  0.34167  Biso   1.000  C
  C86      1.0000 0.67350  0.40120  0.47880  Biso   1.000  C
  C87      1.0000 0.57790  0.60220  0.30860  Biso   1.000  C
  C88      1.0000 0.63990  0.64150  0.30370  Biso   1.000  C
  C89      1.0000 0.71480  0.62410  0.15970  Biso   1.000  C
  C90      1.0000 0.77816  0.40983  0.32165  Biso   1.000  C
  C91      1.0000 0.99935  0.37700  0.31710  Biso   1.000  C
  C92      1.0000 0.09496  0.36918  0.37570  Biso   1.000  C
  C93      1.0000 0.63430  0.66540  0.33960  Biso   1.000  C
  C94      1.0000 0.72030  0.71470  0.29730  Biso   1.000  C
  C95      1.0000 0.10322  0.36396  0.33480  Biso   1.000  C
  C96      1.0000 0.68110  0.70210  0.33650  Biso   1.000  C
  C97      1.0000 0.77349  0.76267  0.48895  Biso   1.000  C
  C98      1.0000 0.81976  0.90865  0.46403  Biso   1.000  C
  C99      1.0000 0.77310  0.71693  0.49707  Biso   1.000  C
  C100     1.0000 0.73612  0.95059  0.46577  Biso   1.000  C
  C101     1.0000 0.71210  0.69550  0.47410  Biso   1.000  C
  C102     1.0000 0.84142  0.69446  0.52470  Biso   1.000  C
  C103     1.0000 0.71062  0.97341  0.50235  Biso   1.000  C
  C104     1.0000 0.69326  0.96965  0.43123  Biso   1.000  C
  C105     1.0000 0.72490  0.65280  0.47700  Biso   1.000  C
  C106     1.0000 0.90277  0.71212  0.55554  Biso   1.000  C
  C107     1.0000 0.64682  0.01342  0.50334  Biso   1.000  C
  C108     1.0000 0.70469  0.94921  0.39081  Biso   1.000  C
  C109     1.0000 0.80450  0.63270  0.50090  Biso   1.000  C
  C110     1.0000 0.84969  0.74630  0.58072  Biso   1.000  C
  C111     1.0000 0.19426  0.87720  0.51768  Biso   1.000  C
  C112     1.0000 0.42417  0.76170  0.42876  Biso   1.000  C
  C113     1.0000 0.61680  0.88560  0.41980  Biso   1.000  C
  C114     1.0000 0.61593  0.03076  0.46698  Biso   1.000  C
  C115     1.0000 0.67855  0.90996  0.38574  Biso   1.000  C
  C116     1.0000 0.91689  0.75769  0.60813  Biso   1.000  C
  C117     1.0000 0.72277  0.77077  0.57869  Biso   1.000  C
  C118     1.0000 0.07832  0.70287  0.58549  Biso   1.000  C
  C119     1.0000 0.14412  0.91093  0.54903  Biso   1.000  C
  C120     1.0000 0.38757  0.72624  0.40902  Biso   1.000  C
  C121     1.0000 0.69791  0.89413  0.34545  Biso   1.000  C
  C122     1.0000 0.75864  0.95726  0.32006  Biso   1.000  C
  C123     1.0000 0.03256  0.73627  0.61081  Biso   1.000  C
  C124     1.0000 0.19623  0.91474  0.58380  Biso   1.000  C
  C125     1.0000 0.04930  0.94130  0.54130  Biso   1.000  C
  C126     1.0000 0.35370  0.72890  0.37010  Biso   1.000  C
  C127     1.0000 0.39490  0.68870  0.43030  Biso   1.000  C
  C128     1.0000 0.74026  0.91757  0.31271  Biso   1.000  C
  C129     1.0000 0.29043  0.88322  0.60012  Biso   1.000  C
  C130     1.0000 0.00950  0.97500  0.56720  Biso   1.000  C
  C131     1.0000 0.35280  0.76700  0.34520  Biso   1.000  C
  C132     1.0000 0.37310  0.65410  0.41210  Biso   1.000  C
  C133     1.0000 0.28669  0.84167  0.60455  Biso   1.000  C
  C134     1.0000 0.07470  0.97880  0.59880  Biso   1.000  C
  C135     1.0000 0.18010  0.80860  0.39780  Biso   1.000  C
  C136     1.0000 0.28140  0.80370  0.35850  Biso   1.000  C
  C137     1.0000 0.33890  0.65970  0.37590  Biso   1.000  C
  C138     1.0000 0.18799  0.82165  0.59017  Biso   1.000  C
  C139     1.0000 0.37635  0.81710  0.62300  Biso   1.000  C
  C140     1.0000 0.46414  0.87570  0.63082  Biso   1.000  C
  C141     1.0000 0.29970  0.83960  0.33460  Biso   1.000  C
  C142     1.0000 0.43500  0.79730  0.28530  Biso   1.000  C
  C143     1.0000 0.46718  0.83480  0.63604  Biso   1.000  C
  C144     1.0000 0.38320  0.83650  0.29790  Biso   1.000  C
  C145     1.0000 0.52511  0.73733  0.01105  Biso   1.000  C
  C146     1.0000 0.69244  0.59135  0.03597  Biso   1.000  C
  C147     1.0000 0.48710  0.78307  0.00293  Biso   1.000  C
  C148     1.0000 0.65248  0.54941  0.03423  Biso   1.000  C
  C149     1.0000 0.38170  0.80450  0.02590  Biso   1.000  C
  C150     1.0000 0.56058  0.80554  0.97530  Biso   1.000  C
  C151     1.0000 0.68638  0.52659  0.99765  Biso   1.000  C
  C152     1.0000 0.59414  0.53035  0.06877  Biso   1.000  C
  C153     1.0000 0.35470  0.84720  0.02300  Biso   1.000  C
  C154     1.0000 0.67043  0.78788  0.94446  Biso   1.000  C
  C155     1.0000 0.66358  0.48658  0.99666  Biso   1.000  C
  C156     1.0000 0.54471  0.55079  0.10919  Biso   1.000  C
  C157     1.0000 0.43810  0.86730  0.99910  Biso   1.000  C
  C158     1.0000 0.67671  0.75370  0.91928  Biso   1.000  C
  C159     1.0000 0.08914  0.62280  0.98232  Biso   1.000  C
  C160     1.0000 0.11463  0.73830  0.07124  Biso   1.000  C
  C161     1.0000 0.42220  0.61440  0.08020  Biso   1.000  C
  C162     1.0000 0.61367  0.46924  0.03302  Biso   1.000  C
  C163     1.0000 0.47425  0.59004  0.11426  Biso   1.000  C
  C164     1.0000 0.78271  0.74231  0.89187  Biso   1.000  C
  C165     1.0000 0.57223  0.72923  0.92131  Biso   1.000  C
  C166     1.0000 0.86668  0.79713  0.91451  Biso   1.000  C
  C167     1.0000 0.10408  0.58907  0.95097  Biso   1.000  C
  C168     1.0000 0.02283  0.77376  0.09098  Biso   1.000  C
  C169     1.0000 0.43749  0.60587  0.15455  Biso   1.000  C
  C170     1.0000 0.53596  0.54274  0.17994  Biso   1.000  C
  C171     1.0000 0.87964  0.76373  0.88919  Biso   1.000  C
  C172     1.0000 0.19477  0.58526  0.91620  Biso   1.000  C
  C173     1.0000 0.03190  0.55870  0.95870  Biso   1.000  C
  C174     1.0000 0.95270  0.77110  0.12990  Biso   1.000  C
  C175     1.0000 0.01390  0.81130  0.06970  Biso   1.000  C
  C176     1.0000 0.47054  0.58243  0.18729  Biso   1.000  C
  C177     1.0000 0.27377  0.61678  0.89988  Biso   1.000  C
  C178     1.0000 0.05170  0.52500  0.93280  Biso   1.000  C
  C179     1.0000 0.96500  0.73300  0.15480  Biso   1.000  C
  C180     1.0000 0.93930  0.84590  0.08790  Biso   1.000  C
  C181     1.0000 0.23291  0.65833  0.89545  Biso   1.000  C
  C182     1.0000 0.15230  0.52120  0.90120  Biso   1.000  C
  C183     1.0000 0.88650  0.69140  0.10220  Biso   1.000  C
  C184     1.0000 0.94360  0.69630  0.14150  Biso   1.000  C
  C185     1.0000 0.87450  0.84030  0.12410  Biso   1.000  C
  C186     1.0000 0.09981  0.67835  0.90983  Biso   1.000  C
  C187     1.0000 0.31645  0.68290  0.87700  Biso   1.000  C
  C188     1.0000 0.47066  0.62430  0.86918  Biso   1.000  C
  C189     1.0000 0.97390  0.66040  0.16540  Biso   1.000  C
  C190     1.0000 0.01760  0.70270  0.21470  Biso   1.000  C
  C191     1.0000 0.43802  0.66520  0.86396  Biso   1.000  C
  C192     1.0000 0.01760  0.66350  0.20210  Biso   1.000  C
  C193     1.0000 0.46384  0.01105  0.76267  Biso   1.000  C
  C194     1.0000 0.27159  0.03597  0.90865  Biso   1.000  C
  C195     1.0000 0.50997  0.00293  0.71693  Biso   1.000  C
  C196     1.0000 0.31329  0.03423  0.95059  Biso   1.000  C
  C197     1.0000 0.59240  0.02590  0.69550  Biso   1.000  C
  C198     1.0000 0.46412  0.97530  0.69446  Biso   1.000  C
  C199     1.0000 0.31597  0.99765  0.97341  Biso   1.000  C
  C200     1.0000 0.33709  0.06877  0.96965  Biso   1.000  C
  C201     1.0000 0.62230  0.02300  0.65280  Biso   1.000  C
  C202     1.0000 0.38511  0.94446  0.71212  Biso   1.000  C
  C203     1.0000 0.33976  0.99666  0.01342  Biso   1.000  C
  C204     1.0000 0.34610  0.10919  0.94921  Biso   1.000  C
  C205     1.0000 0.56280  0.99910  0.63270  Biso   1.000  C
  C206     1.0000 0.40401  0.91928  0.74630  Biso   1.000  C
  C207     1.0000 0.92854  0.98232  0.87720  Biso   1.000  C
  C208     1.0000 0.81413  0.07124  0.76170  Biso   1.000  C
  C209     1.0000 0.49760  0.08020  0.88560  Biso   1.000  C
  C210     1.0000 0.35331  0.03302  0.03076  Biso   1.000  C
  C211     1.0000 0.41149  0.11426  0.90996  Biso   1.000  C
  C212     1.0000 0.32542  0.89187  0.75769  Biso   1.000  C
  C213     1.0000 0.50646  0.92131  0.77077  Biso   1.000  C
  C214     1.0000 0.21881  0.91451  0.70287  Biso   1.000  C
  C215     1.0000 0.94495  0.95097  0.91093  Biso   1.000  C
  C216     1.0000 0.88619  0.09098  0.72624  Biso   1.000  C
  C217     1.0000 0.40796  0.15455  0.89413  Biso   1.000  C
  C218     1.0000 0.28410  0.17994  0.95726  Biso   1.000  C
  C219     1.0000 0.23117  0.88919  0.73627  Biso   1.000  C
  C220     1.0000 0.88903  0.91620  0.91474  Biso   1.000  C
  C221     1.0000 0.00940  0.95870  0.94130  Biso   1.000  C
  C222     1.0000 0.91740  0.12990  0.72890  Biso   1.000  C
  C223     1.0000 0.91640  0.06970  0.68870  Biso   1.000  C
  C224     1.0000 0.34217  0.18729  0.91757  Biso   1.000  C
  C225     1.0000 0.82635  0.89988  0.88322  Biso   1.000  C
  C226     1.0000 0.01550  0.93280  0.97500  Biso   1.000  C
  C227     1.0000 0.88020  0.15480  0.76700  Biso   1.000  C
  C228     1.0000 0.97280  0.08790  0.65410  Biso   1.000  C
  C229     1.0000 0.87164  0.89545  0.84167  Biso   1.000  C
  C230     1.0000 0.94650  0.90120  0.97880  Biso   1.000  C
  C231     1.0000 0.01130  0.10220  0.80860  Biso   1.000  C
  C232     1.0000 0.91490  0.14150  0.80370  Biso   1.000  C
  C233     1.0000 0.00140  0.12410  0.65970  Biso   1.000  C
  C234     1.0000 0.99036  0.90983  0.82165  Biso   1.000  C
  C235     1.0000 0.80655  0.87700  0.81710  Biso   1.000  C
  C236     1.0000 0.66016  0.86918  0.87570  Biso   1.000  C
  C237     1.0000 0.86070  0.16540  0.83960  Biso   1.000  C
  C238     1.0000 0.76770  0.21470  0.79730  Biso   1.000  C
  C239     1.0000 0.69802  0.86396  0.83480  Biso   1.000  C
  C240     1.0000 0.78030  0.20210  0.83650  Biso   1.000  C
  C241     1.0000 0.73756  0.48895  0.73733  Biso   1.000  C
  C242     1.0000 0.71621  0.46403  0.59135  Biso   1.000  C
  C243     1.0000 0.72983  0.49707  0.78307  Biso   1.000  C
  C244     1.0000 0.79811  0.46577  0.54941  Biso   1.000  C
  C245     1.0000 0.81380  0.47410  0.80450  Biso   1.000  C
  C246     1.0000 0.63388  0.52470  0.80554  Biso   1.000  C
  C247     1.0000 0.78703  0.50235  0.52659  Biso   1.000  C
  C248     1.0000 0.87551  0.43123  0.53035  Biso   1.000  C
  C249     1.0000 0.79810  0.47700  0.84720  Biso   1.000  C
  C250     1.0000 0.54169  0.55554  0.78788  Biso   1.000  C
  C251     1.0000 0.84984  0.50334  0.48658  Biso   1.000  C
  C252     1.0000 0.90450  0.39081  0.55079  Biso   1.000  C
  C253     1.0000 0.69460  0.50090  0.86730  Biso   1.000  C
  C254     1.0000 0.56959  0.58072  0.75370  Biso   1.000  C
  C255     1.0000 0.28806  0.51768  0.62280  Biso   1.000  C
  C256     1.0000 0.14707  0.42876  0.73830  Biso   1.000  C
  C257     1.0000 0.96340  0.41980  0.61440  Biso   1.000  C
  C258     1.0000 0.91709  0.46698  0.46924  Biso   1.000  C
  C259     1.0000 0.93571  0.38574  0.59004  Biso   1.000  C
  C260     1.0000 0.47498  0.60813  0.74231  Biso   1.000  C
  C261     1.0000 0.69854  0.57869  0.72923  Biso   1.000  C
  C262     1.0000 0.33619  0.58549  0.79713  Biso   1.000  C
  C263     1.0000 0.30685  0.54903  0.58907  Biso   1.000  C
  C264     1.0000 0.20341  0.40902  0.77376  Biso   1.000  C
  C265     1.0000 0.95664  0.34545  0.60587  Biso   1.000  C
  C266     1.0000 0.92130  0.32006  0.54274  Biso   1.000  C
  C267     1.0000 0.35663  0.61081  0.76373  Biso   1.000  C
  C268     1.0000 0.21997  0.58380  0.58526  Biso   1.000  C
  C269     1.0000 0.40940  0.54130  0.55870  Biso   1.000  C
  C270     1.0000 0.27620  0.37010  0.77110  Biso   1.000  C
  C271     1.0000 0.17480  0.43030  0.81130  Biso   1.000  C
  C272     1.0000 0.94703  0.31271  0.58243  Biso   1.000  C
  C273     1.0000 0.10945  0.60012  0.61678  Biso   1.000  C
  C274     1.0000 0.42330  0.56720  0.52500  Biso   1.000  C
  C275     1.0000 0.30200  0.34520  0.73300  Biso   1.000  C
  C276     1.0000 0.21480  0.41210  0.84590  Biso   1.000  C
  C277     1.0000 0.10876  0.60455  0.65833  Biso   1.000  C
  C278     1.0000 0.32650  0.59880  0.52120  Biso   1.000  C
  C279     1.0000 0.42210  0.39780  0.69140  Biso   1.000  C
  C280     1.0000 0.36010  0.35850  0.69630  Biso   1.000  C
  C281     1.0000 0.28520  0.37590  0.84030  Biso   1.000  C
  C282     1.0000 0.22184  0.59017  0.67835  Biso   1.000  C
  C283     1.0000 0.00065  0.62300  0.68290  Biso   1.000  C
  C284     1.0000 0.90504  0.63082  0.62430  Biso   1.000  C
  C285     1.0000 0.36570  0.33460  0.66040  Biso   1.000  C
  C286     1.0000 0.27970  0.28530  0.70270  Biso   1.000  C
  C287     1.0000 0.89678  0.63604  0.66520  Biso   1.000  C
  C288     1.0000 0.31890  0.29790  0.66350  Biso   1.000  C
  C289     1.0000 0.22651  0.23733  0.51105  Biso   1.000  C
  C290     1.0000 0.18024  0.09135  0.53597  Biso   1.000  C
  C291     1.0000 0.22690  0.28307  0.50293  Biso   1.000  C
  C292     1.0000 0.26388  0.04941  0.53423  Biso   1.000  C
  C293     1.0000 0.28790  0.30450  0.52590  Biso   1.000  C
  C294     1.0000 0.15858  0.30554  0.47530  Biso   1.000  C
  C295     1.0000 0.28938  0.02659  0.49765  Biso   1.000  C
  C296     1.0000 0.30674  0.03035  0.56877  Biso   1.000  C
  C297     1.0000 0.27510  0.34720  0.52300  Biso   1.000  C
  C298     1.0000 0.09723  0.28788  0.44446  Biso   1.000  C
  C299     1.0000 0.35318  0.98658  0.49666  Biso   1.000  C
  C300     1.0000 0.29531  0.05079  0.60919  Biso   1.000  C
  C301     1.0000 0.19550  0.36730  0.49910  Biso   1.000  C
  C302     1.0000 0.15031  0.25370  0.41928  Biso   1.000  C
  C303     1.0000 0.80574  0.12280  0.48232  Biso   1.000  C
  C304     1.0000 0.57583  0.23830  0.57124  Biso   1.000  C
  C305     1.0000 0.38320  0.11440  0.58020  Biso   1.000  C
  C306     1.0000 0.38407  0.96924  0.53302  Biso   1.000  C
  C307     1.0000 0.32145  0.09004  0.61426  Biso   1.000  C
  C308     1.0000 0.08311  0.24231  0.39187  Biso   1.000  C
  C309     1.0000 0.27723  0.22923  0.42131  Biso   1.000  C
  C310     1.0000 0.92168  0.29713  0.41451  Biso   1.000  C
  C311     1.0000 0.85588  0.08907  0.45097  Biso   1.000  C
  C312     1.0000 0.61243  0.27376  0.59098  Biso   1.000  C
  C313     1.0000 0.30209  0.10587  0.65455  Biso   1.000  C
  C314     1.0000 0.24136  0.04274  0.67994  Biso   1.000  C
  C315     1.0000 0.96744  0.26373  0.38919  Biso   1.000  C
  C316     1.0000 0.80377  0.08526  0.41620  Biso   1.000  C
  C317     1.0000 0.95070  0.05870  0.45870  Biso   1.000  C
  C318     1.0000 0.64630  0.27110  0.62990  Biso   1.000  C
  C319     1.0000 0.60510  0.31130  0.56970  Biso   1.000  C
  C320     1.0000 0.25974  0.08243  0.68729  Biso   1.000  C
  C321     1.0000 0.70957  0.11678  0.39988  Biso   1.000  C
  C322     1.0000 0.99050  0.02500  0.43280  Biso   1.000  C
  C323     1.0000 0.64720  0.23300  0.65480  Biso   1.000  C
  C324     1.0000 0.62690  0.34590  0.58790  Biso   1.000  C
  C325     1.0000 0.71331  0.15833  0.39545  Biso   1.000  C
  C326     1.0000 0.92530  0.02120  0.40120  Biso   1.000  C
  C327     1.0000 0.81990  0.19140  0.60220  Biso   1.000  C
  C328     1.0000 0.71860  0.19630  0.64150  Biso   1.000  C
  C329     1.0000 0.66110  0.34030  0.62410  Biso   1.000  C
  C330     1.0000 0.81201  0.17835  0.40983  Biso   1.000  C
  C331     1.0000 0.62365  0.18290  0.37700  Biso   1.000  C
  C332     1.0000 0.53586  0.12430  0.36918  Biso   1.000  C
  C333     1.0000 0.70030  0.16040  0.66540  Biso   1.000  C
  C334     1.0000 0.56500  0.20270  0.71470  Biso   1.000  C
  C335     1.0000 0.53282  0.16520  0.36396  Biso   1.000  C
  C336     1.0000 0.61680  0.16350  0.70210  Biso   1.000  C
  C337     1.0000 0.47489  0.26267  0.98895  Biso   1.000  C
  C338     1.0000 0.30756  0.40865  0.96403  Biso   1.000  C
  C339     1.0000 0.51290  0.21693  0.99707  Biso   1.000  C
  C340     1.0000 0.34752  0.45059  0.96577  Biso   1.000  C
  C341     1.0000 0.61830  0.19550  0.97410  Biso   1.000  C
  C342     1.0000 0.43942  0.19446  0.02470  Biso   1.000  C
  C343     1.0000 0.31362  0.47341  0.00235  Biso   1.000  C
  C344     1.0000 0.40586  0.46965  0.93123  Biso   1.000  C
  C345     1.0000 0.64530  0.15280  0.97700  Biso   1.000  C
  C346     1.0000 0.32957  0.21212  0.05554  Biso   1.000  C
  C347     1.0000 0.33642  0.51342  0.00334  Biso   1.000  C
  C348     1.0000 0.45529  0.44921  0.89081  Biso   1.000  C
  C349     1.0000 0.56190  0.13270  0.00090  Biso   1.000  C
  C350     1.0000 0.32329  0.24630  0.08072  Biso   1.000  C
  C351     1.0000 0.91086  0.37720  0.01768  Biso   1.000  C
  C352     1.0000 0.88537  0.26170  0.92876  Biso   1.000  C
  C353     1.0000 0.57780  0.38560  0.91980  Biso   1.000  C
  C354     1.0000 0.38633  0.53076  0.96698  Biso   1.000  C
  C355     1.0000 0.52575  0.40996  0.88574  Biso   1.000  C
  C356     1.0000 0.21729  0.25769  0.10813  Biso   1.000  C
  C357     1.0000 0.42777  0.27077  0.07869  Biso   1.000  C
  C358     1.0000 0.13332  0.20287  0.08549  Biso   1.000  C
  C359     1.0000 0.89592  0.41093  0.04903  Biso   1.000  C
  C360     1.0000 0.97717  0.22624  0.90902  Biso   1.000  C
  C361     1.0000 0.56251  0.39413  0.84545  Biso   1.000  C
  C362     1.0000 0.46404  0.45726  0.82006  Biso   1.000  C
  C363     1.0000 0.12036  0.23627  0.11081  Biso   1.000  C
  C364     1.0000 0.80523  0.41474  0.08380  Biso   1.000  C
  C365     1.0000 0.96810  0.44130  0.04130  Biso   1.000  C
  C366     1.0000 0.04730  0.22890  0.87010  Biso   1.000  C
  C367     1.0000 0.98610  0.18870  0.93030  Biso   1.000  C
  C368     1.0000 0.52946  0.41757  0.81271  Biso   1.000  C
  C369     1.0000 0.72623  0.38322  0.10012  Biso   1.000  C
  C370     1.0000 0.94830  0.47500  0.06720  Biso   1.000  C
  C371     1.0000 0.03500  0.26700  0.84520  Biso   1.000  C
  C372     1.0000 0.06070  0.15410  0.91210  Biso   1.000  C
  C373     1.0000 0.76709  0.34167  0.10455  Biso   1.000  C
  C374     1.0000 0.84770  0.47880  0.09880  Biso   1.000  C
  C375     1.0000 0.11350  0.30860  0.89780  Biso   1.000  C
  C376     1.0000 0.05640  0.30370  0.85850  Biso   1.000  C
  C377     1.0000 0.12550  0.15970  0.87590  Biso   1.000  C
  C378     1.0000 0.90019  0.32165  0.09017  Biso   1.000  C
  C379     1.0000 0.68355  0.31710  0.12300  Biso   1.000  C
  C380     1.0000 0.52934  0.37570  0.13082  Biso   1.000  C
  C381     1.0000 0.02610  0.33960  0.83460  Biso   1.000  C
  C382     1.0000 0.98240  0.29730  0.78530  Biso   1.000  C
  C383     1.0000 0.56198  0.33480  0.13604  Biso   1.000  C
  C384     1.0000 0.98240  0.33650  0.79790  Biso   1.000  C
  N1       1.0000 0.51406  0.02485  0.34743  Biso   1.000  N
  N2       1.0000 0.64847  0.93153  0.99033  Biso   1.000  N
  N3       1.0000 0.70553  0.05819  0.30935  Biso   1.000  N
  N4       1.0000 0.71377  0.85794  0.02732  Biso   1.000  N
  N5       1.0000 0.72171  0.88631  0.90027  Biso   1.000  N
  N6       1.0000 0.88425  0.89291  0.94939  Biso   1.000  N
  N7       1.0000 0.02090  0.85252  0.30488  Biso   1.000  N
  N8       1.0000 0.18630  0.80740  0.23680  Biso   1.000  N
  N9       1.0000 0.38634  0.47515  0.15257  Biso   1.000  N
  N10      1.0000 0.07033  0.56847  0.50967  Biso   1.000  N
  N11      1.0000 0.57307  0.44181  0.19065  Biso   1.000  N
  N12      1.0000 0.09903  0.64206  0.47268  Biso   1.000  N
  N13      1.0000 0.00829  0.61369  0.59973  Biso   1.000  N
  N14      1.0000 0.22655  0.60709  0.55061  Biso   1.000  N
  N15      1.0000 0.67830  0.64748  0.19512  Biso   1.000  N
  N16      1.0000 0.73050  0.69260  0.26320  Biso   1.000  N
  N17      1.0000 0.86149  0.65257  0.52485  Biso   1.000  N
  N18      1.0000 0.63880  0.00967  0.43153  Biso   1.000  N
  N19      1.0000 0.01488  0.69065  0.55819  Biso   1.000  N
  N20      1.0000 0.74109  0.97268  0.35794  Biso   1.000  N
  N21      1.0000 0.62198  0.09973  0.38631  Biso   1.000  N
  N22      1.0000 0.83364  0.05061  0.39291  Biso   1.000  N
  N23      1.0000 0.32578  0.69512  0.35252  Biso   1.000  N
  N24      1.0000 0.42310  0.76320  0.30740  Biso   1.000  N
  N25      1.0000 0.53891  0.84743  0.97515  Biso   1.000  N
  N26      1.0000 0.58000  0.49033  0.06847  Biso   1.000  N
  N27      1.0000 0.76372  0.80935  0.94181  Biso   1.000  N
  N28      1.0000 0.57171  0.52732  0.14206  Biso   1.000  N
  N29      1.0000 0.60802  0.40027  0.11369  Biso   1.000  N
  N30      1.0000 0.77716  0.44939  0.10709  Biso   1.000  N
  N31      1.0000 0.87342  0.80488  0.14748  Biso   1.000  N
  N32      1.0000 0.99370  0.73680  0.19260  Biso   1.000  N
  N33      1.0000 0.48594  0.97515  0.65257  Biso   1.000  N
  N34      1.0000 0.35153  0.06847  0.00967  Biso   1.000  N
  N35      1.0000 0.29447  0.94181  0.69065  Biso   1.000  N
  N36      1.0000 0.28623  0.14206  0.97268  Biso   1.000  N
  N37      1.0000 0.27829  0.11369  0.09973  Biso   1.000  N
  N38      1.0000 0.11575  0.10709  0.05061  Biso   1.000  N
  N39      1.0000 0.97910  0.14748  0.69512  Biso   1.000  N
  N40      1.0000 0.81370  0.19260  0.76320  Biso   1.000  N
  N41      1.0000 0.61366  0.52485  0.84743  Biso   1.000  N
  N42      1.0000 0.92967  0.43153  0.49033  Biso   1.000  N
  N43      1.0000 0.42693  0.55819  0.80935  Biso   1.000  N
  N44      1.0000 0.90097  0.35794  0.52732  Biso   1.000  N
  N45      1.0000 0.99171  0.38631  0.40027  Biso   1.000  N
  N46      1.0000 0.77345  0.39291  0.44939  Biso   1.000  N
  N47      1.0000 0.32170  0.35252  0.80488  Biso   1.000  N
  N48      1.0000 0.26950  0.30740  0.73680  Biso   1.000  N
  N49      1.0000 0.13851  0.34743  0.47515  Biso   1.000  N
  N50      1.0000 0.36120  0.99033  0.56847  Biso   1.000  N
  N51      1.0000 0.98512  0.30935  0.44181  Biso   1.000  N
  N52      1.0000 0.25891  0.02732  0.64206  Biso   1.000  N
  N53      1.0000 0.37802  0.90027  0.61369  Biso   1.000  N
  N54      1.0000 0.16636  0.94939  0.60709  Biso   1.000  N
  N55      1.0000 0.67422  0.30488  0.64748  Biso   1.000  N
  N56      1.0000 0.57690  0.23680  0.69260  Biso   1.000  N
  N57      1.0000 0.46109  0.15257  0.02485  Biso   1.000  N
  N58      1.0000 0.42000  0.50967  0.93153  Biso   1.000  N
  N59      1.0000 0.23628  0.19065  0.05819  Biso   1.000  N
  N60      1.0000 0.42829  0.47268  0.85794  Biso   1.000  N
  N61      1.0000 0.39198  0.59973  0.88631  Biso   1.000  N
  N62      1.0000 0.22284  0.55061  0.89291  Biso   1.000  N
  N63      1.0000 0.12658  0.19512  0.85252  Biso   1.000  N
  N64      1.0000 0.00630  0.26320  0.80740  Biso   1.000  N
  O1       1.0000 0.69839  0.91346  0.18376  Biso   1.000  O
  O2       1.0000 0.76009  0.04645  0.16097  Biso   1.000  O
  O3       1.0000 0.90448  0.00070  0.22554  Biso   1.000  O
  O4       1.0000 0.64547  0.99309  0.22497  Biso   1.000  O
  O5       1.0000 0.66324  0.98575  0.12057  Biso   1.000  O
  O6       1.0000 0.83072  0.94309  0.09407  Biso   1.000  O
  O7       1.0000 0.98874  0.99578  0.13234  Biso   1.000  O
  O8       1.0000 0.99396  0.91234  0.15654  Biso   1.000  O
  O9       1.0000 0.90624  0.91063  0.22109  Biso   1.000  O
  O10      1.0000 0.46469  0.97737  0.21685  Biso   1.000  O
  O11      1.0000 0.16923  0.01424  0.13730  Biso   1.000  O
  O12      1.0000 0.13188  0.96023  0.22161  Biso   1.000  O
  O13      1.0000 0.29521  0.91460  0.22638  Biso   1.000  O
  O14      1.0000 0.23950  0.03259  0.22081  Biso   1.000  O
  O15      1.0000 0.43333  0.02806  0.14028  Biso   1.000  O
  O16      1.0000 0.22772  0.92204  0.13752  Biso   1.000  O
  O17      1.0000 0.44479  0.94878  0.09664  Biso   1.000  O
  O18      1.0000 0.48597  0.91617  0.15369  Biso   1.000  O
  O19      1.0000 0.38712  0.07846  0.24930  Biso   1.000  O
  O20      1.0000 0.52325  0.07715  0.19095  Biso   1.000  O
  O21      1.0000 0.01324  0.07047  0.21145  Biso   1.000  O
  O22      1.0000 0.91805  0.09930  0.16080  Biso   1.000  O
  O23      1.0000 0.29561  0.58654  0.31624  Biso   1.000  O
  O24      1.0000 0.46751  0.45355  0.33903  Biso   1.000  O
  O25      1.0000 0.63072  0.49930  0.27446  Biso   1.000  O
  O26      1.0000 0.36353  0.50691  0.27503  Biso   1.000  O
  O27      1.0000 0.26956  0.51425  0.37943  Biso   1.000  O
  O28      1.0000 0.36788  0.55691  0.40593  Biso   1.000  O
  O29      1.0000 0.61686  0.50422  0.36766  Biso   1.000  O
  O30      1.0000 0.56284  0.58766  0.34346  Biso   1.000  O
  O31      1.0000 0.53796  0.58937  0.27891  Biso   1.000  O
  O32      1.0000 0.15891  0.52263  0.28315  Biso   1.000  O
  O33      1.0000 0.82077  0.48576  0.36270  Biso   1.000  O
  O34      1.0000 0.81372  0.53977  0.27839  Biso   1.000  O
  O35      1.0000 0.93619  0.58540  0.27362  Biso   1.000  O
  O36      1.0000 0.99290  0.46741  0.27919  Biso   1.000  O
  O37      1.0000 0.10167  0.47194  0.35972  Biso   1.000  O
  O38      1.0000 0.78728  0.57796  0.36248  Biso   1.000  O
  O39      1.0000 0.99021  0.55122  0.40336  Biso   1.000  O
  O40      1.0000 0.05583  0.58383  0.34631  Biso   1.000  O
  O41      1.0000 0.21488  0.42154  0.25070  Biso   1.000  O
  O42      1.0000 0.29135  0.42285  0.30905  Biso   1.000  O
  O43      1.0000 0.79516  0.42953  0.28855  Biso   1.000  O
  O44      1.0000 0.67815  0.40070  0.33920  Biso   1.000  O
  O45      1.0000 0.88215  0.81624  0.41346  Biso   1.000  O
  O46      1.0000 0.92106  0.83903  0.54645  Biso   1.000  O
  O47      1.0000 0.13002  0.77446  0.50070  Biso   1.000  O
  O48      1.0000 0.87044  0.77503  0.49309  Biso   1.000  O
  O49      1.0000 0.78381  0.87943  0.48575  Biso   1.000  O
  O50      1.0000 0.92479  0.90593  0.44309  Biso   1.000  O
  O51      1.0000 0.12108  0.86766  0.49578  Biso   1.000  O
  O52      1.0000 0.15050  0.84346  0.41234  Biso   1.000  O
  O53      1.0000 0.12733  0.77891  0.41063  Biso   1.000  O
  O54      1.0000 0.68154  0.78315  0.47737  Biso   1.000  O
  O55      1.0000 0.30653  0.86270  0.51424  Biso   1.000  O
  O56      1.0000 0.35349  0.77839  0.46023  Biso   1.000  O
  O57      1.0000 0.52159  0.77362  0.41460  Biso   1.000  O
  O58      1.0000 0.46031  0.77919  0.53259  Biso   1.000  O
  O59      1.0000 0.57361  0.85972  0.52806  Biso   1.000  O
  O60      1.0000 0.36524  0.86248  0.42204  Biso   1.000  O
  O61      1.0000 0.54143  0.90336  0.44878  Biso   1.000  O
  O62      1.0000 0.63966  0.84631  0.41617  Biso   1.000  O
  O63      1.0000 0.63642  0.75070  0.57846  Biso   1.000  O
  O64      1.0000 0.71420  0.80905  0.57715  Biso   1.000  O
  O65      1.0000 0.22469  0.78855  0.57047  Biso   1.000  O
  O66      1.0000 0.07885  0.83920  0.59930  Biso   1.000  O
  O67      1.0000 0.61185  0.68376  0.08654  Biso   1.000  O
  O68      1.0000 0.80654  0.66097  0.95355  Biso   1.000  O
  O69      1.0000 0.90518  0.72554  0.99930  Biso   1.000  O
  O70      1.0000 0.63856  0.72497  0.00691  Biso   1.000  O
  O71      1.0000 0.64899  0.62057  0.01425  Biso   1.000  O
  O72      1.0000 0.77381  0.59407  0.05691  Biso   1.000  O
  O73      1.0000 0.98452  0.63234  0.00422  Biso   1.000  O
  O74      1.0000 0.90630  0.65654  0.08766  Biso   1.000  O
  O75      1.0000 0.81687  0.72109  0.08937  Biso   1.000  O
  O76      1.0000 0.44206  0.71685  0.02263  Biso   1.000  O
  O77      1.0000 0.18347  0.63730  0.98576  Biso   1.000  O
  O78      1.0000 0.09211  0.72161  0.03977  Biso   1.000  O
  O79      1.0000 0.20981  0.72638  0.08540  Biso   1.000  O
  O80      1.0000 0.27209  0.72081  0.96741  Biso   1.000  O
  O81      1.0000 0.46139  0.64028  0.97194  Biso   1.000  O
  O82      1.0000 0.14976  0.63752  0.07796  Biso   1.000  O
  O83      1.0000 0.39357  0.59664  0.05122  Biso   1.000  O
  O84      1.0000 0.40214  0.65369  0.08383  Biso   1.000  O
  O85      1.0000 0.46558  0.74930  0.92154  Biso   1.000  O
  O86      1.0000 0.60040  0.69095  0.92285  Biso   1.000  O
  O87      1.0000 0.08371  0.71145  0.92953  Biso   1.000  O
  O88      1.0000 0.01735  0.66080  0.90070  Biso   1.000  O
  O89      1.0000 0.30161  0.08654  0.81624  Biso   1.000  O
  O90      1.0000 0.23991  0.95355  0.83903  Biso   1.000  O
  O91      1.0000 0.09552  0.99930  0.77446  Biso   1.000  O
  O92      1.0000 0.35453  0.00691  0.77503  Biso   1.000  O
  O93      1.0000 0.33676  0.01425  0.87943  Biso   1.000  O
  O94      1.0000 0.16928  0.05691  0.90593  Biso   1.000  O
  O95      1.0000 0.01126  0.00422  0.86766  Biso   1.000  O
  O96      1.0000 0.00604  0.08766  0.84346  Biso   1.000  O
  O97      1.0000 0.09376  0.08937  0.77891  Biso   1.000  O
  O98      1.0000 0.53531  0.02263  0.78315  Biso   1.000  O
  O99      1.0000 0.83077  0.98576  0.86270  Biso   1.000  O
  O100     1.0000 0.86812  0.03977  0.77839  Biso   1.000  O
  O101     1.0000 0.70479  0.08540  0.77362  Biso   1.000  O
  O102     1.0000 0.76050  0.96741  0.77919  Biso   1.000  O
  O103     1.0000 0.56667  0.97194  0.85972  Biso   1.000  O
  O104     1.0000 0.77228  0.07796  0.86248  Biso   1.000  O
  O105     1.0000 0.55521  0.05122  0.90336  Biso   1.000  O
  O106     1.0000 0.51403  0.08383  0.84631  Biso   1.000  O
  O107     1.0000 0.61288  0.92154  0.75070  Biso   1.000  O
  O108     1.0000 0.47675  0.92285  0.80905  Biso   1.000  O
  O109     1.0000 0.98676  0.92953  0.78855  Biso   1.000  O
  O110     1.0000 0.08195  0.90070  0.83920  Biso   1.000  O
  O111     1.0000 0.70439  0.41346  0.68376  Biso   1.000  O
  O112     1.0000 0.53249  0.54645  0.66097  Biso   1.000  O
  O113     1.0000 0.36928  0.50070  0.72554  Biso   1.000  O
  O114     1.0000 0.63647  0.49309  0.72497  Biso   1.000  O
  O115     1.0000 0.73044  0.48575  0.62057  Biso   1.000  O
  O116     1.0000 0.63212  0.44309  0.59407  Biso   1.000  O
  O117     1.0000 0.38314  0.49578  0.63234  Biso   1.000  O
  O118     1.0000 0.43716  0.41234  0.65654  Biso   1.000  O
  O119     1.0000 0.46204  0.41063  0.72109  Biso   1.000  O
  O120     1.0000 0.84109  0.47737  0.71685  Biso   1.000  O
  O121     1.0000 0.17923  0.51424  0.63730  Biso   1.000  O
  O122     1.0000 0.18628  0.46023  0.72161  Biso   1.000  O
  O123     1.0000 0.06381  0.41460  0.72638  Biso   1.000  O
  O124     1.0000 0.00710  0.53259  0.72081  Biso   1.000  O
  O125     1.0000 0.89833  0.52806  0.64028  Biso   1.000  O
  O126     1.0000 0.21272  0.42204  0.63752  Biso   1.000  O
  O127     1.0000 0.00979  0.44878  0.59664  Biso   1.000  O
  O128     1.0000 0.94417  0.41617  0.65369  Biso   1.000  O
  O129     1.0000 0.78512  0.57846  0.74930  Biso   1.000  O
  O130     1.0000 0.70865  0.57715  0.69095  Biso   1.000  O
  O131     1.0000 0.20484  0.57047  0.71145  Biso   1.000  O
  O132     1.0000 0.32185  0.59930  0.66080  Biso   1.000  O
  O133     1.0000 0.11785  0.18376  0.58654  Biso   1.000  O
  O134     1.0000 0.07894  0.16097  0.45355  Biso   1.000  O
  O135     1.0000 0.86998  0.22554  0.49930  Biso   1.000  O
  O136     1.0000 0.12956  0.22497  0.50691  Biso   1.000  O
  O137     1.0000 0.21619  0.12057  0.51425  Biso   1.000  O
  O138     1.0000 0.07521  0.09407  0.55691  Biso   1.000  O
  O139     1.0000 0.87892  0.13234  0.50422  Biso   1.000  O
  O140     1.0000 0.84950  0.15654  0.58766  Biso   1.000  O
  O141     1.0000 0.87267  0.22109  0.58937  Biso   1.000  O
  O142     1.0000 0.31846  0.21685  0.52263  Biso   1.000  O
  O143     1.0000 0.69347  0.13730  0.48576  Biso   1.000  O
  O144     1.0000 0.64651  0.22161  0.53977  Biso   1.000  O
  O145     1.0000 0.47841  0.22638  0.58540  Biso   1.000  O
  O146     1.0000 0.53969  0.22081  0.46741  Biso   1.000  O
  O147     1.0000 0.42639  0.14028  0.47194  Biso   1.000  O
  O148     1.0000 0.63476  0.13752  0.57796  Biso   1.000  O
  O149     1.0000 0.45857  0.09664  0.55122  Biso   1.000  O
  O150     1.0000 0.36034  0.15369  0.58383  Biso   1.000  O
  O151     1.0000 0.36358  0.24930  0.42154  Biso   1.000  O
  O152     1.0000 0.28580  0.19095  0.42285  Biso   1.000  O
  O153     1.0000 0.77531  0.21145  0.42953  Biso   1.000  O
  O154     1.0000 0.92115  0.16080  0.40070  Biso   1.000  O
  O155     1.0000 0.38815  0.31624  0.91346  Biso   1.000  O
  O156     1.0000 0.19346  0.33903  0.04645  Biso   1.000  O
  O157     1.0000 0.09482  0.27446  0.00070  Biso   1.000  O
  O158     1.0000 0.36144  0.27503  0.99309  Biso   1.000  O
  O159     1.0000 0.35101  0.37943  0.98575  Biso   1.000  O
  O160     1.0000 0.22619  0.40593  0.94309  Biso   1.000  O
  O161     1.0000 0.01548  0.36766  0.99578  Biso   1.000  O
  O162     1.0000 0.09370  0.34346  0.91234  Biso   1.000  O
  O163     1.0000 0.18313  0.27891  0.91063  Biso   1.000  O
  O164     1.0000 0.55794  0.28315  0.97737  Biso   1.000  O
  O165     1.0000 0.81653  0.36270  0.01424  Biso   1.000  O
  O166     1.0000 0.90789  0.27839  0.96023  Biso   1.000  O
  O167     1.0000 0.79019  0.27362  0.91460  Biso   1.000  O
  O168     1.0000 0.72791  0.27919  0.03259  Biso   1.000  O
  O169     1.0000 0.53861  0.35972  0.02806  Biso   1.000  O
  O170     1.0000 0.85024  0.36248  0.92204  Biso   1.000  O
  O171     1.0000 0.60643  0.40336  0.94878  Biso   1.000  O
  O172     1.0000 0.59786  0.34631  0.91617  Biso   1.000  O
  O173     1.0000 0.53442  0.25070  0.07846  Biso   1.000  O
  O174     1.0000 0.39960  0.30905  0.07715  Biso   1.000  O
  O175     1.0000 0.91629  0.28855  0.07047  Biso   1.000  O
  O176     1.0000 0.98265  0.33920  0.09930  Biso   1.000  O
