data_image0
_cell_length_a       11.1834
_cell_length_b       32.9829
_cell_length_c       32.9829
_cell_angle_alpha    88.353
_cell_angle_beta     80.2393
_cell_angle_gamma    80.2393

_symmetry_space_group_name_H-M    P 1
_symmetry_int_tables_number       1

loop_
  _symmetry_equiv_pos_as_xyz
  'x, y, z'

loop_
  _atom_site_label
  _atom_site_occupancy
  _atom_site_fract_x
  _atom_site_fract_y
  _atom_site_fract_z
  _atom_site_thermal_displace_type
  _atom_site_B_iso_or_equiv
  _atom_site_type_symbol
  Sm1      1.0000 0.31814  0.97477  0.17363  Biso   1.000  Sm
  Sm2      1.0000 0.81794  0.97200  0.17079  Biso   1.000  Sm
  Sm3      1.0000 0.96654  0.52523  0.32637  Biso   1.000  Sm
  Sm4      1.0000 0.46073  0.52800  0.32920  Biso   1.000  Sm
  Sm5      1.0000 0.49177  0.82637  0.47477  Biso   1.000  Sm
  Sm6      1.0000 0.98872  0.82921  0.47201  Biso   1.000  Sm
  Sm7      1.0000 0.29291  0.67363  0.02523  Biso   1.000  Sm
  Sm8      1.0000 0.78994  0.67079  0.02800  Biso   1.000  Sm
  Sm9      1.0000 0.68186  0.02523  0.82637  Biso   1.000  Sm
  Sm10     1.0000 0.18207  0.02800  0.82920  Biso   1.000  Sm
  Sm11     1.0000 0.03346  0.47477  0.67363  Biso   1.000  Sm
  Sm12     1.0000 0.53928  0.47200  0.67079  Biso   1.000  Sm
  Sm13     1.0000 0.50823  0.17363  0.52523  Biso   1.000  Sm
  Sm14     1.0000 0.01128  0.17079  0.52799  Biso   1.000  Sm
  Sm15     1.0000 0.70709  0.32637  0.97477  Biso   1.000  Sm
  Sm16     1.0000 0.21006  0.32921  0.97201  Biso   1.000  Sm
  Co1      1.0000 0.71162  0.87094  0.96391  Biso   1.000  Co
  Co2      1.0000 0.04646  0.62906  0.53610  Biso   1.000  Co
  Co3      1.0000 0.67553  0.03609  0.37094  Biso   1.000  Co
  Co4      1.0000 0.58256  0.46391  0.12905  Biso   1.000  Co
  Co5      1.0000 0.28838  0.12906  0.03610  Biso   1.000  Co
  Co6      1.0000 0.95354  0.37094  0.46391  Biso   1.000  Co
  Co7      1.0000 0.32448  0.96391  0.62905  Biso   1.000  Co
  Co8      1.0000 0.41744  0.53609  0.87095  Biso   1.000  Co
  H1       1.0000 0.63200  0.91450  0.17550  Biso   1.000  H
  H2       1.0000 0.16820  0.12710  0.20950  Biso   1.000  H
  H3       1.0000 0.35040  0.14840  0.18000  Biso   1.000  H
  H4       1.0000 0.41670  0.13940  0.11100  Biso   1.000  H
  H5       1.0000 0.05400  0.11430  0.99870  Biso   1.000  H
  H6       1.0000 0.93670  0.06310  0.00630  Biso   1.000  H
  H7       1.0000 0.94670  0.01940  0.06300  Biso   1.000  H
  H8       1.0000 0.69810  0.02620  0.03780  Biso   1.000  H
  H9       1.0000 0.65570  0.02710  0.97190  Biso   1.000  H
  H10      1.0000 0.63460  0.96730  0.94270  Biso   1.000  H
  H11      1.0000 0.75740  0.79870  0.02790  Biso   1.000  H
  H12      1.0000 0.65960  0.78800  0.09380  Biso   1.000  H
  H13      1.0000 0.54890  0.84310  0.13170  Biso   1.000  H
  H14      1.0000 0.11450  0.84610  0.13750  Biso   1.000  H
  H15      1.0000 0.25950  0.78630  0.14170  Biso   1.000  H
  H16      1.0000 0.28020  0.76350  0.20810  Biso   1.000  H
  H17      1.0000 0.96010  0.86630  0.36470  Biso   1.000  H
  H18      1.0000 0.01570  0.92730  0.37170  Biso   1.000  H
  H19      1.0000 0.10670  0.95840  0.31360  Biso   1.000  H
  H20      1.0000 0.37520  0.95560  0.28940  Biso   1.000  H
  H21      1.0000 0.32230  0.96130  0.35970  Biso   1.000  H
  H22      1.0000 0.42460  0.99910  0.39450  Biso   1.000  H
  H23      1.0000 0.84510  0.08640  0.31220  Biso   1.000  H
  H24      1.0000 0.82530  0.12840  0.25700  Biso   1.000  H
  H25      1.0000 0.66770  0.12500  0.22080  Biso   1.000  H
  H26      1.0000 0.44930  0.04310  0.15890  Biso   1.000  H
  H27      1.0000 0.39570  0.04150  0.12350  Biso   1.000  H
  H28      1.0000 0.25530  0.89860  0.14660  Biso   1.000  H
  H29      1.0000 0.24060  0.92630  0.11270  Biso   1.000  H
  H30      1.0000 0.17600  0.04760  0.21240  Biso   1.000  H
  H31      1.0000 0.29900  0.04980  0.21680  Biso   1.000  H
  H32      1.0000 0.81630  0.05900  0.16860  Biso   1.000  H
  H33      1.0000 0.68950  0.05540  0.17600  Biso   1.000  H
  H34      1.0000 0.90750  0.02880  0.22060  Biso   1.000  H
  H35      1.0000 0.98210  0.98900  0.22600  Biso   1.000  H
  H36      1.0000 0.71310  0.90180  0.20340  Biso   1.000  H
  H37      1.0000 0.22200  0.58550  0.32450  Biso   1.000  H
  H38      1.0000 0.00480  0.37290  0.29050  Biso   1.000  H
  H39      1.0000 0.17880  0.35160  0.32000  Biso   1.000  H
  H40      1.0000 0.16710  0.36060  0.38900  Biso   1.000  H
  H41      1.0000 0.66700  0.38570  0.50130  Biso   1.000  H
  H42      1.0000 0.50610  0.43690  0.49370  Biso   1.000  H
  H43      1.0000 0.52910  0.48060  0.43700  Biso   1.000  H
  H44      1.0000 0.26210  0.47380  0.46220  Biso   1.000  H
  H45      1.0000 0.15470  0.47290  0.52810  Biso   1.000  H
  H46      1.0000 0.04460  0.53270  0.55730  Biso   1.000  H
  H47      1.0000 0.08400  0.70130  0.47210  Biso   1.000  H
  H48      1.0000 0.04140  0.71200  0.40620  Biso   1.000  H
  H49      1.0000 0.02370  0.65690  0.36830  Biso   1.000  H
  H50      1.0000 0.59810  0.65390  0.36250  Biso   1.000  H
  H51      1.0000 0.68750  0.71370  0.35830  Biso   1.000  H
  H52      1.0000 0.75180  0.73650  0.29190  Biso   1.000  H
  H53      1.0000 0.69110  0.63370  0.13530  Biso   1.000  H
  H54      1.0000 0.81470  0.57270  0.12830  Biso   1.000  H
  H55      1.0000 0.87870  0.54160  0.18640  Biso   1.000  H
  H56      1.0000 0.12020  0.54440  0.21060  Biso   1.000  H
  H57      1.0000 0.14330  0.53870  0.14030  Biso   1.000  H
  H58      1.0000 0.31820  0.50090  0.10550  Biso   1.000  H
  H59      1.0000 0.74370  0.41360  0.18780  Biso   1.000  H
  H60      1.0000 0.71070  0.37160  0.24300  Biso   1.000  H
  H61      1.0000 0.51350  0.37500  0.27920  Biso   1.000  H
  H62      1.0000 0.15130  0.45690  0.34110  Biso   1.000  H
  H63      1.0000 0.06070  0.45850  0.37650  Biso   1.000  H
  H64      1.0000 0.80050  0.60140  0.35340  Biso   1.000  H
  H65      1.0000 0.77960  0.57370  0.38730  Biso   1.000  H
  H66      1.0000 0.93600  0.45240  0.28760  Biso   1.000  H
  H67      1.0000 0.06560  0.45020  0.28320  Biso   1.000  H
  H68      1.0000 0.54390  0.44100  0.33140  Biso   1.000  H
  H69      1.0000 0.42090  0.44460  0.32400  Biso   1.000  H
  H70      1.0000 0.65690  0.47120  0.27940  Biso   1.000  H
  H71      1.0000 0.69710  0.51100  0.27400  Biso   1.000  H
  H72      1.0000 0.31830  0.59820  0.29660  Biso   1.000  H
  H73      1.0000 0.80750  0.82450  0.41450  Biso   1.000  H
  H74      1.0000 0.37770  0.79050  0.62710  Biso   1.000  H
  H75      1.0000 0.53040  0.82000  0.64840  Biso   1.000  H
  H76      1.0000 0.52770  0.88900  0.63940  Biso   1.000  H
  H77      1.0000 0.05270  0.00130  0.61430  Biso   1.000  H
  H78      1.0000 0.94300  0.99370  0.56310  Biso   1.000  H
  H79      1.0000 0.00970  0.93700  0.51940  Biso   1.000  H
  H80      1.0000 0.73590  0.96220  0.52620  Biso   1.000  H
  H81      1.0000 0.62760  0.02810  0.52710  Biso   1.000  H
  H82      1.0000 0.57730  0.05730  0.46730  Biso   1.000  H
  H83      1.0000 0.78530  0.97210  0.29870  Biso   1.000  H
  H84      1.0000 0.75340  0.90620  0.28800  Biso   1.000  H
  H85      1.0000 0.68060  0.86830  0.34310  Biso   1.000  H
  H86      1.0000 0.25200  0.86250  0.34610  Biso   1.000  H
  H87      1.0000 0.40120  0.85830  0.28630  Biso   1.000  H
  H88      1.0000 0.48830  0.79190  0.26350  Biso   1.000  H
  H89      1.0000 0.32480  0.63530  0.36630  Biso   1.000  H
  H90      1.0000 0.38740  0.62830  0.42730  Biso   1.000  H
  H91      1.0000 0.42030  0.68640  0.45840  Biso   1.000  H
  H92      1.0000 0.66460  0.71060  0.45560  Biso   1.000  H
  H93      1.0000 0.68200  0.64030  0.46130  Biso   1.000  H
  H94      1.0000 0.81910  0.60550  0.49910  Biso   1.000  H
  H95      1.0000 0.15730  0.68780  0.58640  Biso   1.000  H
  H96      1.0000 0.08230  0.74300  0.62840  Biso   1.000  H
  H97      1.0000 0.88850  0.77920  0.62500  Biso   1.000  H
  H98      1.0000 0.60820  0.84110  0.54310  Biso   1.000  H
  H99      1.0000 0.51920  0.87650  0.54150  Biso   1.000  H
  H100     1.0000 0.40190  0.85340  0.39860  Biso   1.000  H
  H101     1.0000 0.35330  0.88730  0.42630  Biso   1.000  H
  H102     1.0000 0.38840  0.78760  0.54760  Biso   1.000  H
  H103     1.0000 0.51580  0.78320  0.54980  Biso   1.000  H
  H104     1.0000 0.98490  0.83140  0.55900  Biso   1.000  H
  H105     1.0000 0.86550  0.82400  0.55540  Biso   1.000  H
  H106     1.0000 0.12810  0.77940  0.52880  Biso   1.000  H
  H107     1.0000 0.20810  0.77400  0.48900  Biso   1.000  H
  H108     1.0000 0.91650  0.79660  0.40180  Biso   1.000  H
  H109     1.0000 0.54650  0.67550  0.08550  Biso   1.000  H
  H110     1.0000 0.29530  0.70950  0.87290  Biso   1.000  H
  H111     1.0000 0.49880  0.68000  0.85160  Biso   1.000  H
  H112     1.0000 0.55610  0.61100  0.86060  Biso   1.000  H
  H113     1.0000 0.16830  0.49870  0.88570  Biso   1.000  H
  H114     1.0000 0.99980  0.50630  0.93690  Biso   1.000  H
  H115     1.0000 0.96610  0.56300  0.98060  Biso   1.000  H
  H116     1.0000 0.72430  0.53780  0.97380  Biso   1.000  H
  H117     1.0000 0.68280  0.47190  0.97290  Biso   1.000  H
  H118     1.0000 0.60190  0.44270  0.03270  Biso   1.000  H
  H119     1.0000 0.55610  0.52790  0.20130  Biso   1.000  H
  H120     1.0000 0.44760  0.59380  0.21200  Biso   1.000  H
  H121     1.0000 0.39200  0.63170  0.15690  Biso   1.000  H
  H122     1.0000 0.96060  0.63750  0.15390  Biso   1.000  H
  H123     1.0000 0.04580  0.64170  0.21370  Biso   1.000  H
  H124     1.0000 0.04370  0.70810  0.23650  Biso   1.000  H
  H125     1.0000 0.82640  0.86470  0.13370  Biso   1.000  H
  H126     1.0000 0.94300  0.87170  0.07270  Biso   1.000  H
  H127     1.0000 0.06510  0.81360  0.04160  Biso   1.000  H
  H128     1.0000 0.33080  0.78940  0.04440  Biso   1.000  H
  H129     1.0000 0.28360  0.85970  0.03870  Biso   1.000  H
  H130     1.0000 0.42370  0.89450  0.00090  Biso   1.000  H
  H131     1.0000 0.93150  0.81220  0.91360  Biso   1.000  H
  H132     1.0000 0.95370  0.75700  0.87160  Biso   1.000  H
  H133     1.0000 0.79270  0.72080  0.87500  Biso   1.000  H
  H134     1.0000 0.49240  0.65890  0.95690  Biso   1.000  H
  H135     1.0000 0.43720  0.62350  0.95850  Biso   1.000  H
  H136     1.0000 0.15390  0.64660  0.10140  Biso   1.000  H
  H137     1.0000 0.16690  0.61270  0.07370  Biso   1.000  H
  H138     1.0000 0.22360  0.71240  0.95240  Biso   1.000  H
  H139     1.0000 0.34880  0.71680  0.95020  Biso   1.000  H
  H140     1.0000 0.87530  0.66860  0.94100  Biso   1.000  H
  H141     1.0000 0.74490  0.67600  0.94460  Biso   1.000  H
  H142     1.0000 0.93630  0.72060  0.97120  Biso   1.000  H
  H143     1.0000 0.97110  0.72600  0.01100  Biso   1.000  H
  H144     1.0000 0.61490  0.70340  0.09820  Biso   1.000  H
  H145     1.0000 0.36800  0.08550  0.82450  Biso   1.000  H
  H146     1.0000 0.83180  0.87290  0.79050  Biso   1.000  H
  H147     1.0000 0.64960  0.85160  0.82000  Biso   1.000  H
  H148     1.0000 0.58330  0.86060  0.88900  Biso   1.000  H
  H149     1.0000 0.94600  0.88570  0.00130  Biso   1.000  H
  H150     1.0000 0.06330  0.93690  0.99370  Biso   1.000  H
  H151     1.0000 0.05330  0.98060  0.93700  Biso   1.000  H
  H152     1.0000 0.30190  0.97380  0.96220  Biso   1.000  H
  H153     1.0000 0.34430  0.97290  0.02810  Biso   1.000  H
  H154     1.0000 0.36540  0.03270  0.05730  Biso   1.000  H
  H155     1.0000 0.24260  0.20130  0.97210  Biso   1.000  H
  H156     1.0000 0.34040  0.21200  0.90620  Biso   1.000  H
  H157     1.0000 0.45110  0.15690  0.86830  Biso   1.000  H
  H158     1.0000 0.88550  0.15390  0.86250  Biso   1.000  H
  H159     1.0000 0.74050  0.21370  0.85830  Biso   1.000  H
  H160     1.0000 0.71980  0.23650  0.79190  Biso   1.000  H
  H161     1.0000 0.03990  0.13370  0.63530  Biso   1.000  H
  H162     1.0000 0.98430  0.07270  0.62830  Biso   1.000  H
  H163     1.0000 0.89330  0.04160  0.68640  Biso   1.000  H
  H164     1.0000 0.62480  0.04440  0.71060  Biso   1.000  H
  H165     1.0000 0.67770  0.03870  0.64030  Biso   1.000  H
  H166     1.0000 0.57540  0.00090  0.60550  Biso   1.000  H
  H167     1.0000 0.15490  0.91360  0.68780  Biso   1.000  H
  H168     1.0000 0.17470  0.87160  0.74300  Biso   1.000  H
  H169     1.0000 0.33230  0.87500  0.77920  Biso   1.000  H
  H170     1.0000 0.55070  0.95690  0.84110  Biso   1.000  H
  H171     1.0000 0.60430  0.95850  0.87650  Biso   1.000  H
  H172     1.0000 0.74470  0.10140  0.85340  Biso   1.000  H
  H173     1.0000 0.75940  0.07370  0.88730  Biso   1.000  H
  H174     1.0000 0.82400  0.95240  0.78760  Biso   1.000  H
  H175     1.0000 0.70100  0.95020  0.78320  Biso   1.000  H
  H176     1.0000 0.18370  0.94100  0.83140  Biso   1.000  H
  H177     1.0000 0.31050  0.94460  0.82400  Biso   1.000  H
  H178     1.0000 0.09250  0.97120  0.77940  Biso   1.000  H
  H179     1.0000 0.01790  0.01100  0.77400  Biso   1.000  H
  H180     1.0000 0.28690  0.09820  0.79660  Biso   1.000  H
  H181     1.0000 0.77800  0.41450  0.67550  Biso   1.000  H
  H182     1.0000 0.99520  0.62710  0.70950  Biso   1.000  H
  H183     1.0000 0.82120  0.64840  0.68000  Biso   1.000  H
  H184     1.0000 0.83290  0.63940  0.61100  Biso   1.000  H
  H185     1.0000 0.33300  0.61430  0.49870  Biso   1.000  H
  H186     1.0000 0.49390  0.56310  0.50630  Biso   1.000  H
  H187     1.0000 0.47090  0.51940  0.56300  Biso   1.000  H
  H188     1.0000 0.73790  0.52620  0.53780  Biso   1.000  H
  H189     1.0000 0.84530  0.52710  0.47190  Biso   1.000  H
  H190     1.0000 0.95540  0.46730  0.44270  Biso   1.000  H
  H191     1.0000 0.91600  0.29870  0.52790  Biso   1.000  H
  H192     1.0000 0.95860  0.28800  0.59380  Biso   1.000  H
  H193     1.0000 0.97630  0.34310  0.63170  Biso   1.000  H
  H194     1.0000 0.40190  0.34610  0.63750  Biso   1.000  H
  H195     1.0000 0.31250  0.28630  0.64170  Biso   1.000  H
  H196     1.0000 0.24820  0.26350  0.70810  Biso   1.000  H
  H197     1.0000 0.30890  0.36630  0.86470  Biso   1.000  H
  H198     1.0000 0.18530  0.42730  0.87170  Biso   1.000  H
  H199     1.0000 0.12130  0.45840  0.81360  Biso   1.000  H
  H200     1.0000 0.87980  0.45560  0.78940  Biso   1.000  H
  H201     1.0000 0.85670  0.46130  0.85970  Biso   1.000  H
  H202     1.0000 0.68180  0.49910  0.89450  Biso   1.000  H
  H203     1.0000 0.25630  0.58640  0.81220  Biso   1.000  H
  H204     1.0000 0.28930  0.62840  0.75700  Biso   1.000  H
  H205     1.0000 0.48650  0.62500  0.72080  Biso   1.000  H
  H206     1.0000 0.84870  0.54310  0.65890  Biso   1.000  H
  H207     1.0000 0.93930  0.54150  0.62350  Biso   1.000  H
  H208     1.0000 0.19950  0.39860  0.64660  Biso   1.000  H
  H209     1.0000 0.22040  0.42630  0.61270  Biso   1.000  H
  H210     1.0000 0.06400  0.54760  0.71240  Biso   1.000  H
  H211     1.0000 0.93440  0.54980  0.71680  Biso   1.000  H
  H212     1.0000 0.45610  0.55900  0.66860  Biso   1.000  H
  H213     1.0000 0.57910  0.55540  0.67600  Biso   1.000  H
  H214     1.0000 0.34310  0.52880  0.72060  Biso   1.000  H
  H215     1.0000 0.30290  0.48900  0.72600  Biso   1.000  H
  H216     1.0000 0.68170  0.40180  0.70340  Biso   1.000  H
  H217     1.0000 0.19250  0.17550  0.58550  Biso   1.000  H
  H218     1.0000 0.62230  0.20950  0.37290  Biso   1.000  H
  H219     1.0000 0.46960  0.18000  0.35160  Biso   1.000  H
  H220     1.0000 0.47230  0.11100  0.36060  Biso   1.000  H
  H221     1.0000 0.94730  0.99870  0.38570  Biso   1.000  H
  H222     1.0000 0.05700  0.00630  0.43690  Biso   1.000  H
  H223     1.0000 0.99030  0.06300  0.48060  Biso   1.000  H
  H224     1.0000 0.26410  0.03780  0.47380  Biso   1.000  H
  H225     1.0000 0.37240  0.97190  0.47290  Biso   1.000  H
  H226     1.0000 0.42270  0.94270  0.53270  Biso   1.000  H
  H227     1.0000 0.21470  0.02790  0.70130  Biso   1.000  H
  H228     1.0000 0.24660  0.09380  0.71200  Biso   1.000  H
  H229     1.0000 0.31940  0.13170  0.65690  Biso   1.000  H
  H230     1.0000 0.74800  0.13750  0.65390  Biso   1.000  H
  H231     1.0000 0.59880  0.14170  0.71370  Biso   1.000  H
  H232     1.0000 0.51170  0.20810  0.73650  Biso   1.000  H
  H233     1.0000 0.67520  0.36470  0.63370  Biso   1.000  H
  H234     1.0000 0.61260  0.37170  0.57270  Biso   1.000  H
  H235     1.0000 0.57970  0.31360  0.54160  Biso   1.000  H
  H236     1.0000 0.33540  0.28940  0.54440  Biso   1.000  H
  H237     1.0000 0.31800  0.35970  0.53870  Biso   1.000  H
  H238     1.0000 0.18090  0.39450  0.50090  Biso   1.000  H
  H239     1.0000 0.84270  0.31220  0.41360  Biso   1.000  H
  H240     1.0000 0.91770  0.25700  0.37160  Biso   1.000  H
  H241     1.0000 0.11150  0.22080  0.37500  Biso   1.000  H
  H242     1.0000 0.39180  0.15890  0.45690  Biso   1.000  H
  H243     1.0000 0.48080  0.12350  0.45850  Biso   1.000  H
  H244     1.0000 0.59810  0.14660  0.60140  Biso   1.000  H
  H245     1.0000 0.64670  0.11270  0.57370  Biso   1.000  H
  H246     1.0000 0.61160  0.21240  0.45240  Biso   1.000  H
  H247     1.0000 0.48420  0.21680  0.45020  Biso   1.000  H
  H248     1.0000 0.01510  0.16860  0.44100  Biso   1.000  H
  H249     1.0000 0.13450  0.17600  0.44460  Biso   1.000  H
  H250     1.0000 0.87190  0.22060  0.47120  Biso   1.000  H
  H251     1.0000 0.79190  0.22600  0.51100  Biso   1.000  H
  H252     1.0000 0.08350  0.20340  0.59820  Biso   1.000  H
  H253     1.0000 0.45350  0.32450  0.91450  Biso   1.000  H
  H254     1.0000 0.70470  0.29050  0.12710  Biso   1.000  H
  H255     1.0000 0.50120  0.32000  0.14840  Biso   1.000  H
  H256     1.0000 0.44390  0.38900  0.13940  Biso   1.000  H
  H257     1.0000 0.83170  0.50130  0.11430  Biso   1.000  H
  H258     1.0000 0.00020  0.49370  0.06310  Biso   1.000  H
  H259     1.0000 0.03390  0.43700  0.01940  Biso   1.000  H
  H260     1.0000 0.27570  0.46220  0.02620  Biso   1.000  H
  H261     1.0000 0.31720  0.52810  0.02710  Biso   1.000  H
  H262     1.0000 0.39810  0.55730  0.96730  Biso   1.000  H
  H263     1.0000 0.44390  0.47210  0.79870  Biso   1.000  H
  H264     1.0000 0.55240  0.40620  0.78800  Biso   1.000  H
  H265     1.0000 0.60800  0.36830  0.84310  Biso   1.000  H
  H266     1.0000 0.03940  0.36250  0.84610  Biso   1.000  H
  H267     1.0000 0.95420  0.35830  0.78630  Biso   1.000  H
  H268     1.0000 0.95630  0.29190  0.76350  Biso   1.000  H
  H269     1.0000 0.17360  0.13530  0.86630  Biso   1.000  H
  H270     1.0000 0.05700  0.12830  0.92730  Biso   1.000  H
  H271     1.0000 0.93490  0.18640  0.95840  Biso   1.000  H
  H272     1.0000 0.66920  0.21060  0.95560  Biso   1.000  H
  H273     1.0000 0.71640  0.14030  0.96130  Biso   1.000  H
  H274     1.0000 0.57630  0.10550  0.99910  Biso   1.000  H
  H275     1.0000 0.06850  0.18780  0.08640  Biso   1.000  H
  H276     1.0000 0.04630  0.24300  0.12840  Biso   1.000  H
  H277     1.0000 0.20730  0.27920  0.12500  Biso   1.000  H
  H278     1.0000 0.50760  0.34110  0.04310  Biso   1.000  H
  H279     1.0000 0.56280  0.37650  0.04150  Biso   1.000  H
  H280     1.0000 0.84610  0.35340  0.89860  Biso   1.000  H
  H281     1.0000 0.83310  0.38730  0.92630  Biso   1.000  H
  H282     1.0000 0.77640  0.28760  0.04760  Biso   1.000  H
  H283     1.0000 0.65120  0.28320  0.04980  Biso   1.000  H
  H284     1.0000 0.12470  0.33140  0.05900  Biso   1.000  H
  H285     1.0000 0.25510  0.32400  0.05540  Biso   1.000  H
  H286     1.0000 0.06370  0.27940  0.02880  Biso   1.000  H
  H287     1.0000 0.02890  0.27400  0.98900  Biso   1.000  H
  H288     1.0000 0.38510  0.29660  0.90180  Biso   1.000  H
  C1       1.0000 0.01196  0.09109  0.17819  Biso   1.000  C
  C2       1.0000 0.13064  0.10529  0.15783  Biso   1.000  C
  C3       1.0000 0.19673  0.12347  0.18147  Biso   1.000  C
  C4       1.0000 0.30495  0.13630  0.16400  Biso   1.000  C
  C5       1.0000 0.34364  0.13084  0.12288  Biso   1.000  C
  C6       1.0000 0.17709  0.10011  0.11611  Biso   1.000  C
  C7       1.0000 0.11275  0.08385  0.08525  Biso   1.000  C
  C8       1.0000 0.05200  0.09819  0.02241  Biso   1.000  C
  C9       1.0000 0.98415  0.06712  0.02598  Biso   1.000  C
  C10      1.0000 0.98879  0.04163  0.06019  Biso   1.000  C
  C11      1.0000 0.05592  0.04915  0.09001  Biso   1.000  C
  C12      1.0000 0.07363  0.01792  0.12322  Biso   1.000  C
  C13      1.0000 0.73291  0.96475  0.09023  Biso   1.000  C
  C14      1.0000 0.68947  0.96604  0.04902  Biso   1.000  C
  C15      1.0000 0.68497  0.00225  0.02621  Biso   1.000  C
  C16      1.0000 0.66143  0.00280  0.98694  Biso   1.000  C
  C17      1.0000 0.64648  0.96712  0.96992  Biso   1.000  C
  C18      1.0000 0.66371  0.93176  0.03082  Biso   1.000  C
  C19      1.0000 0.65536  0.89171  0.05117  Biso   1.000  C
  C20      1.0000 0.71522  0.82116  0.04380  Biso   1.000  C
  C21      1.0000 0.65563  0.81445  0.08309  Biso   1.000  C
  C22      1.0000 0.59106  0.84729  0.10559  Biso   1.000  C
  C23      1.0000 0.58717  0.88675  0.09031  Biso   1.000  C
  C24      1.0000 0.49888  0.92156  0.11348  Biso   1.000  C
  C25      1.0000 0.98605  0.89987  0.19283  Biso   1.000  C
  C26      1.0000 0.08332  0.86162  0.19774  Biso   1.000  C
  C27      1.0000 0.13560  0.83760  0.16280  Biso   1.000  C
  C28      1.0000 0.21820  0.80120  0.16500  Biso   1.000  C
  C29      1.0000 0.23380  0.78920  0.20480  Biso   1.000  C
  C30      1.0000 0.11890  0.84813  0.23367  Biso   1.000  C
  C31      1.0000 0.08300  0.87313  0.27187  Biso   1.000  C
  C32      1.0000 0.00070  0.87780  0.34140  Biso   1.000  C
  C33      1.0000 0.03160  0.91445  0.34615  Biso   1.000  C
  C34      1.0000 0.08760  0.93225  0.31195  Biso   1.000  C
  C35      1.0000 0.11678  0.91112  0.27392  Biso   1.000  C
  C36      1.0000 0.18744  0.93040  0.23852  Biso   1.000  C
  C37      1.0000 0.53822  0.98848  0.23688  Biso   1.000  C
  C38      1.0000 0.49239  0.99654  0.28228  Biso   1.000  C
  C39      1.0000 0.41041  0.97312  0.30366  Biso   1.000  C
  C40      1.0000 0.38115  0.97565  0.34545  Biso   1.000  C
  C41      1.0000 0.43942  0.99941  0.36595  Biso   1.000  C
  C42      1.0000 0.53899  0.02349  0.30513  Biso   1.000  C
  C43      1.0000 0.61747  0.05453  0.28793  Biso   1.000  C
  C44      1.0000 0.78253  0.08461  0.29733  Biso   1.000  C
  C45      1.0000 0.77124  0.10990  0.26462  Biso   1.000  C
  C46      1.0000 0.67807  0.10757  0.24309  Biso   1.000  C
  C47      1.0000 0.59900  0.07938  0.25422  Biso   1.000  C
  C48      1.0000 0.49596  0.07841  0.22947  Biso   1.000  C
  C49      1.0000 0.78124  0.40891  0.32181  Biso   1.000  C
  C50      1.0000 0.89376  0.39471  0.34217  Biso   1.000  C
  C51      1.0000 0.00167  0.37653  0.31853  Biso   1.000  C
  C52      1.0000 0.10525  0.36370  0.33600  Biso   1.000  C
  C53      1.0000 0.09736  0.36916  0.37712  Biso   1.000  C
  C54      1.0000 0.89331  0.39989  0.38389  Biso   1.000  C
  C55      1.0000 0.78185  0.41615  0.41475  Biso   1.000  C
  C56      1.0000 0.67260  0.40181  0.47759  Biso   1.000  C
  C57      1.0000 0.57725  0.43288  0.47402  Biso   1.000  C
  C58      1.0000 0.59061  0.45837  0.43981  Biso   1.000  C
  C59      1.0000 0.69508  0.45085  0.40999  Biso   1.000  C
  C60      1.0000 0.71477  0.48208  0.37678  Biso   1.000  C
  C61      1.0000 0.28789  0.53525  0.40977  Biso   1.000  C
  C62      1.0000 0.20453  0.53396  0.45098  Biso   1.000  C
  C63      1.0000 0.21343  0.49775  0.47379  Biso   1.000  C
  C64      1.0000 0.15117  0.49720  0.51306  Biso   1.000  C
  C65      1.0000 0.08352  0.53288  0.53008  Biso   1.000  C
  C66      1.0000 0.12629  0.56824  0.46918  Biso   1.000  C
  C67      1.0000 0.09824  0.60829  0.44883  Biso   1.000  C
  C68      1.0000 0.08018  0.67884  0.45620  Biso   1.000  C
  C69      1.0000 0.05317  0.68555  0.41691  Biso   1.000  C
  C70      1.0000 0.04394  0.65271  0.39441  Biso   1.000  C
  C71      1.0000 0.06423  0.61325  0.40969  Biso   1.000  C
  C72      1.0000 0.03392  0.57844  0.38652  Biso   1.000  C
  C73      1.0000 0.57875  0.60013  0.30717  Biso   1.000  C
  C74      1.0000 0.64268  0.63838  0.30226  Biso   1.000  C
  C75      1.0000 0.63600  0.66240  0.33720  Biso   1.000  C
  C76      1.0000 0.68440  0.69880  0.33500  Biso   1.000  C
  C77      1.0000 0.72780  0.71080  0.29520  Biso   1.000  C
  C78      1.0000 0.70070  0.65187  0.26633  Biso   1.000  C
  C79      1.0000 0.72800  0.62687  0.22813  Biso   1.000  C
  C80      1.0000 0.71990  0.62220  0.15860  Biso   1.000  C
  C81      1.0000 0.79220  0.58555  0.15385  Biso   1.000  C
  C82      1.0000 0.83180  0.56775  0.18805  Biso   1.000  C
  C83      1.0000 0.80182  0.58888  0.22608  Biso   1.000  C
  C84      1.0000 0.85636  0.56960  0.26148  Biso   1.000  C
  C85      1.0000 0.26358  0.51152  0.26312  Biso   1.000  C
  C86      1.0000 0.27121  0.50346  0.21772  Biso   1.000  C
  C87      1.0000 0.18719  0.52688  0.19634  Biso   1.000  C
  C88      1.0000 0.20225  0.52435  0.15455  Biso   1.000  C
  C89      1.0000 0.30478  0.50059  0.13405  Biso   1.000  C
  C90      1.0000 0.36761  0.47651  0.19487  Biso   1.000  C
  C91      1.0000 0.45993  0.44547  0.21207  Biso   1.000  C
  C92      1.0000 0.66447  0.41539  0.20267  Biso   1.000  C
  C93      1.0000 0.64576  0.39010  0.23538  Biso   1.000  C
  C94      1.0000 0.52873  0.39243  0.25691  Biso   1.000  C
  C95      1.0000 0.43260  0.42062  0.24578  Biso   1.000  C
  C96      1.0000 0.30384  0.42159  0.27053  Biso   1.000  C
  C97      1.0000 0.19015  0.82181  0.59109  Biso   1.000  C
  C98      1.0000 0.28847  0.84217  0.60529  Biso   1.000  C
  C99      1.0000 0.37820  0.81853  0.62347  Biso   1.000  C
  C100     1.0000 0.46895  0.83600  0.63630  Biso   1.000  C
  C101     1.0000 0.46652  0.87712  0.63084  Biso   1.000  C
  C102     1.0000 0.29320  0.88389  0.60011  Biso   1.000  C
  C103     1.0000 0.19800  0.91475  0.58385  Biso   1.000  C
  C104     1.0000 0.07441  0.97759  0.59819  Biso   1.000  C
  C105     1.0000 0.01013  0.97402  0.56712  Biso   1.000  C
  C106     1.0000 0.04898  0.93981  0.54163  Biso   1.000  C
  C107     1.0000 0.14593  0.90999  0.54915  Biso   1.000  C
  C108     1.0000 0.19685  0.87678  0.51792  Biso   1.000  C
  C109     1.0000 0.82314  0.90977  0.46475  Biso   1.000  C
  C110     1.0000 0.73849  0.95098  0.46604  Biso   1.000  C
  C111     1.0000 0.71118  0.97379  0.50225  Biso   1.000  C
  C112     1.0000 0.64837  0.01306  0.50280  Biso   1.000  C
  C113     1.0000 0.61640  0.03008  0.46712  Biso   1.000  C
  C114     1.0000 0.69453  0.96918  0.43176  Biso   1.000  C
  C115     1.0000 0.70653  0.94883  0.39171  Biso   1.000  C
  C116     1.0000 0.75902  0.95620  0.32116  Biso   1.000  C
  C117     1.0000 0.73872  0.91691  0.31445  Biso   1.000  C
  C118     1.0000 0.69665  0.89441  0.34729  Biso   1.000  C
  C119     1.0000 0.67748  0.90969  0.38675  Biso   1.000  C
  C120     1.0000 0.61236  0.88652  0.42156  Biso   1.000  C
  C121     1.0000 0.17888  0.80717  0.39987  Biso   1.000  C
  C122     1.0000 0.28106  0.80226  0.36162  Biso   1.000  C
  C123     1.0000 0.29840  0.83720  0.33760  Biso   1.000  C
  C124     1.0000 0.38320  0.83500  0.30120  Biso   1.000  C
  C125     1.0000 0.43860  0.79520  0.28920  Biso   1.000  C
  C126     1.0000 0.35257  0.76633  0.34813  Biso   1.000  C
  C127     1.0000 0.35487  0.72813  0.37313  Biso   1.000  C
  C128     1.0000 0.34210  0.65860  0.37780  Biso   1.000  C
  C129     1.0000 0.37775  0.65385  0.41445  Biso   1.000  C
  C130     1.0000 0.39955  0.68805  0.43225  Biso   1.000  C
  C131     1.0000 0.39070  0.72608  0.41112  Biso   1.000  C
  C132     1.0000 0.42596  0.76148  0.43040  Biso   1.000  C
  C133     1.0000 0.77510  0.76312  0.48848  Biso   1.000  C
  C134     1.0000 0.77467  0.71772  0.49654  Biso   1.000  C
  C135     1.0000 0.71407  0.69634  0.47312  Biso   1.000  C
  C136     1.0000 0.72660  0.65455  0.47565  Biso   1.000  C
  C137     1.0000 0.80537  0.63405  0.49941  Biso   1.000  C
  C138     1.0000 0.84412  0.69487  0.52349  Biso   1.000  C
  C139     1.0000 0.90540  0.71207  0.55453  Biso   1.000  C
  C140     1.0000 0.07986  0.70267  0.58461  Biso   1.000  C
  C141     1.0000 0.03586  0.73538  0.60990  Biso   1.000  C
  C142     1.0000 0.92116  0.75691  0.60757  Biso   1.000  C
  C143     1.0000 0.85322  0.74578  0.57938  Biso   1.000  C
  C144     1.0000 0.72543  0.77053  0.57841  Biso   1.000  C
  C145     1.0000 0.10305  0.67819  0.90891  Biso   1.000  C
  C146     1.0000 0.23593  0.65783  0.89471  Biso   1.000  C
  C147     1.0000 0.32020  0.68147  0.87653  Biso   1.000  C
  C148     1.0000 0.44125  0.66400  0.86370  Biso   1.000  C
  C149     1.0000 0.47448  0.62288  0.86916  Biso   1.000  C
  C150     1.0000 0.27720  0.61611  0.89989  Biso   1.000  C
  C151     1.0000 0.19660  0.58525  0.91615  Biso   1.000  C
  C152     1.0000 0.15019  0.52241  0.90181  Biso   1.000  C
  C153     1.0000 0.05127  0.52598  0.93288  Biso   1.000  C
  C154     1.0000 0.03042  0.56019  0.95837  Biso   1.000  C
  C155     1.0000 0.10507  0.59001  0.95085  Biso   1.000  C
  C156     1.0000 0.09155  0.62322  0.98208  Biso   1.000  C
  C157     1.0000 0.69766  0.59023  0.03525  Biso   1.000  C
  C158     1.0000 0.65551  0.54902  0.03396  Biso   1.000  C
  C159     1.0000 0.68722  0.52621  0.99775  Biso   1.000  C
  C160     1.0000 0.66423  0.48694  0.99720  Biso   1.000  C
  C161     1.0000 0.61360  0.46992  0.03288  Biso   1.000  C
  C162     1.0000 0.59547  0.53082  0.06824  Biso   1.000  C
  C163     1.0000 0.54707  0.55117  0.10829  Biso   1.000  C
  C164     1.0000 0.53638  0.54380  0.17884  Biso   1.000  C
  C165     1.0000 0.47008  0.58309  0.18555  Biso   1.000  C
  C166     1.0000 0.43835  0.60559  0.15271  Biso   1.000  C
  C167     1.0000 0.47392  0.59031  0.11325  Biso   1.000  C
  C168     1.0000 0.42044  0.61348  0.07844  Biso   1.000  C
  C169     1.0000 0.88592  0.69283  0.10013  Biso   1.000  C
  C170     1.0000 0.94494  0.69774  0.13838  Biso   1.000  C
  C171     1.0000 0.97320  0.66280  0.16240  Biso   1.000  C
  C172     1.0000 0.01940  0.66500  0.19880  Biso   1.000  C
  C173     1.0000 0.02300  0.70480  0.21080  Biso   1.000  C
  C174     1.0000 0.96703  0.73367  0.15187  Biso   1.000  C
  C175     1.0000 0.95613  0.77187  0.12687  Biso   1.000  C
  C176     1.0000 0.87850  0.84140  0.12220  Biso   1.000  C
  C177     1.0000 0.94605  0.84615  0.08555  Biso   1.000  C
  C178     1.0000 0.01985  0.81195  0.06775  Biso   1.000  C
  C179     1.0000 0.02790  0.77392  0.08888  Biso   1.000  C
  C180     1.0000 0.11784  0.73852  0.06960  Biso   1.000  C
  C181     1.0000 0.52670  0.73688  0.01152  Biso   1.000  C
  C182     1.0000 0.48893  0.78228  0.00346  Biso   1.000  C
  C183     1.0000 0.38353  0.80366  0.02688  Biso   1.000  C
  C184     1.0000 0.35680  0.84545  0.02435  Biso   1.000  C
  C185     1.0000 0.43883  0.86595  0.00059  Biso   1.000  C
  C186     1.0000 0.56248  0.80513  0.97651  Biso   1.000  C
  C187     1.0000 0.67200  0.78793  0.94547  Biso   1.000  C
  C188     1.0000 0.86714  0.79733  0.91539  Biso   1.000  C
  C189     1.0000 0.88114  0.76462  0.89010  Biso   1.000  C
  C190     1.0000 0.78564  0.74309  0.89243  Biso   1.000  C
  C191     1.0000 0.67838  0.75422  0.92062  Biso   1.000  C
  C192     1.0000 0.57437  0.72947  0.92159  Biso   1.000  C
  C193     1.0000 0.98804  0.90891  0.82181  Biso   1.000  C
  C194     1.0000 0.86936  0.89471  0.84217  Biso   1.000  C
  C195     1.0000 0.80327  0.87653  0.81853  Biso   1.000  C
  C196     1.0000 0.69505  0.86370  0.83600  Biso   1.000  C
  C197     1.0000 0.65636  0.86916  0.87712  Biso   1.000  C
  C198     1.0000 0.82291  0.89989  0.88389  Biso   1.000  C
  C199     1.0000 0.88725  0.91615  0.91475  Biso   1.000  C
  C200     1.0000 0.94800  0.90181  0.97759  Biso   1.000  C
  C201     1.0000 0.01585  0.93288  0.97402  Biso   1.000  C
  C202     1.0000 0.01121  0.95837  0.93981  Biso   1.000  C
  C203     1.0000 0.94408  0.95085  0.90999  Biso   1.000  C
  C204     1.0000 0.92637  0.98208  0.87678  Biso   1.000  C
  C205     1.0000 0.26709  0.03525  0.90977  Biso   1.000  C
  C206     1.0000 0.31053  0.03396  0.95098  Biso   1.000  C
  C207     1.0000 0.31503  0.99775  0.97379  Biso   1.000  C
  C208     1.0000 0.33857  0.99720  0.01306  Biso   1.000  C
  C209     1.0000 0.35352  0.03288  0.03008  Biso   1.000  C
  C210     1.0000 0.33629  0.06824  0.96918  Biso   1.000  C
  C211     1.0000 0.34464  0.10829  0.94883  Biso   1.000  C
  C212     1.0000 0.28478  0.17884  0.95620  Biso   1.000  C
  C213     1.0000 0.34437  0.18555  0.91691  Biso   1.000  C
  C214     1.0000 0.40894  0.15271  0.89441  Biso   1.000  C
  C215     1.0000 0.41283  0.11325  0.90969  Biso   1.000  C
  C216     1.0000 0.50112  0.07844  0.88652  Biso   1.000  C
  C217     1.0000 0.01395  0.10013  0.80717  Biso   1.000  C
  C218     1.0000 0.91668  0.13838  0.80226  Biso   1.000  C
  C219     1.0000 0.86440  0.16240  0.83720  Biso   1.000  C
  C220     1.0000 0.78180  0.19880  0.83500  Biso   1.000  C
  C221     1.0000 0.76620  0.21080  0.79520  Biso   1.000  C
  C222     1.0000 0.88110  0.15187  0.76633  Biso   1.000  C
  C223     1.0000 0.91700  0.12687  0.72813  Biso   1.000  C
  C224     1.0000 0.99930  0.12220  0.65860  Biso   1.000  C
  C225     1.0000 0.96840  0.08555  0.65385  Biso   1.000  C
  C226     1.0000 0.91240  0.06775  0.68805  Biso   1.000  C
  C227     1.0000 0.88322  0.08888  0.72608  Biso   1.000  C
  C228     1.0000 0.81256  0.06960  0.76148  Biso   1.000  C
  C229     1.0000 0.46178  0.01152  0.76312  Biso   1.000  C
  C230     1.0000 0.50761  0.00346  0.71772  Biso   1.000  C
  C231     1.0000 0.58959  0.02688  0.69634  Biso   1.000  C
  C232     1.0000 0.61885  0.02435  0.65455  Biso   1.000  C
  C233     1.0000 0.56058  0.00059  0.63405  Biso   1.000  C
  C234     1.0000 0.46101  0.97651  0.69487  Biso   1.000  C
  C235     1.0000 0.38253  0.94547  0.71207  Biso   1.000  C
  C236     1.0000 0.21747  0.91539  0.70267  Biso   1.000  C
  C237     1.0000 0.22876  0.89010  0.73538  Biso   1.000  C
  C238     1.0000 0.32193  0.89243  0.75691  Biso   1.000  C
  C239     1.0000 0.40100  0.92062  0.74578  Biso   1.000  C
  C240     1.0000 0.50404  0.92159  0.77053  Biso   1.000  C
  C241     1.0000 0.21876  0.59109  0.67819  Biso   1.000  C
  C242     1.0000 0.10624  0.60529  0.65783  Biso   1.000  C
  C243     1.0000 0.99833  0.62347  0.68147  Biso   1.000  C
  C244     1.0000 0.89475  0.63630  0.66400  Biso   1.000  C
  C245     1.0000 0.90264  0.63084  0.62288  Biso   1.000  C
  C246     1.0000 0.10669  0.60011  0.61611  Biso   1.000  C
  C247     1.0000 0.21815  0.58385  0.58525  Biso   1.000  C
  C248     1.0000 0.32740  0.59819  0.52241  Biso   1.000  C
  C249     1.0000 0.42275  0.56712  0.52598  Biso   1.000  C
  C250     1.0000 0.40939  0.54163  0.56019  Biso   1.000  C
  C251     1.0000 0.30492  0.54915  0.59001  Biso   1.000  C
  C252     1.0000 0.28523  0.51792  0.62322  Biso   1.000  C
  C253     1.0000 0.71211  0.46475  0.59023  Biso   1.000  C
  C254     1.0000 0.79547  0.46604  0.54902  Biso   1.000  C
  C255     1.0000 0.78657  0.50225  0.52621  Biso   1.000  C
  C256     1.0000 0.84883  0.50280  0.48694  Biso   1.000  C
  C257     1.0000 0.91648  0.46712  0.46992  Biso   1.000  C
  C258     1.0000 0.87371  0.43176  0.53082  Biso   1.000  C
  C259     1.0000 0.90176  0.39171  0.55117  Biso   1.000  C
  C260     1.0000 0.91982  0.32116  0.54380  Biso   1.000  C
  C261     1.0000 0.94683  0.31445  0.58309  Biso   1.000  C
  C262     1.0000 0.95606  0.34729  0.60559  Biso   1.000  C
  C263     1.0000 0.93577  0.38675  0.59031  Biso   1.000  C
  C264     1.0000 0.96608  0.42156  0.61348  Biso   1.000  C
  C265     1.0000 0.42125  0.39987  0.69283  Biso   1.000  C
  C266     1.0000 0.35732  0.36162  0.69774  Biso   1.000  C
  C267     1.0000 0.36400  0.33760  0.66280  Biso   1.000  C
  C268     1.0000 0.31560  0.30120  0.66500  Biso   1.000  C
  C269     1.0000 0.27220  0.28920  0.70480  Biso   1.000  C
  C270     1.0000 0.29930  0.34813  0.73367  Biso   1.000  C
  C271     1.0000 0.27200  0.37313  0.77187  Biso   1.000  C
  C272     1.0000 0.28010  0.37780  0.84140  Biso   1.000  C
  C273     1.0000 0.20780  0.41445  0.84615  Biso   1.000  C
  C274     1.0000 0.16820  0.43225  0.81195  Biso   1.000  C
  C275     1.0000 0.19818  0.41112  0.77392  Biso   1.000  C
  C276     1.0000 0.14364  0.43040  0.73852  Biso   1.000  C
  C277     1.0000 0.73642  0.48848  0.73688  Biso   1.000  C
  C278     1.0000 0.72879  0.49654  0.78228  Biso   1.000  C
  C279     1.0000 0.81281  0.47312  0.80366  Biso   1.000  C
  C280     1.0000 0.79775  0.47565  0.84545  Biso   1.000  C
  C281     1.0000 0.69522  0.49941  0.86595  Biso   1.000  C
  C282     1.0000 0.63239  0.52349  0.80513  Biso   1.000  C
  C283     1.0000 0.54007  0.55453  0.78793  Biso   1.000  C
  C284     1.0000 0.33553  0.58461  0.79733  Biso   1.000  C
  C285     1.0000 0.35424  0.60990  0.76462  Biso   1.000  C
  C286     1.0000 0.47127  0.60757  0.74309  Biso   1.000  C
  C287     1.0000 0.56740  0.57938  0.75422  Biso   1.000  C
  C288     1.0000 0.69616  0.57841  0.72947  Biso   1.000  C
  C289     1.0000 0.80985  0.17819  0.40891  Biso   1.000  C
  C290     1.0000 0.71153  0.15783  0.39471  Biso   1.000  C
  C291     1.0000 0.62180  0.18147  0.37653  Biso   1.000  C
  C292     1.0000 0.53105  0.16400  0.36370  Biso   1.000  C
  C293     1.0000 0.53348  0.12288  0.36916  Biso   1.000  C
  C294     1.0000 0.70680  0.11611  0.39989  Biso   1.000  C
  C295     1.0000 0.80200  0.08525  0.41615  Biso   1.000  C
  C296     1.0000 0.92559  0.02241  0.40181  Biso   1.000  C
  C297     1.0000 0.98987  0.02598  0.43288  Biso   1.000  C
  C298     1.0000 0.95102  0.06019  0.45837  Biso   1.000  C
  C299     1.0000 0.85407  0.09001  0.45085  Biso   1.000  C
  C300     1.0000 0.80315  0.12322  0.48208  Biso   1.000  C
  C301     1.0000 0.17686  0.09023  0.53525  Biso   1.000  C
  C302     1.0000 0.26151  0.04902  0.53396  Biso   1.000  C
  C303     1.0000 0.28882  0.02621  0.49775  Biso   1.000  C
  C304     1.0000 0.35163  0.98694  0.49720  Biso   1.000  C
  C305     1.0000 0.38360  0.96992  0.53288  Biso   1.000  C
  C306     1.0000 0.30547  0.03082  0.56824  Biso   1.000  C
  C307     1.0000 0.29347  0.05117  0.60829  Biso   1.000  C
  C308     1.0000 0.24098  0.04380  0.67884  Biso   1.000  C
  C309     1.0000 0.26128  0.08309  0.68555  Biso   1.000  C
  C310     1.0000 0.30335  0.10559  0.65271  Biso   1.000  C
  C311     1.0000 0.32252  0.09031  0.61325  Biso   1.000  C
  C312     1.0000 0.38764  0.11348  0.57844  Biso   1.000  C
  C313     1.0000 0.82112  0.19283  0.60013  Biso   1.000  C
  C314     1.0000 0.71894  0.19774  0.63838  Biso   1.000  C
  C315     1.0000 0.70160  0.16280  0.66240  Biso   1.000  C
  C316     1.0000 0.61680  0.16500  0.69880  Biso   1.000  C
  C317     1.0000 0.56140  0.20480  0.71080  Biso   1.000  C
  C318     1.0000 0.64743  0.23367  0.65187  Biso   1.000  C
  C319     1.0000 0.64513  0.27187  0.62687  Biso   1.000  C
  C320     1.0000 0.65790  0.34140  0.62220  Biso   1.000  C
  C321     1.0000 0.62225  0.34615  0.58555  Biso   1.000  C
  C322     1.0000 0.60045  0.31195  0.56775  Biso   1.000  C
  C323     1.0000 0.60930  0.27392  0.58888  Biso   1.000  C
  C324     1.0000 0.57404  0.23852  0.56960  Biso   1.000  C
  C325     1.0000 0.22490  0.23688  0.51152  Biso   1.000  C
  C326     1.0000 0.22533  0.28228  0.50346  Biso   1.000  C
  C327     1.0000 0.28593  0.30366  0.52688  Biso   1.000  C
  C328     1.0000 0.27340  0.34545  0.52435  Biso   1.000  C
  C329     1.0000 0.19463  0.36595  0.50059  Biso   1.000  C
  C330     1.0000 0.15588  0.30513  0.47651  Biso   1.000  C
  C331     1.0000 0.09460  0.28793  0.44547  Biso   1.000  C
  C332     1.0000 0.92014  0.29733  0.41539  Biso   1.000  C
  C333     1.0000 0.96414  0.26462  0.39010  Biso   1.000  C
  C334     1.0000 0.07884  0.24309  0.39243  Biso   1.000  C
  C335     1.0000 0.14678  0.25422  0.42062  Biso   1.000  C
  C336     1.0000 0.27457  0.22947  0.42159  Biso   1.000  C
  C337     1.0000 0.89695  0.32181  0.09109  Biso   1.000  C
  C338     1.0000 0.76407  0.34217  0.10529  Biso   1.000  C
  C339     1.0000 0.67980  0.31853  0.12347  Biso   1.000  C
  C340     1.0000 0.55875  0.33600  0.13630  Biso   1.000  C
  C341     1.0000 0.52552  0.37712  0.13084  Biso   1.000  C
  C342     1.0000 0.72280  0.38389  0.10011  Biso   1.000  C
  C343     1.0000 0.80340  0.41475  0.08385  Biso   1.000  C
  C344     1.0000 0.84981  0.47759  0.09819  Biso   1.000  C
  C345     1.0000 0.94873  0.47402  0.06712  Biso   1.000  C
  C346     1.0000 0.96958  0.43981  0.04163  Biso   1.000  C
  C347     1.0000 0.89493  0.40999  0.04915  Biso   1.000  C
  C348     1.0000 0.90845  0.37678  0.01792  Biso   1.000  C
  C349     1.0000 0.30234  0.40977  0.96475  Biso   1.000  C
  C350     1.0000 0.34449  0.45098  0.96604  Biso   1.000  C
  C351     1.0000 0.31278  0.47379  0.00225  Biso   1.000  C
  C352     1.0000 0.33577  0.51306  0.00280  Biso   1.000  C
  C353     1.0000 0.38640  0.53008  0.96712  Biso   1.000  C
  C354     1.0000 0.40453  0.46918  0.93176  Biso   1.000  C
  C355     1.0000 0.45293  0.44883  0.89171  Biso   1.000  C
  C356     1.0000 0.46362  0.45620  0.82116  Biso   1.000  C
  C357     1.0000 0.52992  0.41691  0.81445  Biso   1.000  C
  C358     1.0000 0.56165  0.39441  0.84729  Biso   1.000  C
  C359     1.0000 0.52608  0.40969  0.88675  Biso   1.000  C
  C360     1.0000 0.57956  0.38652  0.92156  Biso   1.000  C
  C361     1.0000 0.11408  0.30717  0.89987  Biso   1.000  C
  C362     1.0000 0.05506  0.30226  0.86162  Biso   1.000  C
  C363     1.0000 0.02680  0.33720  0.83760  Biso   1.000  C
  C364     1.0000 0.98060  0.33500  0.80120  Biso   1.000  C
  C365     1.0000 0.97700  0.29520  0.78920  Biso   1.000  C
  C366     1.0000 0.03297  0.26633  0.84813  Biso   1.000  C
  C367     1.0000 0.04387  0.22813  0.87313  Biso   1.000  C
  C368     1.0000 0.12150  0.15860  0.87780  Biso   1.000  C
  C369     1.0000 0.05395  0.15385  0.91445  Biso   1.000  C
  C370     1.0000 0.98015  0.18805  0.93225  Biso   1.000  C
  C371     1.0000 0.97210  0.22608  0.91112  Biso   1.000  C
  C372     1.0000 0.88216  0.26148  0.93040  Biso   1.000  C
  C373     1.0000 0.47330  0.26312  0.98848  Biso   1.000  C
  C374     1.0000 0.51107  0.21772  0.99654  Biso   1.000  C
  C375     1.0000 0.61647  0.19634  0.97312  Biso   1.000  C
  C376     1.0000 0.64320  0.15455  0.97565  Biso   1.000  C
  C377     1.0000 0.56117  0.13405  0.99941  Biso   1.000  C
  C378     1.0000 0.43752  0.19487  0.02349  Biso   1.000  C
  C379     1.0000 0.32800  0.21207  0.05453  Biso   1.000  C
  C380     1.0000 0.13286  0.20267  0.08461  Biso   1.000  C
  C381     1.0000 0.11886  0.23538  0.10990  Biso   1.000  C
  C382     1.0000 0.21436  0.25691  0.10757  Biso   1.000  C
  C383     1.0000 0.32162  0.24578  0.07938  Biso   1.000  C
  C384     1.0000 0.42563  0.27053  0.07841  Biso   1.000  C
  N1       1.0000 0.70835  0.05722  0.30948  Biso   1.000  N
  N2       1.0000 0.51719  0.02332  0.34670  Biso   1.000  N
  N3       1.0000 0.02230  0.85555  0.30605  Biso   1.000  N
  N4       1.0000 0.18771  0.81148  0.23850  Biso   1.000  N
  N5       1.0000 0.11537  0.10678  0.05088  Biso   1.000  N
  N6       1.0000 0.28097  0.11367  0.09879  Biso   1.000  N
  N7       1.0000 0.64840  0.93194  0.99106  Biso   1.000  N
  N8       1.0000 0.71431  0.85865  0.02793  Biso   1.000  N
  N9       1.0000 0.57505  0.44278  0.19052  Biso   1.000  N
  N10      1.0000 0.38721  0.47668  0.15330  Biso   1.000  N
  N11      1.0000 0.68390  0.64445  0.19395  Biso   1.000  N
  N12      1.0000 0.73769  0.68852  0.26150  Biso   1.000  N
  N13      1.0000 0.77303  0.39322  0.44912  Biso   1.000  N
  N14      1.0000 0.99343  0.38633  0.40121  Biso   1.000  N
  N15      1.0000 0.07140  0.56806  0.50894  Biso   1.000  N
  N16      1.0000 0.10089  0.64135  0.47207  Biso   1.000  N
  N17      1.0000 0.01783  0.69052  0.55722  Biso   1.000  N
  N18      1.0000 0.86389  0.65330  0.52332  Biso   1.000  N
  N19      1.0000 0.32835  0.69395  0.35555  Biso   1.000  N
  N20      1.0000 0.42621  0.76150  0.31148  Biso   1.000  N
  N21      1.0000 0.16625  0.94912  0.60678  Biso   1.000  N
  N22      1.0000 0.37976  0.90121  0.61367  Biso   1.000  N
  N23      1.0000 0.63946  0.00894  0.43194  Biso   1.000  N
  N24      1.0000 0.74224  0.97207  0.35865  Biso   1.000  N
  N25      1.0000 0.76557  0.80948  0.94278  Biso   1.000  N
  N26      1.0000 0.54051  0.84670  0.97668  Biso   1.000  N
  N27      1.0000 0.87785  0.80605  0.14445  Biso   1.000  N
  N28      1.0000 0.99919  0.73850  0.18852  Biso   1.000  N
  N29      1.0000 0.22215  0.55088  0.89322  Biso   1.000  N
  N30      1.0000 0.39464  0.59879  0.88633  Biso   1.000  N
  N31      1.0000 0.58034  0.49106  0.06806  Biso   1.000  N
  N32      1.0000 0.57296  0.52793  0.14135  Biso   1.000  N
  N33      1.0000 0.29165  0.94278  0.69052  Biso   1.000  N
  N34      1.0000 0.48281  0.97668  0.65330  Biso   1.000  N
  N35      1.0000 0.97770  0.14445  0.69395  Biso   1.000  N
  N36      1.0000 0.81229  0.18852  0.76150  Biso   1.000  N
  N37      1.0000 0.88463  0.89322  0.94912  Biso   1.000  N
  N38      1.0000 0.71903  0.88633  0.90121  Biso   1.000  N
  N39      1.0000 0.35160  0.06806  0.00894  Biso   1.000  N
  N40      1.0000 0.28569  0.14135  0.97207  Biso   1.000  N
  N41      1.0000 0.42495  0.55722  0.80948  Biso   1.000  N
  N42      1.0000 0.61279  0.52332  0.84670  Biso   1.000  N
  N43      1.0000 0.31610  0.35555  0.80605  Biso   1.000  N
  N44      1.0000 0.26231  0.31148  0.73850  Biso   1.000  N
  N45      1.0000 0.22697  0.60678  0.55088  Biso   1.000  N
  N46      1.0000 0.00657  0.61367  0.59879  Biso   1.000  N
  N47      1.0000 0.92860  0.43194  0.49106  Biso   1.000  N
  N48      1.0000 0.89911  0.35865  0.52793  Biso   1.000  N
  N49      1.0000 0.98217  0.30948  0.44278  Biso   1.000  N
  N50      1.0000 0.13611  0.34670  0.47668  Biso   1.000  N
  N51      1.0000 0.67165  0.30605  0.64445  Biso   1.000  N
  N52      1.0000 0.57379  0.23850  0.68852  Biso   1.000  N
  N53      1.0000 0.83375  0.05088  0.39322  Biso   1.000  N
  N54      1.0000 0.62024  0.09879  0.38633  Biso   1.000  N
  N55      1.0000 0.36054  0.99106  0.56806  Biso   1.000  N
  N56      1.0000 0.25776  0.02793  0.64135  Biso   1.000  N
  N57      1.0000 0.23443  0.19052  0.05722  Biso   1.000  N
  N58      1.0000 0.45949  0.15330  0.02332  Biso   1.000  N
  N59      1.0000 0.12215  0.19395  0.85555  Biso   1.000  N
  N60      1.0000 0.00081  0.26150  0.81148  Biso   1.000  N
  N61      1.0000 0.77785  0.44912  0.10678  Biso   1.000  N
  N62      1.0000 0.60536  0.40121  0.11367  Biso   1.000  N
  N63      1.0000 0.41966  0.50894  0.93194  Biso   1.000  N
  N64      1.0000 0.42704  0.47207  0.85865  Biso   1.000  N
  O1       1.0000 0.92012  0.09988  0.16088  Biso   1.000  O
  O2       1.0000 0.01645  0.07143  0.21087  Biso   1.000  O
  O3       1.0000 0.99129  0.99629  0.13293  Biso   1.000  O
  O4       1.0000 0.17186  0.01462  0.13726  Biso   1.000  O
  O5       1.0000 0.43639  0.02692  0.14050  Biso   1.000  O
  O6       1.0000 0.22506  0.92423  0.14005  Biso   1.000  O
  O7       1.0000 0.24402  0.03349  0.21887  Biso   1.000  O
  O8       1.0000 0.13476  0.96232  0.22296  Biso   1.000  O
  O9       1.0000 0.29640  0.91611  0.22569  Biso   1.000  O
  O10      1.0000 0.44268  0.94936  0.09508  Biso   1.000  O
  O11      1.0000 0.48562  0.91923  0.15253  Biso   1.000  O
  O12      1.0000 0.46603  0.97745  0.21649  Biso   1.000  O
  O13      1.0000 0.64796  0.99229  0.22419  Biso   1.000  O
  O14      1.0000 0.76127  0.04598  0.16108  Biso   1.000  O
  O15      1.0000 0.90427  0.00169  0.22477  Biso   1.000  O
  O16      1.0000 0.83419  0.94411  0.09351  Biso   1.000  O
  O17      1.0000 0.66905  0.98615  0.11955  Biso   1.000  O
  O18      1.0000 0.70385  0.91509  0.18001  Biso   1.000  O
  O19      1.0000 0.90461  0.91304  0.22214  Biso   1.000  O
  O20      1.0000 0.99057  0.91492  0.15874  Biso   1.000  O
  O21      1.0000 0.39068  0.07830  0.24954  Biso   1.000  O
  O22      1.0000 0.52626  0.07698  0.19150  Biso   1.000  O
  O23      1.0000 0.68088  0.40012  0.33912  Biso   1.000  O
  O24      1.0000 0.79875  0.42857  0.28913  Biso   1.000  O
  O25      1.0000 0.62051  0.50371  0.36707  Biso   1.000  O
  O26      1.0000 0.82374  0.48538  0.36274  Biso   1.000  O
  O27      1.0000 0.10381  0.47308  0.35950  Biso   1.000  O
  O28      1.0000 0.78934  0.57577  0.35995  Biso   1.000  O
  O29      1.0000 0.99638  0.46651  0.28113  Biso   1.000  O
  O30      1.0000 0.82004  0.53768  0.27704  Biso   1.000  O
  O31      1.0000 0.93820  0.58389  0.27431  Biso   1.000  O
  O32      1.0000 0.98712  0.55064  0.40492  Biso   1.000  O
  O33      1.0000 0.05738  0.58077  0.34747  Biso   1.000  O
  O34      1.0000 0.15997  0.52255  0.28351  Biso   1.000  O
  O35      1.0000 0.36444  0.50771  0.27581  Biso   1.000  O
  O36      1.0000 0.46833  0.45402  0.33892  Biso   1.000  O
  O37      1.0000 0.63073  0.49831  0.27523  Biso   1.000  O
  O38      1.0000 0.37181  0.55589  0.40649  Biso   1.000  O
  O39      1.0000 0.27475  0.51385  0.38045  Biso   1.000  O
  O40      1.0000 0.29895  0.58491  0.31999  Biso   1.000  O
  O41      1.0000 0.53979  0.58696  0.27786  Biso   1.000  O
  O42      1.0000 0.56423  0.58508  0.34126  Biso   1.000  O
  O43      1.0000 0.21852  0.42170  0.25046  Biso   1.000  O
  O44      1.0000 0.29474  0.42302  0.30850  Biso   1.000  O
  O45      1.0000 0.08100  0.83912  0.59988  Biso   1.000  O
  O46      1.0000 0.22732  0.78913  0.57143  Biso   1.000  O
  O47      1.0000 0.12422  0.86707  0.49629  Biso   1.000  O
  O48      1.0000 0.30912  0.86274  0.51462  Biso   1.000  O
  O49      1.0000 0.57689  0.85950  0.52692  Biso   1.000  O
  O50      1.0000 0.36511  0.85995  0.42423  Biso   1.000  O
  O51      1.0000 0.46289  0.78113  0.53349  Biso   1.000  O
  O52      1.0000 0.35772  0.77704  0.46232  Biso   1.000  O
  O53      1.0000 0.52209  0.77431  0.41611  Biso   1.000  O
  O54      1.0000 0.53776  0.90492  0.44936  Biso   1.000  O
  O55      1.0000 0.63815  0.84747  0.41923  Biso   1.000  O
  O56      1.0000 0.68252  0.78351  0.47745  Biso   1.000  O
  O57      1.0000 0.87215  0.77581  0.49229  Biso   1.000  O
  O58      1.0000 0.92235  0.83892  0.54598  Biso   1.000  O
  O59      1.0000 0.12904  0.77523  0.50169  Biso   1.000  O
  O60      1.0000 0.92770  0.90649  0.44411  Biso   1.000  O
  O61      1.0000 0.78860  0.88045  0.48615  Biso   1.000  O
  O62      1.0000 0.88386  0.81999  0.41509  Biso   1.000  O
  O63      1.0000 0.12675  0.77786  0.41304  Biso   1.000  O
  O64      1.0000 0.14931  0.84126  0.41492  Biso   1.000  O
  O65      1.0000 0.64022  0.75046  0.57830  Biso   1.000  O
  O66      1.0000 0.71776  0.80850  0.57698  Biso   1.000  O
  O67      1.0000 0.02000  0.66088  0.90012  Biso   1.000  O
  O68      1.0000 0.08788  0.71087  0.92857  Biso   1.000  O
  O69      1.0000 0.98758  0.63293  0.00371  Biso   1.000  O
  O70      1.0000 0.18648  0.63726  0.98538  Biso   1.000  O
  O71      1.0000 0.46331  0.64050  0.97308  Biso   1.000  O
  O72      1.0000 0.14929  0.64005  0.07577  Biso   1.000  O
  O73      1.0000 0.27751  0.71887  0.96651  Biso   1.000  O
  O74      1.0000 0.09708  0.72296  0.03768  Biso   1.000  O
  O75      1.0000 0.21251  0.72569  0.08389  Biso   1.000  O
  O76      1.0000 0.39204  0.59508  0.05064  Biso   1.000  O
  O77      1.0000 0.40485  0.65253  0.08077  Biso   1.000  O
  O78      1.0000 0.44348  0.71649  0.02255  Biso   1.000  O
  O79      1.0000 0.64025  0.72419  0.00771  Biso   1.000  O
  O80      1.0000 0.80725  0.66108  0.95402  Biso   1.000  O
  O81      1.0000 0.90596  0.72477  0.99831  Biso   1.000  O
  O82      1.0000 0.77830  0.59351  0.05589  Biso   1.000  O
  O83      1.0000 0.65520  0.61955  0.01385  Biso   1.000  O
  O84      1.0000 0.61894  0.68001  0.08491  Biso   1.000  O
  O85      1.0000 0.81765  0.72214  0.08696  Biso   1.000  O
  O86      1.0000 0.90549  0.65874  0.08508  Biso   1.000  O
  O87      1.0000 0.46898  0.74954  0.92170  Biso   1.000  O
  O88      1.0000 0.60324  0.69150  0.92302  Biso   1.000  O
  O89      1.0000 0.07988  0.90012  0.83912  Biso   1.000  O
  O90      1.0000 0.98355  0.92857  0.78913  Biso   1.000  O
  O91      1.0000 0.00871  0.00371  0.86707  Biso   1.000  O
  O92      1.0000 0.82814  0.98538  0.86274  Biso   1.000  O
  O93      1.0000 0.56361  0.97308  0.85950  Biso   1.000  O
  O94      1.0000 0.77494  0.07577  0.85995  Biso   1.000  O
  O95      1.0000 0.75598  0.96651  0.78113  Biso   1.000  O
  O96      1.0000 0.86524  0.03768  0.77704  Biso   1.000  O
  O97      1.0000 0.70360  0.08389  0.77431  Biso   1.000  O
  O98      1.0000 0.55732  0.05064  0.90492  Biso   1.000  O
  O99      1.0000 0.51438  0.08077  0.84747  Biso   1.000  O
  O100     1.0000 0.53397  0.02255  0.78351  Biso   1.000  O
  O101     1.0000 0.35204  0.00771  0.77581  Biso   1.000  O
  O102     1.0000 0.23873  0.95402  0.83892  Biso   1.000  O
  O103     1.0000 0.09573  0.99831  0.77523  Biso   1.000  O
  O104     1.0000 0.16581  0.05589  0.90649  Biso   1.000  O
  O105     1.0000 0.33095  0.01385  0.88045  Biso   1.000  O
  O106     1.0000 0.29615  0.08491  0.81999  Biso   1.000  O
  O107     1.0000 0.09539  0.08696  0.77786  Biso   1.000  O
  O108     1.0000 0.00943  0.08508  0.84126  Biso   1.000  O
  O109     1.0000 0.60932  0.92170  0.75046  Biso   1.000  O
  O110     1.0000 0.47374  0.92302  0.80850  Biso   1.000  O
  O111     1.0000 0.31912  0.59988  0.66088  Biso   1.000  O
  O112     1.0000 0.20125  0.57143  0.71087  Biso   1.000  O
  O113     1.0000 0.37949  0.49629  0.63293  Biso   1.000  O
  O114     1.0000 0.17626  0.51462  0.63726  Biso   1.000  O
  O115     1.0000 0.89619  0.52692  0.64050  Biso   1.000  O
  O116     1.0000 0.21066  0.42423  0.64005  Biso   1.000  O
  O117     1.0000 0.00362  0.53349  0.71887  Biso   1.000  O
  O118     1.0000 0.17996  0.46232  0.72296  Biso   1.000  O
  O119     1.0000 0.06180  0.41611  0.72569  Biso   1.000  O
  O120     1.0000 0.01288  0.44936  0.59508  Biso   1.000  O
  O121     1.0000 0.94262  0.41923  0.65253  Biso   1.000  O
  O122     1.0000 0.84003  0.47745  0.71649  Biso   1.000  O
  O123     1.0000 0.63556  0.49229  0.72419  Biso   1.000  O
  O124     1.0000 0.53167  0.54598  0.66108  Biso   1.000  O
  O125     1.0000 0.36927  0.50169  0.72477  Biso   1.000  O
  O126     1.0000 0.62819  0.44411  0.59351  Biso   1.000  O
  O127     1.0000 0.72525  0.48615  0.61955  Biso   1.000  O
  O128     1.0000 0.70105  0.41509  0.68001  Biso   1.000  O
  O129     1.0000 0.46021  0.41304  0.72214  Biso   1.000  O
  O130     1.0000 0.43577  0.41492  0.65874  Biso   1.000  O
  O131     1.0000 0.78148  0.57830  0.74954  Biso   1.000  O
  O132     1.0000 0.70526  0.57698  0.69150  Biso   1.000  O
  O133     1.0000 0.91900  0.16088  0.40012  Biso   1.000  O
  O134     1.0000 0.77268  0.21087  0.42857  Biso   1.000  O
  O135     1.0000 0.87578  0.13293  0.50371  Biso   1.000  O
  O136     1.0000 0.69088  0.13726  0.48538  Biso   1.000  O
  O137     1.0000 0.42311  0.14050  0.47308  Biso   1.000  O
  O138     1.0000 0.63489  0.14005  0.57577  Biso   1.000  O
  O139     1.0000 0.53711  0.21887  0.46651  Biso   1.000  O
  O140     1.0000 0.64228  0.22296  0.53768  Biso   1.000  O
  O141     1.0000 0.47791  0.22569  0.58389  Biso   1.000  O
  O142     1.0000 0.46224  0.09508  0.55064  Biso   1.000  O
  O143     1.0000 0.36185  0.15253  0.58077  Biso   1.000  O
  O144     1.0000 0.31748  0.21649  0.52255  Biso   1.000  O
  O145     1.0000 0.12785  0.22419  0.50771  Biso   1.000  O
  O146     1.0000 0.07765  0.16108  0.45402  Biso   1.000  O
  O147     1.0000 0.87096  0.22477  0.49831  Biso   1.000  O
  O148     1.0000 0.07230  0.09351  0.55589  Biso   1.000  O
  O149     1.0000 0.21140  0.11955  0.51385  Biso   1.000  O
  O150     1.0000 0.11614  0.18001  0.58491  Biso   1.000  O
  O151     1.0000 0.87325  0.22214  0.58696  Biso   1.000  O
  O152     1.0000 0.85069  0.15874  0.58508  Biso   1.000  O
  O153     1.0000 0.35978  0.24954  0.42170  Biso   1.000  O
  O154     1.0000 0.28224  0.19150  0.42302  Biso   1.000  O
  O155     1.0000 0.98000  0.33912  0.09988  Biso   1.000  O
  O156     1.0000 0.91212  0.28913  0.07143  Biso   1.000  O
  O157     1.0000 0.01242  0.36707  0.99629  Biso   1.000  O
  O158     1.0000 0.81352  0.36274  0.01462  Biso   1.000  O
  O159     1.0000 0.53669  0.35950  0.02692  Biso   1.000  O
  O160     1.0000 0.85071  0.35995  0.92423  Biso   1.000  O
  O161     1.0000 0.72249  0.28113  0.03349  Biso   1.000  O
  O162     1.0000 0.90292  0.27704  0.96232  Biso   1.000  O
  O163     1.0000 0.78749  0.27431  0.91611  Biso   1.000  O
  O164     1.0000 0.60796  0.40492  0.94936  Biso   1.000  O
  O165     1.0000 0.59515  0.34747  0.91923  Biso   1.000  O
  O166     1.0000 0.55652  0.28351  0.97745  Biso   1.000  O
  O167     1.0000 0.35975  0.27581  0.99229  Biso   1.000  O
  O168     1.0000 0.19275  0.33892  0.04598  Biso   1.000  O
  O169     1.0000 0.09404  0.27523  0.00169  Biso   1.000  O
  O170     1.0000 0.22170  0.40649  0.94411  Biso   1.000  O
  O171     1.0000 0.34480  0.38045  0.98615  Biso   1.000  O
  O172     1.0000 0.38106  0.31999  0.91509  Biso   1.000  O
  O173     1.0000 0.18235  0.27786  0.91304  Biso   1.000  O
  O174     1.0000 0.09451  0.34126  0.91492  Biso   1.000  O
  O175     1.0000 0.53102  0.25046  0.07830  Biso   1.000  O
  O176     1.0000 0.39676  0.30850  0.07698  Biso   1.000  O
