data_image0
_cell_length_a       11.1061
_cell_length_b       32.9123
_cell_length_c       32.9123
_cell_angle_alpha    88.3687
_cell_angle_beta     80.2864
_cell_angle_gamma    80.2864

_symmetry_space_group_name_H-M    P 1
_symmetry_int_tables_number       1

loop_
  _symmetry_equiv_pos_as_xyz
  'x, y, z'

loop_
  _atom_site_label
  _atom_site_occupancy
  _atom_site_fract_x
  _atom_site_fract_y
  _atom_site_fract_z
  _atom_site_thermal_displace_type
  _atom_site_B_iso_or_equiv
  _atom_site_type_symbol
  Eu1      1.0000 0.21288  0.32874  0.97210  Biso   1.000  Eu
  Eu2      1.0000 0.71145  0.32609  0.97443  Biso   1.000  Eu
  Eu3      1.0000 0.01372  0.17126  0.52790  Biso   1.000  Eu
  Eu4      1.0000 0.51197  0.17391  0.52557  Biso   1.000  Eu
  Eu5      1.0000 0.18498  0.02790  0.82874  Biso   1.000  Eu
  Eu6      1.0000 0.68588  0.02557  0.82609  Biso   1.000  Eu
  Eu7      1.0000 0.54163  0.47209  0.67126  Biso   1.000  Eu
  Eu8      1.0000 0.03754  0.47443  0.67391  Biso   1.000  Eu
  Eu9      1.0000 0.78712  0.67126  0.02790  Biso   1.000  Eu
  Eu10     1.0000 0.28855  0.67391  0.02557  Biso   1.000  Eu
  Eu11     1.0000 0.98628  0.82874  0.47210  Biso   1.000  Eu
  Eu12     1.0000 0.48803  0.82609  0.47443  Biso   1.000  Eu
  Eu13     1.0000 0.81502  0.97210  0.17126  Biso   1.000  Eu
  Eu14     1.0000 0.31412  0.97443  0.17391  Biso   1.000  Eu
  Eu15     1.0000 0.45838  0.52790  0.32874  Biso   1.000  Eu
  Eu16     1.0000 0.96246  0.52557  0.32609  Biso   1.000  Eu
  Co1      1.0000 0.41824  0.53614  0.87130  Biso   1.000  Co
  Co2      1.0000 0.32568  0.96386  0.62870  Biso   1.000  Co
  Co3      1.0000 0.28954  0.12870  0.03614  Biso   1.000  Co
  Co4      1.0000 0.95438  0.37130  0.46386  Biso   1.000  Co
  Co5      1.0000 0.58176  0.46386  0.12870  Biso   1.000  Co
  Co6      1.0000 0.67432  0.03614  0.37130  Biso   1.000  Co
  Co7      1.0000 0.71046  0.87130  0.96386  Biso   1.000  Co
  Co8      1.0000 0.04562  0.62870  0.53614  Biso   1.000  Co
  H1       1.0000 0.60780  0.36690  0.84330  Biso   1.000  H
  H2       1.0000 0.55510  0.40580  0.78740  Biso   1.000  H
  H3       1.0000 0.44700  0.47230  0.79870  Biso   1.000  H
  H4       1.0000 0.39650  0.55800  0.96800  Biso   1.000  H
  H5       1.0000 0.31310  0.52800  0.02800  Biso   1.000  H
  H6       1.0000 0.27440  0.46140  0.02680  Biso   1.000  H
  H7       1.0000 0.03340  0.43810  0.01770  Biso   1.000  H
  H8       1.0000 0.00240  0.49500  0.06200  Biso   1.000  H
  H9       1.0000 0.82980  0.50290  0.11310  Biso   1.000  H
  H10      1.0000 0.44390  0.38850  0.13910  Biso   1.000  H
  H11      1.0000 0.50140  0.31950  0.14850  Biso   1.000  H
  H12      1.0000 0.70800  0.28980  0.12740  Biso   1.000  H
  H13      1.0000 0.67370  0.21010  0.95570  Biso   1.000  H
  H14      1.0000 0.72360  0.13970  0.96170  Biso   1.000  H
  H15      1.0000 0.58100  0.10450  0.00010  Biso   1.000  H
  H16      1.0000 0.06780  0.18750  0.08670  Biso   1.000  H
  H17      1.0000 0.04600  0.24320  0.12900  Biso   1.000  H
  H18      1.0000 0.20980  0.27950  0.12490  Biso   1.000  H
  H19      1.0000 0.93570  0.18710  0.95770  Biso   1.000  H
  H20      1.0000 0.04860  0.12710  0.92810  Biso   1.000  H
  H21      1.0000 0.17260  0.13440  0.87100  Biso   1.000  H
  H22      1.0000 0.96530  0.29620  0.76080  Biso   1.000  H
  H23      1.0000 0.94230  0.36180  0.78760  Biso   1.000  H
  H24      1.0000 0.03520  0.36430  0.84690  Biso   1.000  H
  H25      1.0000 0.65350  0.28270  0.05130  Biso   1.000  H
  H26      1.0000 0.78570  0.28590  0.04830  Biso   1.000  H
  H27      1.0000 0.47270  0.36270  0.01770  Biso   1.000  H
  H28      1.0000 0.55760  0.38300  0.03380  Biso   1.000  H
  H29      1.0000 0.84660  0.38630  0.92830  Biso   1.000  H
  H30      1.0000 0.84840  0.35460  0.89840  Biso   1.000  H
  H31      1.0000 0.26000  0.32270  0.05610  Biso   1.000  H
  H32      1.0000 0.12470  0.33250  0.06050  Biso   1.000  H
  H33      1.0000 0.08330  0.27650  0.02830  Biso   1.000  H
  H34      1.0000 0.13680  0.25080  0.99400  Biso   1.000  H
  H35      1.0000 0.39890  0.29890  0.89910  Biso   1.000  H
  H36      1.0000 0.44760  0.32850  0.91770  Biso   1.000  H
  H37      1.0000 0.31800  0.13310  0.65670  Biso   1.000  H
  H38      1.0000 0.24830  0.09420  0.71260  Biso   1.000  H
  H39      1.0000 0.21800  0.02770  0.70130  Biso   1.000  H
  H40      1.0000 0.42250  0.94200  0.53200  Biso   1.000  H
  H41      1.0000 0.36910  0.97200  0.47200  Biso   1.000  H
  H42      1.0000 0.26260  0.03860  0.47320  Biso   1.000  H
  H43      1.0000 0.98920  0.06190  0.48230  Biso   1.000  H
  H44      1.0000 0.05940  0.00500  0.43800  Biso   1.000  H
  H45      1.0000 0.94580  0.99710  0.38690  Biso   1.000  H
  H46      1.0000 0.47150  0.11150  0.36090  Biso   1.000  H
  H47      1.0000 0.46940  0.18050  0.35150  Biso   1.000  H
  H48      1.0000 0.62520  0.21020  0.37260  Biso   1.000  H
  H49      1.0000 0.33950  0.28990  0.54430  Biso   1.000  H
  H50      1.0000 0.32500  0.36030  0.53830  Biso   1.000  H
  H51      1.0000 0.18560  0.39550  0.49990  Biso   1.000  H
  H52      1.0000 0.84200  0.31250  0.41330  Biso   1.000  H
  H53      1.0000 0.91820  0.25680  0.37100  Biso   1.000  H
  H54      1.0000 0.11420  0.22050  0.37510  Biso   1.000  H
  H55      1.0000 0.58050  0.31290  0.54230  Biso   1.000  H
  H56      1.0000 0.60380  0.37290  0.57190  Biso   1.000  H
  H57      1.0000 0.67800  0.36560  0.62900  Biso   1.000  H
  H58      1.0000 0.52230  0.20380  0.73920  Biso   1.000  H
  H59      1.0000 0.59170  0.13820  0.71240  Biso   1.000  H
  H60      1.0000 0.74640  0.13570  0.65310  Biso   1.000  H
  H61      1.0000 0.48750  0.21730  0.44870  Biso   1.000  H
  H62      1.0000 0.61990  0.21410  0.45170  Biso   1.000  H
  H63      1.0000 0.35310  0.13730  0.48230  Biso   1.000  H
  H64      1.0000 0.47440  0.11700  0.46620  Biso   1.000  H
  H65      1.0000 0.66120  0.11370  0.57170  Biso   1.000  H
  H66      1.0000 0.60140  0.14540  0.60160  Biso   1.000  H
  H67      1.0000 0.13880  0.17730  0.44390  Biso   1.000  H
  H68      1.0000 0.01770  0.16750  0.43950  Biso   1.000  H
  H69      1.0000 0.88810  0.22350  0.47170  Biso   1.000  H
  H70      1.0000 0.88160  0.24920  0.50600  Biso   1.000  H
  H71      1.0000 0.09690  0.20110  0.60090  Biso   1.000  H
  H72      1.0000 0.19380  0.17150  0.58230  Biso   1.000  H
  H73      1.0000 0.45110  0.15670  0.86690  Biso   1.000  H
  H74      1.0000 0.34250  0.21260  0.90580  Biso   1.000  H
  H75      1.0000 0.24570  0.20130  0.97230  Biso   1.000  H
  H76      1.0000 0.36450  0.03200  0.05800  Biso   1.000  H
  H77      1.0000 0.34110  0.97200  0.02800  Biso   1.000  H
  H78      1.0000 0.30120  0.97320  0.96140  Biso   1.000  H
  H79      1.0000 0.05110  0.98230  0.93810  Biso   1.000  H
  H80      1.0000 0.06440  0.93800  0.99500  Biso   1.000  H
  H81      1.0000 0.94290  0.88690  0.00290  Biso   1.000  H
  H82      1.0000 0.58300  0.86090  0.88850  Biso   1.000  H
  H83      1.0000 0.64990  0.85150  0.81950  Biso   1.000  H
  H84      1.0000 0.83540  0.87260  0.78980  Biso   1.000  H
  H85      1.0000 0.62940  0.04430  0.71010  Biso   1.000  H
  H86      1.0000 0.68530  0.03830  0.63970  Biso   1.000  H
  H87      1.0000 0.58110  0.99990  0.60450  Biso   1.000  H
  H88      1.0000 0.15450  0.91330  0.68750  Biso   1.000  H
  H89      1.0000 0.17500  0.87100  0.74320  Biso   1.000  H
  H90      1.0000 0.33470  0.87510  0.77950  Biso   1.000  H
  H91      1.0000 0.89340  0.04230  0.68710  Biso   1.000  H
  H92      1.0000 0.97670  0.07190  0.62710  Biso   1.000  H
  H93      1.0000 0.04360  0.12900  0.63440  Biso   1.000  H
  H94      1.0000 0.72610  0.23920  0.79620  Biso   1.000  H
  H95      1.0000 0.72990  0.21240  0.86180  Biso   1.000  H
  H96      1.0000 0.88210  0.15310  0.86430  Biso   1.000  H
  H97      1.0000 0.70480  0.94870  0.78270  Biso   1.000  H
  H98      1.0000 0.83400  0.95170  0.78590  Biso   1.000  H
  H99      1.0000 0.49040  0.98230  0.86270  Biso   1.000  H
  H100     1.0000 0.59140  0.96620  0.88300  Biso   1.000  H
  H101     1.0000 0.77490  0.07170  0.88630  Biso   1.000  H
  H102     1.0000 0.74680  0.10160  0.85460  Biso   1.000  H
  H103     1.0000 0.31610  0.94390  0.82270  Biso   1.000  H
  H104     1.0000 0.18520  0.93950  0.83250  Biso   1.000  H
  H105     1.0000 0.11160  0.97170  0.77650  Biso   1.000  H
  H106     1.0000 0.13080  0.00600  0.75080  Biso   1.000  H
  H107     1.0000 0.29800  0.10090  0.79890  Biso   1.000  H
  H108     1.0000 0.36530  0.08230  0.82850  Biso   1.000  H
  H109     1.0000 0.97470  0.34330  0.63310  Biso   1.000  H
  H110     1.0000 0.96090  0.28740  0.59420  Biso   1.000  H
  H111     1.0000 0.91930  0.29870  0.52770  Biso   1.000  H
  H112     1.0000 0.95450  0.46800  0.44200  Biso   1.000  H
  H113     1.0000 0.84110  0.52800  0.47200  Biso   1.000  H
  H114     1.0000 0.73580  0.52680  0.53860  Biso   1.000  H
  H115     1.0000 0.47150  0.51770  0.56190  Biso   1.000  H
  H116     1.0000 0.49740  0.56200  0.50500  Biso   1.000  H
  H117     1.0000 0.33270  0.61310  0.49710  Biso   1.000  H
  H118     1.0000 0.83240  0.63910  0.61150  Biso   1.000  H
  H119     1.0000 0.82090  0.64850  0.68050  Biso   1.000  H
  H120     1.0000 0.99780  0.62740  0.71020  Biso   1.000  H
  H121     1.0000 0.88380  0.45570  0.78990  Biso   1.000  H
  H122     1.0000 0.86330  0.46170  0.86030  Biso   1.000  H
  H123     1.0000 0.68550  0.50010  0.89550  Biso   1.000  H
  H124     1.0000 0.25530  0.58670  0.81250  Biso   1.000  H
  H125     1.0000 0.28920  0.62900  0.75680  Biso   1.000  H
  H126     1.0000 0.48930  0.62490  0.72050  Biso   1.000  H
  H127     1.0000 0.12280  0.45770  0.81290  Biso   1.000  H
  H128     1.0000 0.17570  0.42810  0.87290  Biso   1.000  H
  H129     1.0000 0.30700  0.37100  0.86560  Biso   1.000  H
  H130     1.0000 0.26150  0.26080  0.70380  Biso   1.000  H
  H131     1.0000 0.30410  0.28760  0.63820  Biso   1.000  H
  H132     1.0000 0.39950  0.34690  0.63570  Biso   1.000  H
  H133     1.0000 0.93620  0.55130  0.71730  Biso   1.000  H
  H134     1.0000 0.07160  0.54830  0.71410  Biso   1.000  H
  H135     1.0000 0.83540  0.51770  0.63730  Biso   1.000  H
  H136     1.0000 0.94060  0.53380  0.61700  Biso   1.000  H
  H137     1.0000 0.23290  0.42830  0.61370  Biso   1.000  H
  H138     1.0000 0.20300  0.39840  0.64540  Biso   1.000  H
  H139     1.0000 0.58270  0.55610  0.67730  Biso   1.000  H
  H140     1.0000 0.45720  0.56050  0.66750  Biso   1.000  H
  H141     1.0000 0.35980  0.52830  0.72350  Biso   1.000  H
  H142     1.0000 0.38760  0.49400  0.74920  Biso   1.000  H
  H143     1.0000 0.69780  0.39910  0.70110  Biso   1.000  H
  H144     1.0000 0.77610  0.41770  0.67150  Biso   1.000  H
  H145     1.0000 0.39220  0.63310  0.15670  Biso   1.000  H
  H146     1.0000 0.44490  0.59420  0.21260  Biso   1.000  H
  H147     1.0000 0.55300  0.52770  0.20130  Biso   1.000  H
  H148     1.0000 0.60350  0.44200  0.03200  Biso   1.000  H
  H149     1.0000 0.68690  0.47200  0.97200  Biso   1.000  H
  H150     1.0000 0.72560  0.53860  0.97320  Biso   1.000  H
  H151     1.0000 0.96660  0.56190  0.98230  Biso   1.000  H
  H152     1.0000 0.99760  0.50500  0.93800  Biso   1.000  H
  H153     1.0000 0.17020  0.49710  0.88690  Biso   1.000  H
  H154     1.0000 0.55610  0.61150  0.86090  Biso   1.000  H
  H155     1.0000 0.49860  0.68050  0.85150  Biso   1.000  H
  H156     1.0000 0.29200  0.71020  0.87260  Biso   1.000  H
  H157     1.0000 0.32630  0.78990  0.04430  Biso   1.000  H
  H158     1.0000 0.27640  0.86030  0.03830  Biso   1.000  H
  H159     1.0000 0.41900  0.89550  0.99990  Biso   1.000  H
  H160     1.0000 0.93220  0.81250  0.91330  Biso   1.000  H
  H161     1.0000 0.95400  0.75680  0.87100  Biso   1.000  H
  H162     1.0000 0.79020  0.72050  0.87510  Biso   1.000  H
  H163     1.0000 0.06430  0.81290  0.04230  Biso   1.000  H
  H164     1.0000 0.95140  0.87290  0.07190  Biso   1.000  H
  H165     1.0000 0.82740  0.86560  0.12900  Biso   1.000  H
  H166     1.0000 0.03470  0.70380  0.23920  Biso   1.000  H
  H167     1.0000 0.05770  0.63820  0.21240  Biso   1.000  H
  H168     1.0000 0.96480  0.63570  0.15310  Biso   1.000  H
  H169     1.0000 0.34650  0.71730  0.94870  Biso   1.000  H
  H170     1.0000 0.21430  0.71410  0.95170  Biso   1.000  H
  H171     1.0000 0.52730  0.63730  0.98230  Biso   1.000  H
  H172     1.0000 0.44240  0.61700  0.96620  Biso   1.000  H
  H173     1.0000 0.15340  0.61370  0.07170  Biso   1.000  H
  H174     1.0000 0.15160  0.64540  0.10160  Biso   1.000  H
  H175     1.0000 0.74000  0.67730  0.94390  Biso   1.000  H
  H176     1.0000 0.87530  0.66750  0.93950  Biso   1.000  H
  H177     1.0000 0.91670  0.72350  0.97170  Biso   1.000  H
  H178     1.0000 0.86320  0.74920  0.00600  Biso   1.000  H
  H179     1.0000 0.60110  0.70110  0.10090  Biso   1.000  H
  H180     1.0000 0.55240  0.67150  0.08230  Biso   1.000  H
  H181     1.0000 0.68200  0.86690  0.34330  Biso   1.000  H
  H182     1.0000 0.75170  0.90580  0.28740  Biso   1.000  H
  H183     1.0000 0.78200  0.97230  0.29870  Biso   1.000  H
  H184     1.0000 0.57750  0.05800  0.46800  Biso   1.000  H
  H185     1.0000 0.63090  0.02800  0.52800  Biso   1.000  H
  H186     1.0000 0.73740  0.96140  0.52680  Biso   1.000  H
  H187     1.0000 0.01080  0.93810  0.51770  Biso   1.000  H
  H188     1.0000 0.94060  0.99500  0.56200  Biso   1.000  H
  H189     1.0000 0.05420  0.00290  0.61310  Biso   1.000  H
  H190     1.0000 0.52850  0.88850  0.63910  Biso   1.000  H
  H191     1.0000 0.53060  0.81950  0.64850  Biso   1.000  H
  H192     1.0000 0.37480  0.78980  0.62740  Biso   1.000  H
  H193     1.0000 0.66050  0.71010  0.45570  Biso   1.000  H
  H194     1.0000 0.67500  0.63970  0.46170  Biso   1.000  H
  H195     1.0000 0.81440  0.60450  0.50010  Biso   1.000  H
  H196     1.0000 0.15800  0.68750  0.58670  Biso   1.000  H
  H197     1.0000 0.08180  0.74320  0.62900  Biso   1.000  H
  H198     1.0000 0.88580  0.77950  0.62490  Biso   1.000  H
  H199     1.0000 0.41950  0.68710  0.45770  Biso   1.000  H
  H200     1.0000 0.39620  0.62710  0.42810  Biso   1.000  H
  H201     1.0000 0.32200  0.63440  0.37100  Biso   1.000  H
  H202     1.0000 0.47770  0.79620  0.26080  Biso   1.000  H
  H203     1.0000 0.40830  0.86180  0.28760  Biso   1.000  H
  H204     1.0000 0.25360  0.86430  0.34690  Biso   1.000  H
  H205     1.0000 0.51250  0.78270  0.55130  Biso   1.000  H
  H206     1.0000 0.38010  0.78590  0.54830  Biso   1.000  H
  H207     1.0000 0.64690  0.86270  0.51770  Biso   1.000  H
  H208     1.0000 0.52560  0.88300  0.53380  Biso   1.000  H
  H209     1.0000 0.33880  0.88630  0.42830  Biso   1.000  H
  H210     1.0000 0.39860  0.85460  0.39840  Biso   1.000  H
  H211     1.0000 0.86120  0.82270  0.55610  Biso   1.000  H
  H212     1.0000 0.98230  0.83250  0.56050  Biso   1.000  H
  H213     1.0000 0.11190  0.77650  0.52830  Biso   1.000  H
  H214     1.0000 0.11840  0.75080  0.49400  Biso   1.000  H
  H215     1.0000 0.90310  0.79890  0.39910  Biso   1.000  H
  H216     1.0000 0.80620  0.82850  0.41770  Biso   1.000  H
  H217     1.0000 0.54890  0.84330  0.13310  Biso   1.000  H
  H218     1.0000 0.65750  0.78740  0.09420  Biso   1.000  H
  H219     1.0000 0.75430  0.79870  0.02770  Biso   1.000  H
  H220     1.0000 0.63550  0.96800  0.94200  Biso   1.000  H
  H221     1.0000 0.65890  0.02800  0.97200  Biso   1.000  H
  H222     1.0000 0.69880  0.02680  0.03860  Biso   1.000  H
  H223     1.0000 0.94890  0.01770  0.06190  Biso   1.000  H
  H224     1.0000 0.93560  0.06200  0.00500  Biso   1.000  H
  H225     1.0000 0.05710  0.11310  0.99710  Biso   1.000  H
  H226     1.0000 0.41700  0.13910  0.11150  Biso   1.000  H
  H227     1.0000 0.35010  0.14850  0.18050  Biso   1.000  H
  H228     1.0000 0.16460  0.12740  0.21020  Biso   1.000  H
  H229     1.0000 0.37060  0.95570  0.28990  Biso   1.000  H
  H230     1.0000 0.31470  0.96170  0.36030  Biso   1.000  H
  H231     1.0000 0.41890  0.00010  0.39550  Biso   1.000  H
  H232     1.0000 0.84550  0.08670  0.31250  Biso   1.000  H
  H233     1.0000 0.82500  0.12900  0.25680  Biso   1.000  H
  H234     1.0000 0.66530  0.12490  0.22050  Biso   1.000  H
  H235     1.0000 0.10660  0.95770  0.31290  Biso   1.000  H
  H236     1.0000 0.02330  0.92810  0.37290  Biso   1.000  H
  H237     1.0000 0.95640  0.87100  0.36560  Biso   1.000  H
  H238     1.0000 0.27390  0.76080  0.20380  Biso   1.000  H
  H239     1.0000 0.27010  0.78760  0.13820  Biso   1.000  H
  H240     1.0000 0.11790  0.84690  0.13570  Biso   1.000  H
  H241     1.0000 0.29520  0.05130  0.21730  Biso   1.000  H
  H242     1.0000 0.16600  0.04830  0.21410  Biso   1.000  H
  H243     1.0000 0.50960  0.01770  0.13730  Biso   1.000  H
  H244     1.0000 0.40860  0.03380  0.11700  Biso   1.000  H
  H245     1.0000 0.22510  0.92830  0.11370  Biso   1.000  H
  H246     1.0000 0.25320  0.89840  0.14540  Biso   1.000  H
  H247     1.0000 0.68390  0.05610  0.17730  Biso   1.000  H
  H248     1.0000 0.81480  0.06050  0.16750  Biso   1.000  H
  H249     1.0000 0.88840  0.02830  0.22350  Biso   1.000  H
  H250     1.0000 0.86920  0.99400  0.24920  Biso   1.000  H
  H251     1.0000 0.70200  0.89910  0.20110  Biso   1.000  H
  H252     1.0000 0.63470  0.91770  0.17150  Biso   1.000  H
  H253     1.0000 0.02530  0.65670  0.36690  Biso   1.000  H
  H254     1.0000 0.03910  0.71260  0.40580  Biso   1.000  H
  H255     1.0000 0.08070  0.70130  0.47230  Biso   1.000  H
  H256     1.0000 0.04550  0.53200  0.55800  Biso   1.000  H
  H257     1.0000 0.15890  0.47200  0.52800  Biso   1.000  H
  H258     1.0000 0.26420  0.47320  0.46140  Biso   1.000  H
  H259     1.0000 0.52850  0.48230  0.43810  Biso   1.000  H
  H260     1.0000 0.50260  0.43800  0.49500  Biso   1.000  H
  H261     1.0000 0.66730  0.38690  0.50290  Biso   1.000  H
  H262     1.0000 0.16760  0.36090  0.38850  Biso   1.000  H
  H263     1.0000 0.17910  0.35150  0.31950  Biso   1.000  H
  H264     1.0000 0.00220  0.37260  0.28980  Biso   1.000  H
  H265     1.0000 0.11620  0.54430  0.21010  Biso   1.000  H
  H266     1.0000 0.13670  0.53830  0.13970  Biso   1.000  H
  H267     1.0000 0.31450  0.49990  0.10450  Biso   1.000  H
  H268     1.0000 0.74470  0.41330  0.18750  Biso   1.000  H
  H269     1.0000 0.71080  0.37100  0.24320  Biso   1.000  H
  H270     1.0000 0.51070  0.37510  0.27950  Biso   1.000  H
  H271     1.0000 0.87720  0.54230  0.18710  Biso   1.000  H
  H272     1.0000 0.82430  0.57190  0.12710  Biso   1.000  H
  H273     1.0000 0.69300  0.62900  0.13440  Biso   1.000  H
  H274     1.0000 0.73850  0.73920  0.29620  Biso   1.000  H
  H275     1.0000 0.69590  0.71240  0.36180  Biso   1.000  H
  H276     1.0000 0.60050  0.65310  0.36430  Biso   1.000  H
  H277     1.0000 0.06380  0.44870  0.28270  Biso   1.000  H
  H278     1.0000 0.92840  0.45170  0.28590  Biso   1.000  H
  H279     1.0000 0.16460  0.48230  0.36270  Biso   1.000  H
  H280     1.0000 0.05940  0.46620  0.38300  Biso   1.000  H
  H281     1.0000 0.76710  0.57170  0.38630  Biso   1.000  H
  H282     1.0000 0.79700  0.60160  0.35460  Biso   1.000  H
  H283     1.0000 0.41730  0.44390  0.32270  Biso   1.000  H
  H284     1.0000 0.54280  0.43950  0.33250  Biso   1.000  H
  H285     1.0000 0.64020  0.47170  0.27650  Biso   1.000  H
  H286     1.0000 0.61240  0.50600  0.25080  Biso   1.000  H
  H287     1.0000 0.30220  0.60090  0.29890  Biso   1.000  H
  H288     1.0000 0.22390  0.58230  0.32850  Biso   1.000  H
  C1       1.0000 0.58150  0.38650  0.92190  Biso   1.000  C
  C2       1.0000 0.52829  0.40988  0.88754  Biso   1.000  C
  C3       1.0000 0.56330  0.39350  0.84730  Biso   1.000  C
  C4       1.0000 0.53250  0.41640  0.81400  Biso   1.000  C
  C5       1.0000 0.46603  0.45618  0.82116  Biso   1.000  C
  C6       1.0000 0.45514  0.44869  0.89183  Biso   1.000  C
  C7       1.0000 0.40632  0.46899  0.93217  Biso   1.000  C
  C8       1.0000 0.38536  0.53060  0.96768  Biso   1.000  C
  C9       1.0000 0.33327  0.51303  0.00363  Biso   1.000  C
  C10      1.0000 0.31154  0.47317  0.00295  Biso   1.000  C
  C11      1.0000 0.34558  0.45020  0.96624  Biso   1.000  C
  C12      1.0000 0.30460  0.40885  0.96475  Biso   1.000  C
  C13      1.0000 0.91254  0.37650  0.01742  Biso   1.000  C
  C14      1.0000 0.89654  0.41044  0.04868  Biso   1.000  C
  C15      1.0000 0.97030  0.44080  0.04040  Biso   1.000  C
  C16      1.0000 0.95040  0.47530  0.06590  Biso   1.000  C
  C17      1.0000 0.84930  0.47900  0.09740  Biso   1.000  C
  C18      1.0000 0.80478  0.41489  0.08355  Biso   1.000  C
  C19      1.0000 0.72475  0.38383  0.10027  Biso   1.000  C
  C20      1.0000 0.52618  0.37669  0.13075  Biso   1.000  C
  C21      1.0000 0.55935  0.33551  0.13639  Biso   1.000  C
  C22      1.0000 0.68233  0.31782  0.12352  Biso   1.000  C
  C23      1.0000 0.76657  0.34221  0.10485  Biso   1.000  C
  C24      1.0000 0.89972  0.32210  0.09066  Biso   1.000  C
  C25      1.0000 0.47693  0.26286  0.98888  Biso   1.000  C
  C26      1.0000 0.51473  0.21715  0.99679  Biso   1.000  C
  C27      1.0000 0.62114  0.19576  0.97336  Biso   1.000  C
  C28      1.0000 0.64960  0.15390  0.97590  Biso   1.000  C
  C29      1.0000 0.56590  0.13310  0.00010  Biso   1.000  C
  C30      1.0000 0.44037  0.19441  0.02385  Biso   1.000  C
  C31      1.0000 0.33053  0.21179  0.05435  Biso   1.000  C
  C32      1.0000 0.13266  0.20232  0.08496  Biso   1.000  C
  C33      1.0000 0.11881  0.23540  0.11038  Biso   1.000  C
  C34      1.0000 0.21639  0.25715  0.10767  Biso   1.000  C
  C35      1.0000 0.32306  0.24581  0.07967  Biso   1.000  C
  C36      1.0000 0.43023  0.26986  0.07808  Biso   1.000  C
  C37      1.0000 0.88380  0.26060  0.93000  Biso   1.000  C
  C38      1.0000 0.97600  0.22560  0.91000  Biso   1.000  C
  C39      1.0000 0.98160  0.18780  0.93140  Biso   1.000  C
  C40      1.0000 0.05030  0.15270  0.91530  Biso   1.000  C
  C41      1.0000 0.11800  0.15790  0.88090  Biso   1.000  C
  C42      1.0000 0.04640  0.22830  0.87230  Biso   1.000  C
  C43      1.0000 0.03430  0.26700  0.84700  Biso   1.000  C
  C44      1.0000 0.98070  0.29900  0.78740  Biso   1.000  C
  C45      1.0000 0.97510  0.33840  0.80100  Biso   1.000  C
  C46      1.0000 0.02440  0.33910  0.83730  Biso   1.000  C
  C47      1.0000 0.05950  0.30220  0.86040  Biso   1.000  C
  C48      1.0000 0.11790  0.30680  0.90020  Biso   1.000  C
  C49      1.0000 0.38990  0.11350  0.57810  Biso   1.000  C
  C50      1.0000 0.32571  0.09012  0.61246  Biso   1.000  C
  C51      1.0000 0.30410  0.10650  0.65270  Biso   1.000  C
  C52      1.0000 0.26290  0.08360  0.68600  Biso   1.000  C
  C53      1.0000 0.24337  0.04382  0.67884  Biso   1.000  C
  C54      1.0000 0.29566  0.05131  0.60817  Biso   1.000  C
  C55      1.0000 0.30748  0.03101  0.56783  Biso   1.000  C
  C56      1.0000 0.38364  0.96940  0.53232  Biso   1.000  C
  C57      1.0000 0.34993  0.98697  0.49637  Biso   1.000  C
  C58      1.0000 0.28766  0.02683  0.49705  Biso   1.000  C
  C59      1.0000 0.26202  0.04980  0.53376  Biso   1.000  C
  C60      1.0000 0.17820  0.09115  0.53525  Biso   1.000  C
  C61      1.0000 0.80646  0.12350  0.48258  Biso   1.000  C
  C62      1.0000 0.85566  0.08956  0.45132  Biso   1.000  C
  C63      1.0000 0.95150  0.05920  0.45960  Biso   1.000  C
  C64      1.0000 0.99160  0.02470  0.43410  Biso   1.000  C
  C65      1.0000 0.92570  0.02100  0.40260  Biso   1.000  C
  C66      1.0000 0.80322  0.08511  0.41645  Biso   1.000  C
  C67      1.0000 0.70885  0.11617  0.39973  Biso   1.000  C
  C68      1.0000 0.53362  0.12331  0.36925  Biso   1.000  C
  C69      1.0000 0.53125  0.16449  0.36361  Biso   1.000  C
  C70      1.0000 0.62367  0.18218  0.37648  Biso   1.000  C
  C71      1.0000 0.71363  0.15779  0.39515  Biso   1.000  C
  C72      1.0000 0.81248  0.17790  0.40934  Biso   1.000  C
  C73      1.0000 0.22867  0.23714  0.51112  Biso   1.000  C
  C74      1.0000 0.22867  0.28285  0.50321  Biso   1.000  C
  C75      1.0000 0.29026  0.30424  0.52664  Biso   1.000  C
  C76      1.0000 0.27940  0.34610  0.52410  Biso   1.000  C
  C77      1.0000 0.19910  0.36690  0.49990  Biso   1.000  C
  C78      1.0000 0.15863  0.30559  0.47615  Biso   1.000  C
  C79      1.0000 0.09667  0.28821  0.44565  Biso   1.000  C
  C80      1.0000 0.91994  0.29768  0.41504  Biso   1.000  C
  C81      1.0000 0.96459  0.26460  0.38962  Biso   1.000  C
  C82      1.0000 0.08121  0.24285  0.39233  Biso   1.000  C
  C83      1.0000 0.14854  0.25419  0.42033  Biso   1.000  C
  C84      1.0000 0.27817  0.23014  0.42192  Biso   1.000  C
  C85      1.0000 0.57440  0.23940  0.57000  Biso   1.000  C
  C86      1.0000 0.61160  0.27440  0.59000  Biso   1.000  C
  C87      1.0000 0.60080  0.31220  0.56860  Biso   1.000  C
  C88      1.0000 0.61830  0.34730  0.58470  Biso   1.000  C
  C89      1.0000 0.65680  0.34210  0.61910  Biso   1.000  C
  C90      1.0000 0.64700  0.27170  0.62770  Biso   1.000  C
  C91      1.0000 0.64830  0.23300  0.65300  Biso   1.000  C
  C92      1.0000 0.56710  0.20100  0.71260  Biso   1.000  C
  C93      1.0000 0.61450  0.16160  0.69900  Biso   1.000  C
  C94      1.0000 0.70080  0.16090  0.66270  Biso   1.000  C
  C95      1.0000 0.72210  0.19780  0.63960  Biso   1.000  C
  C96      1.0000 0.82490  0.19320  0.59980  Biso   1.000  C
  C97      1.0000 0.50340  0.07810  0.88650  Biso   1.000  C
  C98      1.0000 0.41583  0.11246  0.90988  Biso   1.000  C
  C99      1.0000 0.41060  0.15270  0.89350  Biso   1.000  C
  C100     1.0000 0.34650  0.18600  0.91640  Biso   1.000  C
  C101     1.0000 0.28719  0.17884  0.95618  Biso   1.000  C
  C102     1.0000 0.34697  0.10817  0.94869  Biso   1.000  C
  C103     1.0000 0.33849  0.06783  0.96899  Biso   1.000  C
  C104     1.0000 0.35304  0.03232  0.03060  Biso   1.000  C
  C105     1.0000 0.33690  0.99637  0.01303  Biso   1.000  C
  C106     1.0000 0.31449  0.99705  0.97317  Biso   1.000  C
  C107     1.0000 0.31182  0.03376  0.95020  Biso   1.000  C
  C108     1.0000 0.26935  0.03525  0.90885  Biso   1.000  C
  C109     1.0000 0.92996  0.98258  0.87650  Biso   1.000  C
  C110     1.0000 0.94522  0.95132  0.91044  Biso   1.000  C
  C111     1.0000 0.01070  0.95960  0.94080  Biso   1.000  C
  C112     1.0000 0.01630  0.93410  0.97530  Biso   1.000  C
  C113     1.0000 0.94670  0.90260  0.97900  Biso   1.000  C
  C114     1.0000 0.88833  0.91645  0.91489  Biso   1.000  C
  C115     1.0000 0.82502  0.89973  0.88383  Biso   1.000  C
  C116     1.0000 0.65693  0.86925  0.87669  Biso   1.000  C
  C117     1.0000 0.69574  0.86361  0.83551  Biso   1.000  C
  C118     1.0000 0.80585  0.87648  0.81782  Biso   1.000  C
  C119     1.0000 0.87142  0.89515  0.84221  Biso   1.000  C
  C120     1.0000 0.99038  0.90934  0.82210  Biso   1.000  C
  C121     1.0000 0.46581  0.01112  0.76286  Biso   1.000  C
  C122     1.0000 0.51152  0.00321  0.71715  Biso   1.000  C
  C123     1.0000 0.59450  0.02664  0.69576  Biso   1.000  C
  C124     1.0000 0.62550  0.02410  0.65390  Biso   1.000  C
  C125     1.0000 0.56600  0.99990  0.63310  Biso   1.000  C
  C126     1.0000 0.46422  0.97615  0.69441  Biso   1.000  C
  C127     1.0000 0.38488  0.94565  0.71179  Biso   1.000  C
  C128     1.0000 0.21762  0.91504  0.70232  Biso   1.000  C
  C129     1.0000 0.22919  0.88962  0.73540  Biso   1.000  C
  C130     1.0000 0.32406  0.89233  0.75715  Biso   1.000  C
  C131     1.0000 0.40273  0.92033  0.74581  Biso   1.000  C
  C132     1.0000 0.50831  0.92192  0.76986  Biso   1.000  C
  C133     1.0000 0.81380  0.07000  0.76060  Biso   1.000  C
  C134     1.0000 0.88600  0.09000  0.72560  Biso   1.000  C
  C135     1.0000 0.91300  0.06860  0.68780  Biso   1.000  C
  C136     1.0000 0.96560  0.08470  0.65270  Biso   1.000  C
  C137     1.0000 0.99890  0.11910  0.65790  Biso   1.000  C
  C138     1.0000 0.91870  0.12770  0.72830  Biso   1.000  C
  C139     1.0000 0.88130  0.15300  0.76700  Biso   1.000  C
  C140     1.0000 0.76810  0.21260  0.79900  Biso   1.000  C
  C141     1.0000 0.77610  0.19900  0.83840  Biso   1.000  C
  C142     1.0000 0.86170  0.16270  0.83910  Biso   1.000  C
  C143     1.0000 0.91990  0.13960  0.80220  Biso   1.000  C
  C144     1.0000 0.01810  0.09980  0.80680  Biso   1.000  C
  C145     1.0000 0.96800  0.42190  0.61350  Biso   1.000  C
  C146     1.0000 0.93817  0.38754  0.59012  Biso   1.000  C
  C147     1.0000 0.95680  0.34730  0.60650  Biso   1.000  C
  C148     1.0000 0.94890  0.31400  0.58360  Biso   1.000  C
  C149     1.0000 0.92221  0.32116  0.54382  Biso   1.000  C
  C150     1.0000 0.90383  0.39183  0.55131  Biso   1.000  C
  C151     1.0000 0.87531  0.43217  0.53101  Biso   1.000  C
  C152     1.0000 0.91596  0.46768  0.46940  Biso   1.000  C
  C153     1.0000 0.84630  0.50363  0.48697  Biso   1.000  C
  C154     1.0000 0.78471  0.50295  0.52683  Biso   1.000  C
  C155     1.0000 0.79578  0.46624  0.54980  Biso   1.000  C
  C156     1.0000 0.71345  0.46475  0.59115  Biso   1.000  C
  C157     1.0000 0.28904  0.51742  0.62350  Biso   1.000  C
  C158     1.0000 0.30698  0.54868  0.58956  Biso   1.000  C
  C159     1.0000 0.41110  0.54040  0.55920  Biso   1.000  C
  C160     1.0000 0.42570  0.56590  0.52470  Biso   1.000  C
  C161     1.0000 0.32830  0.59740  0.52100  Biso   1.000  C
  C162     1.0000 0.21967  0.58355  0.58511  Biso   1.000  C
  C163     1.0000 0.10858  0.60027  0.61617  Biso   1.000  C
  C164     1.0000 0.90287  0.63075  0.62331  Biso   1.000  C
  C165     1.0000 0.89486  0.63639  0.66449  Biso   1.000  C
  C166     1.0000 0.00015  0.62352  0.68218  Biso   1.000  C
  C167     1.0000 0.10878  0.60485  0.65779  Biso   1.000  C
  C168     1.0000 0.22182  0.59066  0.67790  Biso   1.000  C
  C169     1.0000 0.73979  0.48888  0.73714  Biso   1.000  C
  C170     1.0000 0.73188  0.49679  0.78285  Biso   1.000  C
  C171     1.0000 0.81690  0.47336  0.80424  Biso   1.000  C
  C172     1.0000 0.80350  0.47590  0.84610  Biso   1.000  C
  C173     1.0000 0.69900  0.50010  0.86690  Biso   1.000  C
  C174     1.0000 0.63478  0.52385  0.80559  Biso   1.000  C
  C175     1.0000 0.54232  0.55435  0.78821  Biso   1.000  C
  C176     1.0000 0.33498  0.58496  0.79768  Biso   1.000  C
  C177     1.0000 0.35421  0.61038  0.76460  Biso   1.000  C
  C178     1.0000 0.47354  0.60767  0.74285  Biso   1.000  C
  C179     1.0000 0.56887  0.57967  0.75419  Biso   1.000  C
  C180     1.0000 0.70009  0.57808  0.73014  Biso   1.000  C
  C181     1.0000 0.14440  0.43000  0.73940  Biso   1.000  C
  C182     1.0000 0.20160  0.41000  0.77440  Biso   1.000  C
  C183     1.0000 0.16940  0.43140  0.81220  Biso   1.000  C
  C184     1.0000 0.20300  0.41530  0.84730  Biso   1.000  C
  C185     1.0000 0.27590  0.38090  0.84210  Biso   1.000  C
  C186     1.0000 0.27470  0.37230  0.77170  Biso   1.000  C
  C187     1.0000 0.30130  0.34700  0.73300  Biso   1.000  C
  C188     1.0000 0.27970  0.28740  0.70100  Biso   1.000  C
  C189     1.0000 0.31350  0.30100  0.66160  Biso   1.000  C
  C190     1.0000 0.36350  0.33730  0.66090  Biso   1.000  C
  C191     1.0000 0.36170  0.36040  0.69780  Biso   1.000  C
  C192     1.0000 0.42470  0.40020  0.69320  Biso   1.000  C
  C193     1.0000 0.41850  0.61350  0.07810  Biso   1.000  C
  C194     1.0000 0.47171  0.59012  0.11246  Biso   1.000  C
  C195     1.0000 0.43670  0.60650  0.15270  Biso   1.000  C
  C196     1.0000 0.46750  0.58360  0.18600  Biso   1.000  C
  C197     1.0000 0.53397  0.54382  0.17884  Biso   1.000  C
  C198     1.0000 0.54486  0.55131  0.10817  Biso   1.000  C
  C199     1.0000 0.59368  0.53101  0.06783  Biso   1.000  C
  C200     1.0000 0.61464  0.46940  0.03232  Biso   1.000  C
  C201     1.0000 0.66673  0.48697  0.99637  Biso   1.000  C
  C202     1.0000 0.68846  0.52683  0.99705  Biso   1.000  C
  C203     1.0000 0.65442  0.54980  0.03376  Biso   1.000  C
  C204     1.0000 0.69540  0.59115  0.03525  Biso   1.000  C
  C205     1.0000 0.08746  0.62350  0.98258  Biso   1.000  C
  C206     1.0000 0.10346  0.58956  0.95132  Biso   1.000  C
  C207     1.0000 0.02970  0.55920  0.95960  Biso   1.000  C
  C208     1.0000 0.04960  0.52470  0.93410  Biso   1.000  C
  C209     1.0000 0.15070  0.52100  0.90260  Biso   1.000  C
  C210     1.0000 0.19522  0.58511  0.91645  Biso   1.000  C
  C211     1.0000 0.27525  0.61617  0.89973  Biso   1.000  C
  C212     1.0000 0.47382  0.62331  0.86925  Biso   1.000  C
  C213     1.0000 0.44065  0.66449  0.86361  Biso   1.000  C
  C214     1.0000 0.31767  0.68218  0.87648  Biso   1.000  C
  C215     1.0000 0.23343  0.65779  0.89515  Biso   1.000  C
  C216     1.0000 0.10028  0.67790  0.90934  Biso   1.000  C
  C217     1.0000 0.52307  0.73714  0.01112  Biso   1.000  C
  C218     1.0000 0.48527  0.78285  0.00321  Biso   1.000  C
  C219     1.0000 0.37886  0.80424  0.02664  Biso   1.000  C
  C220     1.0000 0.35040  0.84610  0.02410  Biso   1.000  C
  C221     1.0000 0.43410  0.86690  0.99990  Biso   1.000  C
  C222     1.0000 0.55963  0.80559  0.97615  Biso   1.000  C
  C223     1.0000 0.66947  0.78821  0.94565  Biso   1.000  C
  C224     1.0000 0.86734  0.79768  0.91504  Biso   1.000  C
  C225     1.0000 0.88119  0.76460  0.88962  Biso   1.000  C
  C226     1.0000 0.78361  0.74285  0.89233  Biso   1.000  C
  C227     1.0000 0.67694  0.75419  0.92033  Biso   1.000  C
  C228     1.0000 0.56977  0.73014  0.92192  Biso   1.000  C
  C229     1.0000 0.11620  0.73940  0.07000  Biso   1.000  C
  C230     1.0000 0.02400  0.77440  0.09000  Biso   1.000  C
  C231     1.0000 0.01840  0.81220  0.06860  Biso   1.000  C
  C232     1.0000 0.94970  0.84730  0.08470  Biso   1.000  C
  C233     1.0000 0.88200  0.84210  0.11910  Biso   1.000  C
  C234     1.0000 0.95360  0.77170  0.12770  Biso   1.000  C
  C235     1.0000 0.96570  0.73300  0.15300  Biso   1.000  C
  C236     1.0000 0.01930  0.70100  0.21260  Biso   1.000  C
  C237     1.0000 0.02490  0.66160  0.19900  Biso   1.000  C
  C238     1.0000 0.97560  0.66090  0.16270  Biso   1.000  C
  C239     1.0000 0.94050  0.69780  0.13960  Biso   1.000  C
  C240     1.0000 0.88210  0.69320  0.09980  Biso   1.000  C
  C241     1.0000 0.61010  0.88650  0.42190  Biso   1.000  C
  C242     1.0000 0.67429  0.90988  0.38754  Biso   1.000  C
  C243     1.0000 0.69590  0.89350  0.34730  Biso   1.000  C
  C244     1.0000 0.73710  0.91640  0.31400  Biso   1.000  C
  C245     1.0000 0.75663  0.95618  0.32116  Biso   1.000  C
  C246     1.0000 0.70434  0.94869  0.39183  Biso   1.000  C
  C247     1.0000 0.69252  0.96899  0.43217  Biso   1.000  C
  C248     1.0000 0.61636  0.03060  0.46768  Biso   1.000  C
  C249     1.0000 0.65007  0.01303  0.50363  Biso   1.000  C
  C250     1.0000 0.71234  0.97317  0.50295  Biso   1.000  C
  C251     1.0000 0.73798  0.95020  0.46624  Biso   1.000  C
  C252     1.0000 0.82180  0.90885  0.46475  Biso   1.000  C
  C253     1.0000 0.19354  0.87650  0.51742  Biso   1.000  C
  C254     1.0000 0.14434  0.91044  0.54868  Biso   1.000  C
  C255     1.0000 0.04850  0.94080  0.54040  Biso   1.000  C
  C256     1.0000 0.00840  0.97530  0.56590  Biso   1.000  C
  C257     1.0000 0.07430  0.97900  0.59740  Biso   1.000  C
  C258     1.0000 0.19678  0.91489  0.58355  Biso   1.000  C
  C259     1.0000 0.29115  0.88383  0.60027  Biso   1.000  C
  C260     1.0000 0.46638  0.87669  0.63075  Biso   1.000  C
  C261     1.0000 0.46875  0.83551  0.63639  Biso   1.000  C
  C262     1.0000 0.37633  0.81782  0.62352  Biso   1.000  C
  C263     1.0000 0.28637  0.84221  0.60485  Biso   1.000  C
  C264     1.0000 0.18752  0.82210  0.59066  Biso   1.000  C
  C265     1.0000 0.77133  0.76286  0.48888  Biso   1.000  C
  C266     1.0000 0.77133  0.71715  0.49679  Biso   1.000  C
  C267     1.0000 0.70974  0.69576  0.47336  Biso   1.000  C
  C268     1.0000 0.72060  0.65390  0.47590  Biso   1.000  C
  C269     1.0000 0.80090  0.63310  0.50010  Biso   1.000  C
  C270     1.0000 0.84137  0.69441  0.52385  Biso   1.000  C
  C271     1.0000 0.90333  0.71179  0.55435  Biso   1.000  C
  C272     1.0000 0.08006  0.70232  0.58496  Biso   1.000  C
  C273     1.0000 0.03541  0.73540  0.61038  Biso   1.000  C
  C274     1.0000 0.91879  0.75715  0.60767  Biso   1.000  C
  C275     1.0000 0.85146  0.74581  0.57967  Biso   1.000  C
  C276     1.0000 0.72183  0.76986  0.57808  Biso   1.000  C
  C277     1.0000 0.42560  0.76060  0.43000  Biso   1.000  C
  C278     1.0000 0.38840  0.72560  0.41000  Biso   1.000  C
  C279     1.0000 0.39920  0.68780  0.43140  Biso   1.000  C
  C280     1.0000 0.38170  0.65270  0.41530  Biso   1.000  C
  C281     1.0000 0.34320  0.65790  0.38090  Biso   1.000  C
  C282     1.0000 0.35300  0.72830  0.37230  Biso   1.000  C
  C283     1.0000 0.35170  0.76700  0.34700  Biso   1.000  C
  C284     1.0000 0.43290  0.79900  0.28740  Biso   1.000  C
  C285     1.0000 0.38550  0.83840  0.30100  Biso   1.000  C
  C286     1.0000 0.29920  0.83910  0.33730  Biso   1.000  C
  C287     1.0000 0.27790  0.80220  0.36040  Biso   1.000  C
  C288     1.0000 0.17510  0.80680  0.40020  Biso   1.000  C
  C289     1.0000 0.49660  0.92190  0.11350  Biso   1.000  C
  C290     1.0000 0.58417  0.88754  0.09012  Biso   1.000  C
  C291     1.0000 0.58940  0.84730  0.10650  Biso   1.000  C
  C292     1.0000 0.65350  0.81400  0.08360  Biso   1.000  C
  C293     1.0000 0.71281  0.82116  0.04382  Biso   1.000  C
  C294     1.0000 0.65303  0.89183  0.05131  Biso   1.000  C
  C295     1.0000 0.66151  0.93217  0.03101  Biso   1.000  C
  C296     1.0000 0.64696  0.96768  0.96940  Biso   1.000  C
  C297     1.0000 0.66310  0.00363  0.98697  Biso   1.000  C
  C298     1.0000 0.68551  0.00295  0.02683  Biso   1.000  C
  C299     1.0000 0.68818  0.96624  0.04980  Biso   1.000  C
  C300     1.0000 0.73065  0.96475  0.09115  Biso   1.000  C
  C301     1.0000 0.07004  0.01742  0.12350  Biso   1.000  C
  C302     1.0000 0.05478  0.04868  0.08956  Biso   1.000  C
  C303     1.0000 0.98930  0.04040  0.05920  Biso   1.000  C
  C304     1.0000 0.98370  0.06590  0.02470  Biso   1.000  C
  C305     1.0000 0.05330  0.09740  0.02100  Biso   1.000  C
  C306     1.0000 0.11167  0.08355  0.08511  Biso   1.000  C
  C307     1.0000 0.17498  0.10027  0.11617  Biso   1.000  C
  C308     1.0000 0.34307  0.13075  0.12331  Biso   1.000  C
  C309     1.0000 0.30426  0.13639  0.16449  Biso   1.000  C
  C310     1.0000 0.19415  0.12352  0.18218  Biso   1.000  C
  C311     1.0000 0.12858  0.10485  0.15779  Biso   1.000  C
  C312     1.0000 0.00962  0.09066  0.17790  Biso   1.000  C
  C313     1.0000 0.53419  0.98888  0.23714  Biso   1.000  C
  C314     1.0000 0.48848  0.99679  0.28285  Biso   1.000  C
  C315     1.0000 0.40550  0.97336  0.30424  Biso   1.000  C
  C316     1.0000 0.37450  0.97590  0.34610  Biso   1.000  C
  C317     1.0000 0.43400  0.00010  0.36690  Biso   1.000  C
  C318     1.0000 0.53578  0.02385  0.30559  Biso   1.000  C
  C319     1.0000 0.61512  0.05435  0.28821  Biso   1.000  C
  C320     1.0000 0.78238  0.08496  0.29768  Biso   1.000  C
  C321     1.0000 0.77081  0.11038  0.26460  Biso   1.000  C
  C322     1.0000 0.67594  0.10767  0.24285  Biso   1.000  C
  C323     1.0000 0.59727  0.07967  0.25419  Biso   1.000  C
  C324     1.0000 0.49169  0.07808  0.23014  Biso   1.000  C
  C325     1.0000 0.18620  0.93000  0.23940  Biso   1.000  C
  C326     1.0000 0.11400  0.91000  0.27440  Biso   1.000  C
  C327     1.0000 0.08700  0.93140  0.31220  Biso   1.000  C
  C328     1.0000 0.03440  0.91530  0.34730  Biso   1.000  C
  C329     1.0000 0.00110  0.88090  0.34210  Biso   1.000  C
  C330     1.0000 0.08130  0.87230  0.27170  Biso   1.000  C
  C331     1.0000 0.11870  0.84700  0.23300  Biso   1.000  C
  C332     1.0000 0.23190  0.78740  0.20100  Biso   1.000  C
  C333     1.0000 0.22390  0.80100  0.16160  Biso   1.000  C
  C334     1.0000 0.13830  0.83730  0.16090  Biso   1.000  C
  C335     1.0000 0.08010  0.86040  0.19780  Biso   1.000  C
  C336     1.0000 0.98190  0.90020  0.19320  Biso   1.000  C
  C337     1.0000 0.03200  0.57810  0.38650  Biso   1.000  C
  C338     1.0000 0.06183  0.61246  0.40988  Biso   1.000  C
  C339     1.0000 0.04320  0.65270  0.39350  Biso   1.000  C
  C340     1.0000 0.05110  0.68600  0.41640  Biso   1.000  C
  C341     1.0000 0.07779  0.67884  0.45618  Biso   1.000  C
  C342     1.0000 0.09617  0.60817  0.44869  Biso   1.000  C
  C343     1.0000 0.12469  0.56783  0.46899  Biso   1.000  C
  C344     1.0000 0.08404  0.53232  0.53060  Biso   1.000  C
  C345     1.0000 0.15370  0.49637  0.51303  Biso   1.000  C
  C346     1.0000 0.21529  0.49705  0.47317  Biso   1.000  C
  C347     1.0000 0.20422  0.53376  0.45020  Biso   1.000  C
  C348     1.0000 0.28655  0.53525  0.40885  Biso   1.000  C
  C349     1.0000 0.71096  0.48258  0.37650  Biso   1.000  C
  C350     1.0000 0.69302  0.45132  0.41044  Biso   1.000  C
  C351     1.0000 0.58890  0.45960  0.44080  Biso   1.000  C
  C352     1.0000 0.57430  0.43410  0.47530  Biso   1.000  C
  C353     1.0000 0.67170  0.40260  0.47900  Biso   1.000  C
  C354     1.0000 0.78033  0.41645  0.41489  Biso   1.000  C
  C355     1.0000 0.89142  0.39973  0.38383  Biso   1.000  C
  C356     1.0000 0.09713  0.36925  0.37669  Biso   1.000  C
  C357     1.0000 0.10514  0.36361  0.33551  Biso   1.000  C
  C358     1.0000 0.99985  0.37648  0.31782  Biso   1.000  C
  C359     1.0000 0.89122  0.39515  0.34221  Biso   1.000  C
  C360     1.0000 0.77818  0.40934  0.32210  Biso   1.000  C
  C361     1.0000 0.26021  0.51112  0.26286  Biso   1.000  C
  C362     1.0000 0.26812  0.50321  0.21715  Biso   1.000  C
  C363     1.0000 0.18310  0.52664  0.19576  Biso   1.000  C
  C364     1.0000 0.19650  0.52410  0.15390  Biso   1.000  C
  C365     1.0000 0.30100  0.49990  0.13310  Biso   1.000  C
  C366     1.0000 0.36522  0.47615  0.19441  Biso   1.000  C
  C367     1.0000 0.45768  0.44565  0.21179  Biso   1.000  C
  C368     1.0000 0.66502  0.41504  0.20232  Biso   1.000  C
  C369     1.0000 0.64579  0.38962  0.23540  Biso   1.000  C
  C370     1.0000 0.52646  0.39233  0.25715  Biso   1.000  C
  C371     1.0000 0.43113  0.42033  0.24581  Biso   1.000  C
  C372     1.0000 0.29991  0.42192  0.26986  Biso   1.000  C
  C373     1.0000 0.85560  0.57000  0.26060  Biso   1.000  C
  C374     1.0000 0.79840  0.59000  0.22560  Biso   1.000  C
  C375     1.0000 0.83060  0.56860  0.18780  Biso   1.000  C
  C376     1.0000 0.79700  0.58470  0.15270  Biso   1.000  C
  C377     1.0000 0.72410  0.61910  0.15790  Biso   1.000  C
  C378     1.0000 0.72530  0.62770  0.22830  Biso   1.000  C
  C379     1.0000 0.69870  0.65300  0.26700  Biso   1.000  C
  C380     1.0000 0.72030  0.71260  0.29900  Biso   1.000  C
  C381     1.0000 0.68650  0.69900  0.33840  Biso   1.000  C
  C382     1.0000 0.63650  0.66270  0.33910  Biso   1.000  C
  C383     1.0000 0.63830  0.63960  0.30220  Biso   1.000  C
  C384     1.0000 0.57530  0.59980  0.30680  Biso   1.000  C
  N1       1.0000 0.00640  0.26390  0.80910  Biso   1.000  N
  N2       1.0000 0.12600  0.19210  0.85530  Biso   1.000  N
  N3       1.0000 0.23587  0.19021  0.05745  Biso   1.000  N
  N4       1.0000 0.46273  0.15274  0.02380  Biso   1.000  N
  N5       1.0000 0.42020  0.50914  0.93246  Biso   1.000  N
  N6       1.0000 0.42890  0.47197  0.85883  Biso   1.000  N
  N7       1.0000 0.77881  0.44989  0.10609  Biso   1.000  N
  N8       1.0000 0.60580  0.40103  0.11377  Biso   1.000  N
  N9       1.0000 0.57940  0.23610  0.69090  Biso   1.000  N
  N10      1.0000 0.67340  0.30790  0.64470  Biso   1.000  N
  N11      1.0000 0.98353  0.30979  0.44255  Biso   1.000  N
  N12      1.0000 0.13927  0.34726  0.47620  Biso   1.000  N
  N13      1.0000 0.36180  0.99086  0.56754  Biso   1.000  N
  N14      1.0000 0.25970  0.02803  0.64117  Biso   1.000  N
  N15      1.0000 0.83479  0.05011  0.39391  Biso   1.000  N
  N16      1.0000 0.62060  0.09897  0.38623  Biso   1.000  N
  N17      1.0000 0.81550  0.19090  0.76390  Biso   1.000  N
  N18      1.0000 0.98130  0.14470  0.69210  Biso   1.000  N
  N19      1.0000 0.29332  0.94255  0.69021  Biso   1.000  N
  N20      1.0000 0.48653  0.97620  0.65274  Biso   1.000  N
  N21      1.0000 0.35266  0.06754  0.00914  Biso   1.000  N
  N22      1.0000 0.28773  0.14117  0.97197  Biso   1.000  N
  N23      1.0000 0.88490  0.89391  0.94989  Biso   1.000  N
  N24      1.0000 0.71957  0.88623  0.90103  Biso   1.000  N
  N25      1.0000 0.27030  0.30910  0.73610  Biso   1.000  N
  N26      1.0000 0.31810  0.35530  0.80790  Biso   1.000  N
  N27      1.0000 0.42608  0.55745  0.80979  Biso   1.000  N
  N28      1.0000 0.61547  0.52380  0.84726  Biso   1.000  N
  N29      1.0000 0.92934  0.43246  0.49086  Biso   1.000  N
  N30      1.0000 0.90087  0.35883  0.52803  Biso   1.000  N
  N31      1.0000 0.22870  0.60609  0.55011  Biso   1.000  N
  N32      1.0000 0.00683  0.61377  0.59897  Biso   1.000  N
  N33      1.0000 0.99360  0.73610  0.19090  Biso   1.000  N
  N34      1.0000 0.87400  0.80790  0.14470  Biso   1.000  N
  N35      1.0000 0.76413  0.80979  0.94255  Biso   1.000  N
  N36      1.0000 0.53727  0.84726  0.97620  Biso   1.000  N
  N37      1.0000 0.57980  0.49086  0.06754  Biso   1.000  N
  N38      1.0000 0.57110  0.52803  0.14117  Biso   1.000  N
  N39      1.0000 0.22119  0.55011  0.89391  Biso   1.000  N
  N40      1.0000 0.39420  0.59897  0.88623  Biso   1.000  N
  N41      1.0000 0.42060  0.76390  0.30910  Biso   1.000  N
  N42      1.0000 0.32660  0.69210  0.35530  Biso   1.000  N
  N43      1.0000 0.01647  0.69021  0.55745  Biso   1.000  N
  N44      1.0000 0.86073  0.65274  0.52380  Biso   1.000  N
  N45      1.0000 0.63820  0.00914  0.43246  Biso   1.000  N
  N46      1.0000 0.74030  0.97197  0.35883  Biso   1.000  N
  N47      1.0000 0.16521  0.94989  0.60609  Biso   1.000  N
  N48      1.0000 0.37940  0.90103  0.61377  Biso   1.000  N
  N49      1.0000 0.18450  0.80910  0.23610  Biso   1.000  N
  N50      1.0000 0.01870  0.85530  0.30790  Biso   1.000  N
  N51      1.0000 0.70668  0.05745  0.30979  Biso   1.000  N
  N52      1.0000 0.51347  0.02380  0.34726  Biso   1.000  N
  N53      1.0000 0.64734  0.93246  0.99086  Biso   1.000  N
  N54      1.0000 0.71227  0.85883  0.02803  Biso   1.000  N
  N55      1.0000 0.11510  0.10609  0.05011  Biso   1.000  N
  N56      1.0000 0.28043  0.11377  0.09897  Biso   1.000  N
  N57      1.0000 0.72970  0.69090  0.26390  Biso   1.000  N
  N58      1.0000 0.68190  0.64470  0.19210  Biso   1.000  N
  N59      1.0000 0.57392  0.44255  0.19021  Biso   1.000  N
  N60      1.0000 0.38453  0.47620  0.15274  Biso   1.000  N
  N61      1.0000 0.07066  0.56754  0.50914  Biso   1.000  N
  N62      1.0000 0.09913  0.64117  0.47197  Biso   1.000  N
  N63      1.0000 0.77130  0.39391  0.44989  Biso   1.000  N
  N64      1.0000 0.99317  0.38623  0.40103  Biso   1.000  N
  O1       1.0000 0.53571  0.25020  0.07858  Biso   1.000  O
  O2       1.0000 0.40197  0.30839  0.07647  Biso   1.000  O
  O3       1.0000 0.72731  0.28065  0.03293  Biso   1.000  O
  O4       1.0000 0.54334  0.35896  0.02696  Biso   1.000  O
  O5       1.0000 0.85784  0.35866  0.92466  Biso   1.000  O
  O6       1.0000 0.61275  0.40456  0.94954  Biso   1.000  O
  O7       1.0000 0.59770  0.34682  0.91918  Biso   1.000  O
  O8       1.0000 0.56016  0.28333  0.97775  Biso   1.000  O
  O9       1.0000 0.36207  0.27537  0.99209  Biso   1.000  O
  O10      1.0000 0.19672  0.33905  0.04571  Biso   1.000  O
  O11      1.0000 0.09594  0.27524  0.00148  Biso   1.000  O
  O12      1.0000 0.38286  0.31926  0.91502  Biso   1.000  O
  O13      1.0000 0.22159  0.40585  0.94417  Biso   1.000  O
  O14      1.0000 0.35015  0.37934  0.98536  Biso   1.000  O
  O15      1.0000 0.18861  0.27724  0.91274  Biso   1.000  O
  O16      1.0000 0.09718  0.33972  0.91492  Biso   1.000  O
  O17      1.0000 0.01664  0.36726  0.99586  Biso   1.000  O
  O18      1.0000 0.81723  0.36195  0.01459  Biso   1.000  O
  O19      1.0000 0.91807  0.28910  0.07096  Biso   1.000  O
  O20      1.0000 0.98373  0.33987  0.09967  Biso   1.000  O
  O21      1.0000 0.90656  0.27662  0.96146  Biso   1.000  O
  O22      1.0000 0.78862  0.27360  0.91556  Biso   1.000  O
  O23      1.0000 0.36449  0.24980  0.42142  Biso   1.000  O
  O24      1.0000 0.28683  0.19161  0.42353  Biso   1.000  O
  O25      1.0000 0.54089  0.21935  0.46707  Biso   1.000  O
  O26      1.0000 0.42926  0.14104  0.47304  Biso   1.000  O
  O27      1.0000 0.64116  0.14134  0.57534  Biso   1.000  O
  O28      1.0000 0.46685  0.09544  0.55046  Biso   1.000  O
  O29      1.0000 0.36370  0.15318  0.58082  Biso   1.000  O
  O30      1.0000 0.32124  0.21667  0.52225  Biso   1.000  O
  O31      1.0000 0.12953  0.22463  0.50791  Biso   1.000  O
  O32      1.0000 0.08148  0.16095  0.45429  Biso   1.000  O
  O33      1.0000 0.87266  0.22476  0.49852  Biso   1.000  O
  O34      1.0000 0.11714  0.18074  0.58498  Biso   1.000  O
  O35      1.0000 0.07161  0.09415  0.55583  Biso   1.000  O
  O36      1.0000 0.21485  0.12066  0.51464  Biso   1.000  O
  O37      1.0000 0.87859  0.22276  0.58726  Biso   1.000  O
  O38      1.0000 0.85182  0.16028  0.58508  Biso   1.000  O
  O39      1.0000 0.87976  0.13274  0.50414  Biso   1.000  O
  O40      1.0000 0.69377  0.13805  0.48541  Biso   1.000  O
  O41      1.0000 0.77813  0.21090  0.42904  Biso   1.000  O
  O42      1.0000 0.92327  0.16013  0.40033  Biso   1.000  O
  O43      1.0000 0.64464  0.22338  0.53854  Biso   1.000  O
  O44      1.0000 0.47778  0.22640  0.58444  Biso   1.000  O
  O45      1.0000 0.61429  0.92142  0.75020  Biso   1.000  O
  O46      1.0000 0.47844  0.92353  0.80839  Biso   1.000  O
  O47      1.0000 0.76024  0.96707  0.78065  Biso   1.000  O
  O48      1.0000 0.57030  0.97304  0.85896  Biso   1.000  O
  O49      1.0000 0.78250  0.07534  0.85866  Biso   1.000  O
  O50      1.0000 0.56229  0.05046  0.90456  Biso   1.000  O
  O51      1.0000 0.51688  0.08082  0.84682  Biso   1.000  O
  O52      1.0000 0.53791  0.02225  0.78333  Biso   1.000  O
  O53      1.0000 0.35416  0.00791  0.77537  Biso   1.000  O
  O54      1.0000 0.24243  0.95429  0.83905  Biso   1.000  O
  O55      1.0000 0.09742  0.99852  0.77524  Biso   1.000  O
  O56      1.0000 0.29788  0.08498  0.81926  Biso   1.000  O
  O57      1.0000 0.16576  0.05583  0.90585  Biso   1.000  O
  O58      1.0000 0.33551  0.01464  0.87934  Biso   1.000  O
  O59      1.0000 0.10135  0.08726  0.77724  Biso   1.000  O
  O60      1.0000 0.01210  0.08508  0.83972  Biso   1.000  O
  O61      1.0000 0.01250  0.00414  0.86726  Biso   1.000  O
  O62      1.0000 0.83182  0.98541  0.86195  Biso   1.000  O
  O63      1.0000 0.98903  0.92904  0.78910  Biso   1.000  O
  O64      1.0000 0.08340  0.90033  0.83987  Biso   1.000  O
  O65      1.0000 0.86802  0.03854  0.77662  Biso   1.000  O
  O66      1.0000 0.70418  0.08444  0.77360  Biso   1.000  O
  O67      1.0000 0.78591  0.57858  0.74980  Biso   1.000  O
  O68      1.0000 0.71036  0.57647  0.69161  Biso   1.000  O
  O69      1.0000 0.00796  0.53293  0.71935  Biso   1.000  O
  O70      1.0000 0.90230  0.52696  0.64104  Biso   1.000  O
  O71      1.0000 0.21650  0.42466  0.64134  Biso   1.000  O
  O72      1.0000 0.01731  0.44954  0.59544  Biso   1.000  O
  O73      1.0000 0.94452  0.41918  0.65318  Biso   1.000  O
  O74      1.0000 0.84349  0.47775  0.71667  Biso   1.000  O
  O75      1.0000 0.63744  0.49209  0.72463  Biso   1.000  O
  O76      1.0000 0.53577  0.54571  0.66095  Biso   1.000  O
  O77      1.0000 0.37118  0.50148  0.72476  Biso   1.000  O
  O78      1.0000 0.70212  0.41502  0.68074  Biso   1.000  O
  O79      1.0000 0.62744  0.44417  0.59415  Biso   1.000  O
  O80      1.0000 0.72949  0.48536  0.62066  Biso   1.000  O
  O81      1.0000 0.46585  0.41274  0.72276  Biso   1.000  O
  O82      1.0000 0.43690  0.41492  0.66028  Biso   1.000  O
  O83      1.0000 0.38390  0.49586  0.63274  Biso   1.000  O
  O84      1.0000 0.17918  0.51459  0.63805  Biso   1.000  O
  O85      1.0000 0.20717  0.57096  0.71090  Biso   1.000  O
  O86      1.0000 0.32360  0.59967  0.66013  Biso   1.000  O
  O87      1.0000 0.18318  0.46146  0.72338  Biso   1.000  O
  O88      1.0000 0.06222  0.41556  0.72640  Biso   1.000  O
  O89      1.0000 0.46429  0.74980  0.92142  Biso   1.000  O
  O90      1.0000 0.59803  0.69161  0.92353  Biso   1.000  O
  O91      1.0000 0.27269  0.71935  0.96707  Biso   1.000  O
  O92      1.0000 0.45666  0.64104  0.97304  Biso   1.000  O
  O93      1.0000 0.14216  0.64134  0.07534  Biso   1.000  O
  O94      1.0000 0.38725  0.59544  0.05046  Biso   1.000  O
  O95      1.0000 0.40230  0.65318  0.08082  Biso   1.000  O
  O96      1.0000 0.43984  0.71667  0.02225  Biso   1.000  O
  O97      1.0000 0.63793  0.72463  0.00791  Biso   1.000  O
  O98      1.0000 0.80328  0.66095  0.95429  Biso   1.000  O
  O99      1.0000 0.90406  0.72476  0.99852  Biso   1.000  O
  O100     1.0000 0.61714  0.68074  0.08498  Biso   1.000  O
  O101     1.0000 0.77841  0.59415  0.05583  Biso   1.000  O
  O102     1.0000 0.64985  0.62066  0.01464  Biso   1.000  O
  O103     1.0000 0.81139  0.72276  0.08726  Biso   1.000  O
  O104     1.0000 0.90282  0.66028  0.08508  Biso   1.000  O
  O105     1.0000 0.98336  0.63274  0.00414  Biso   1.000  O
  O106     1.0000 0.18277  0.63805  0.98541  Biso   1.000  O
  O107     1.0000 0.08193  0.71090  0.92904  Biso   1.000  O
  O108     1.0000 0.01627  0.66013  0.90033  Biso   1.000  O
  O109     1.0000 0.09344  0.72338  0.03854  Biso   1.000  O
  O110     1.0000 0.21138  0.72640  0.08444  Biso   1.000  O
  O111     1.0000 0.63551  0.75020  0.57858  Biso   1.000  O
  O112     1.0000 0.71317  0.80839  0.57647  Biso   1.000  O
  O113     1.0000 0.45911  0.78065  0.53293  Biso   1.000  O
  O114     1.0000 0.57074  0.85896  0.52696  Biso   1.000  O
  O115     1.0000 0.35884  0.85866  0.42466  Biso   1.000  O
  O116     1.0000 0.53315  0.90456  0.44954  Biso   1.000  O
  O117     1.0000 0.63630  0.84682  0.41918  Biso   1.000  O
  O118     1.0000 0.67876  0.78333  0.47775  Biso   1.000  O
  O119     1.0000 0.87047  0.77537  0.49209  Biso   1.000  O
  O120     1.0000 0.91852  0.83905  0.54571  Biso   1.000  O
  O121     1.0000 0.12734  0.77524  0.50148  Biso   1.000  O
  O122     1.0000 0.88286  0.81926  0.41502  Biso   1.000  O
  O123     1.0000 0.92839  0.90585  0.44417  Biso   1.000  O
  O124     1.0000 0.78515  0.87934  0.48536  Biso   1.000  O
  O125     1.0000 0.12141  0.77724  0.41274  Biso   1.000  O
  O126     1.0000 0.14818  0.83972  0.41492  Biso   1.000  O
  O127     1.0000 0.12024  0.86726  0.49586  Biso   1.000  O
  O128     1.0000 0.30623  0.86195  0.51459  Biso   1.000  O
  O129     1.0000 0.22187  0.78910  0.57096  Biso   1.000  O
  O130     1.0000 0.07673  0.83987  0.59967  Biso   1.000  O
  O131     1.0000 0.35536  0.77662  0.46146  Biso   1.000  O
  O132     1.0000 0.52222  0.77360  0.41556  Biso   1.000  O
  O133     1.0000 0.38571  0.07858  0.24980  Biso   1.000  O
  O134     1.0000 0.52156  0.07647  0.19161  Biso   1.000  O
  O135     1.0000 0.23976  0.03293  0.21935  Biso   1.000  O
  O136     1.0000 0.42970  0.02696  0.14104  Biso   1.000  O
  O137     1.0000 0.21750  0.92466  0.14134  Biso   1.000  O
  O138     1.0000 0.43771  0.94954  0.09544  Biso   1.000  O
  O139     1.0000 0.48312  0.91918  0.15318  Biso   1.000  O
  O140     1.0000 0.46209  0.97775  0.21667  Biso   1.000  O
  O141     1.0000 0.64584  0.99209  0.22463  Biso   1.000  O
  O142     1.0000 0.75757  0.04571  0.16095  Biso   1.000  O
  O143     1.0000 0.90258  0.00148  0.22476  Biso   1.000  O
  O144     1.0000 0.70212  0.91502  0.18074  Biso   1.000  O
  O145     1.0000 0.83424  0.94417  0.09415  Biso   1.000  O
  O146     1.0000 0.66449  0.98536  0.12066  Biso   1.000  O
  O147     1.0000 0.89865  0.91274  0.22276  Biso   1.000  O
  O148     1.0000 0.98790  0.91492  0.16028  Biso   1.000  O
  O149     1.0000 0.98750  0.99586  0.13274  Biso   1.000  O
  O150     1.0000 0.16818  0.01459  0.13805  Biso   1.000  O
  O151     1.0000 0.01097  0.07096  0.21090  Biso   1.000  O
  O152     1.0000 0.91660  0.09967  0.16013  Biso   1.000  O
  O153     1.0000 0.13198  0.96146  0.22338  Biso   1.000  O
  O154     1.0000 0.29582  0.91556  0.22640  Biso   1.000  O
  O155     1.0000 0.21409  0.42142  0.25020  Biso   1.000  O
  O156     1.0000 0.28964  0.42353  0.30839  Biso   1.000  O
  O157     1.0000 0.99204  0.46707  0.28065  Biso   1.000  O
  O158     1.0000 0.09770  0.47304  0.35896  Biso   1.000  O
  O159     1.0000 0.78350  0.57534  0.35866  Biso   1.000  O
  O160     1.0000 0.98269  0.55046  0.40456  Biso   1.000  O
  O161     1.0000 0.05548  0.58082  0.34682  Biso   1.000  O
  O162     1.0000 0.15651  0.52225  0.28333  Biso   1.000  O
  O163     1.0000 0.36256  0.50791  0.27537  Biso   1.000  O
  O164     1.0000 0.46423  0.45429  0.33905  Biso   1.000  O
  O165     1.0000 0.62882  0.49852  0.27524  Biso   1.000  O
  O166     1.0000 0.29788  0.58498  0.31926  Biso   1.000  O
  O167     1.0000 0.37256  0.55583  0.40585  Biso   1.000  O
  O168     1.0000 0.27051  0.51464  0.37934  Biso   1.000  O
  O169     1.0000 0.53415  0.58726  0.27724  Biso   1.000  O
  O170     1.0000 0.56310  0.58508  0.33972  Biso   1.000  O
  O171     1.0000 0.61610  0.50414  0.36726  Biso   1.000  O
  O172     1.0000 0.82082  0.48541  0.36195  Biso   1.000  O
  O173     1.0000 0.79283  0.42904  0.28910  Biso   1.000  O
  O174     1.0000 0.67640  0.40033  0.33987  Biso   1.000  O
  O175     1.0000 0.81682  0.53854  0.27662  Biso   1.000  O
  O176     1.0000 0.93778  0.58444  0.27360  Biso   1.000  O
