data_image0
_cell_length_a       10.7836
_cell_length_b       32.4156
_cell_length_c       32.4156
_cell_angle_alpha    88.4146
_cell_angle_beta     80.4253
_cell_angle_gamma    80.4253

_symmetry_space_group_name_H-M    P 1
_symmetry_int_tables_number       1

loop_
  _symmetry_equiv_pos_as_xyz
  'x, y, z'

loop_
  _atom_site_label
  _atom_site_occupancy
  _atom_site_fract_x
  _atom_site_fract_y
  _atom_site_fract_z
  _atom_site_thermal_displace_type
  _atom_site_B_iso_or_equiv
  _atom_site_type_symbol
  Gd1      1.0000 0.80821  0.17183  0.97377  Biso   1.000  Gd
  Gd2      1.0000 0.30507  0.17527  0.97552  Biso   1.000  Gd
  Gd3      1.0000 0.45382  0.32817  0.52622  Biso   1.000  Gd
  Gd4      1.0000 0.95585  0.32473  0.52448  Biso   1.000  Gd
  Gd5      1.0000 0.78199  0.02622  0.67183  Biso   1.000  Gd
  Gd6      1.0000 0.28058  0.02448  0.67527  Biso   1.000  Gd
  Gd7      1.0000 0.98003  0.47378  0.82818  Biso   1.000  Gd
  Gd8      1.0000 0.48034  0.47552  0.82472  Biso   1.000  Gd
  Gd9      1.0000 0.19180  0.82817  0.02622  Biso   1.000  Gd
  Gd10     1.0000 0.69494  0.82473  0.02447  Biso   1.000  Gd
  Gd11     1.0000 0.54618  0.67183  0.47378  Biso   1.000  Gd
  Gd12     1.0000 0.04415  0.67527  0.47552  Biso   1.000  Gd
  Gd13     1.0000 0.21801  0.97378  0.32818  Biso   1.000  Gd
  Gd14     1.0000 0.71942  0.97552  0.32473  Biso   1.000  Gd
  Gd15     1.0000 0.01997  0.52622  0.17183  Biso   1.000  Gd
  Gd16     1.0000 0.51966  0.52448  0.17528  Biso   1.000  Gd
  Co1      1.0000 0.29358  0.03489  0.12759  Biso   1.000  Co
  Co2      1.0000 0.95606  0.46511  0.37241  Biso   1.000  Co
  Co3      1.0000 0.42117  0.87241  0.53489  Biso   1.000  Co
  Co4      1.0000 0.32847  0.62759  0.96511  Biso   1.000  Co
  Co5      1.0000 0.70642  0.96511  0.87241  Biso   1.000  Co
  Co6      1.0000 0.04394  0.53489  0.62759  Biso   1.000  Co
  Co7      1.0000 0.57883  0.12759  0.46511  Biso   1.000  Co
  Co8      1.0000 0.67153  0.37241  0.03489  Biso   1.000  Co
  H1       1.0000 0.06480  0.08420  0.18560  Biso   1.000  H
  H2       1.0000 0.04340  0.12770  0.24150  Biso   1.000  H
  H3       1.0000 0.20860  0.12470  0.27830  Biso   1.000  H
  H4       1.0000 0.68370  0.95600  0.20960  Biso   1.000  H
  H5       1.0000 0.73450  0.96210  0.13850  Biso   1.000  H
  H6       1.0000 0.58950  0.00070  0.10270  Biso   1.000  H
  H7       1.0000 0.25350  0.97080  0.20100  Biso   1.000  H
  H8       1.0000 0.35180  0.90380  0.21160  Biso   1.000  H
  H9       1.0000 0.47070  0.86710  0.15510  Biso   1.000  H
  H10      1.0000 0.30180  0.96030  0.97290  Biso   1.000  H
  H11      1.0000 0.34050  0.02750  0.97150  Biso   1.000  H
  H12      1.0000 0.36320  0.05800  0.03160  Biso   1.000  H
  H13      1.0000 0.05620  0.99500  0.11260  Biso   1.000  H
  H14      1.0000 0.93850  0.00190  0.06010  Biso   1.000  H
  H15      1.0000 0.94090  0.06030  0.01850  Biso   1.000  H
  H16      1.0000 0.16150  0.20840  0.12880  Biso   1.000  H
  H17      1.0000 0.35440  0.17960  0.14840  Biso   1.000  H
  H18      1.0000 0.42410  0.10980  0.13820  Biso   1.000  H
  H19      1.0000 0.95240  0.36820  0.87540  Biso   1.000  H
  H20      1.0000 0.03420  0.37400  0.92940  Biso   1.000  H
  H21      1.0000 0.10070  0.31120  0.95780  Biso   1.000  H
  H22      1.0000 0.12060  0.13510  0.85130  Biso   1.000  H
  H23      1.0000 0.27310  0.13520  0.78740  Biso   1.000  H
  H24      1.0000 0.25660  0.20180  0.75920  Biso   1.000  H
  H25      1.0000 0.67520  0.17550  0.05510  Biso   1.000  H
  H26      1.0000 0.80330  0.17200  0.05980  Biso   1.000  H
  H27      1.0000 0.85200  0.24960  0.00220  Biso   1.000  H
  H28      1.0000 0.97830  0.22540  0.99000  Biso   1.000  H
  H29      1.0000 0.69510  0.20730  0.90570  Biso   1.000  H
  H30      1.0000 0.61650  0.17700  0.92360  Biso   1.000  H
  H31      1.0000 0.25570  0.13990  0.90110  Biso   1.000  H
  H32      1.0000 0.13350  0.16300  0.92060  Biso   1.000  H
  H33      1.0000 0.15200  0.21850  0.04450  Biso   1.000  H
  H34      1.0000 0.24510  0.24480  0.02880  Biso   1.000  H
  H35      1.0000 0.43780  0.16080  0.04360  Biso   1.000  H
  H36      1.0000 0.49630  0.12890  0.01490  Biso   1.000  H
  H37      1.0000 0.83460  0.41580  0.31440  Biso   1.000  H
  H38      1.0000 0.91260  0.37230  0.25850  Biso   1.000  H
  H39      1.0000 0.11160  0.37530  0.22170  Biso   1.000  H
  H40      1.0000 0.34930  0.54400  0.29040  Biso   1.000  H
  H41      1.0000 0.33510  0.53790  0.36150  Biso   1.000  H
  H42      1.0000 0.19290  0.49930  0.39730  Biso   1.000  H
  H43      1.0000 0.92530  0.52920  0.29900  Biso   1.000  H
  H44      1.0000 0.96720  0.59620  0.28840  Biso   1.000  H
  H45      1.0000 0.99290  0.63290  0.34490  Biso   1.000  H
  H46      1.0000 0.73500  0.53970  0.52710  Biso   1.000  H
  H47      1.0000 0.83950  0.47250  0.52850  Biso   1.000  H
  H48      1.0000 0.95280  0.44200  0.46840  Biso   1.000  H
  H49      1.0000 0.66380  0.50500  0.38740  Biso   1.000  H
  H50      1.0000 0.50050  0.49810  0.43990  Biso   1.000  H
  H51      1.0000 0.51970  0.43970  0.48150  Biso   1.000  H
  H52      1.0000 0.99870  0.29160  0.37120  Biso   1.000  H
  H53      1.0000 0.18240  0.32040  0.35160  Biso   1.000  H
  H54      1.0000 0.17210  0.39020  0.36180  Biso   1.000  H
  H55      1.0000 0.69600  0.13180  0.62460  Biso   1.000  H
  H56      1.0000 0.83760  0.12600  0.57060  Biso   1.000  H
  H57      1.0000 0.86970  0.18880  0.54220  Biso   1.000  H
  H58      1.0000 0.60700  0.36490  0.64870  Biso   1.000  H
  H59      1.0000 0.69570  0.36480  0.71260  Biso   1.000  H
  H60      1.0000 0.71760  0.29820  0.74080  Biso   1.000  H
  H61      1.0000 0.40580  0.32450  0.44490  Biso   1.000  H
  H62      1.0000 0.53510  0.32800  0.44020  Biso   1.000  H
  H63      1.0000 0.60380  0.25040  0.49780  Biso   1.000  H
  H64      1.0000 0.69370  0.27460  0.51000  Biso   1.000  H
  H65      1.0000 0.30810  0.29270  0.59430  Biso   1.000  H
  H66      1.0000 0.21710  0.32300  0.57640  Biso   1.000  H
  H67      1.0000 0.79670  0.36010  0.59890  Biso   1.000  H
  H68      1.0000 0.71710  0.33700  0.57940  Biso   1.000  H
  H69      1.0000 0.91500  0.28150  0.45550  Biso   1.000  H
  H70      1.0000 0.01870  0.25520  0.47120  Biso   1.000  H
  H71      1.0000 0.14220  0.33920  0.45640  Biso   1.000  H
  H72      1.0000 0.14010  0.37110  0.48510  Biso   1.000  H
  H73      1.0000 0.25040  0.81440  0.58420  Biso   1.000  H
  H74      1.0000 0.28490  0.75850  0.62770  Biso   1.000  H
  H75      1.0000 0.48690  0.72170  0.62470  Biso   1.000  H
  H76      1.0000 0.89330  0.79040  0.45600  Biso   1.000  H
  H77      1.0000 0.87300  0.86150  0.46210  Biso   1.000  H
  H78      1.0000 0.69220  0.89730  0.50070  Biso   1.000  H
  H79      1.0000 0.45450  0.79900  0.47080  Biso   1.000  H
  H80      1.0000 0.56340  0.78840  0.40380  Biso   1.000  H
  H81      1.0000 0.62580  0.84490  0.36710  Biso   1.000  H
  H82      1.0000 0.27470  0.02710  0.46030  Biso   1.000  H
  H83      1.0000 0.31200  0.02850  0.52750  Biso   1.000  H
  H84      1.0000 0.39480  0.96840  0.55800  Biso   1.000  H
  H85      1.0000 0.16880  0.88740  0.49500  Biso   1.000  H
  H86      1.0000 0.99860  0.93990  0.50190  Biso   1.000  H
  H87      1.0000 0.95940  0.98150  0.56030  Biso   1.000  H
  H88      1.0000 0.29030  0.87120  0.70840  Biso   1.000  H
  H89      1.0000 0.50280  0.85160  0.67960  Biso   1.000  H
  H90      1.0000 0.56230  0.86180  0.60980  Biso   1.000  H
  H91      1.0000 0.82780  0.12460  0.86820  Biso   1.000  H
  H92      1.0000 0.96360  0.07060  0.87400  Biso   1.000  H
  H93      1.0000 0.05850  0.04220  0.81120  Biso   1.000  H
  H94      1.0000 0.97190  0.14870  0.63510  Biso   1.000  H
  H95      1.0000 0.06050  0.21260  0.63520  Biso   1.000  H
  H96      1.0000 0.01580  0.24080  0.70180  Biso   1.000  H
  H97      1.0000 0.73030  0.94490  0.67550  Biso   1.000  H
  H98      1.0000 0.86310  0.94020  0.67200  Biso   1.000  H
  H99      1.0000 0.85420  0.99780  0.74960  Biso   1.000  H
  H100     1.0000 0.96830  0.01000  0.72540  Biso   1.000  H
  H101     1.0000 0.60080  0.09430  0.70730  Biso   1.000  H
  H102     1.0000 0.54010  0.07640  0.67700  Biso   1.000  H
  H103     1.0000 0.15680  0.09890  0.63990  Biso   1.000  H
  H104     1.0000 0.05410  0.07940  0.66300  Biso   1.000  H
  H105     1.0000 0.19650  0.95550  0.71850  Biso   1.000  H
  H106     1.0000 0.27390  0.97120  0.74480  Biso   1.000  H
  H107     1.0000 0.48140  0.95640  0.66080  Biso   1.000  H
  H108     1.0000 0.51120  0.98510  0.62890  Biso   1.000  H
  H109     1.0000 0.14900  0.68560  0.91580  Biso   1.000  H
  H110     1.0000 0.17110  0.74150  0.87230  Biso   1.000  H
  H111     1.0000 0.33330  0.77830  0.87530  Biso   1.000  H
  H112     1.0000 0.63970  0.70960  0.04400  Biso   1.000  H
  H113     1.0000 0.69660  0.63850  0.03790  Biso   1.000  H
  H114     1.0000 0.59020  0.60270  0.99930  Biso   1.000  H
  H115     1.0000 0.22430  0.70100  0.02920  Biso   1.000  H
  H116     1.0000 0.25560  0.71160  0.09620  Biso   1.000  H
  H117     1.0000 0.33780  0.65510  0.13290  Biso   1.000  H
  H118     1.0000 0.26210  0.47290  0.03970  Biso   1.000  H
  H119     1.0000 0.36800  0.47150  0.97250  Biso   1.000  H
  H120     1.0000 0.42120  0.53160  0.94200  Biso   1.000  H
  H121     1.0000 0.05120  0.61260  0.00500  Biso   1.000  H
  H122     1.0000 0.94040  0.56010  0.99810  Biso   1.000  H
  H123     1.0000 0.00120  0.51850  0.93970  Biso   1.000  H
  H124     1.0000 0.36990  0.62880  0.79160  Biso   1.000  H
  H125     1.0000 0.53400  0.64840  0.82040  Biso   1.000  H
  H126     1.0000 0.53390  0.63820  0.89020  Biso   1.000  H
  H127     1.0000 0.32060  0.37540  0.63180  Biso   1.000  H
  H128     1.0000 0.40820  0.42940  0.62600  Biso   1.000  H
  H129     1.0000 0.41190  0.45780  0.68880  Biso   1.000  H
  H130     1.0000 0.25570  0.35130  0.86490  Biso   1.000  H
  H131     1.0000 0.40830  0.28740  0.86480  Biso   1.000  H
  H132     1.0000 0.45840  0.25920  0.79820  Biso   1.000  H
  H133     1.0000 0.85070  0.55510  0.82450  Biso   1.000  H
  H134     1.0000 0.97530  0.55980  0.82800  Biso   1.000  H
  H135     1.0000 0.10160  0.50220  0.75040  Biso   1.000  H
  H136     1.0000 0.20370  0.49000  0.77460  Biso   1.000  H
  H137     1.0000 0.90240  0.40570  0.79270  Biso   1.000  H
  H138     1.0000 0.79350  0.42360  0.82300  Biso   1.000  H
  H139     1.0000 0.39560  0.40110  0.86010  Biso   1.000  H
  H140     1.0000 0.29650  0.42060  0.83700  Biso   1.000  H
  H141     1.0000 0.37050  0.54450  0.78150  Biso   1.000  H
  H142     1.0000 0.48990  0.52880  0.75520  Biso   1.000  H
  H143     1.0000 0.59860  0.54360  0.83920  Biso   1.000  H
  H144     1.0000 0.62520  0.51490  0.87110  Biso   1.000  H
  H145     1.0000 0.93520  0.91580  0.81440  Biso   1.000  H
  H146     1.0000 0.95660  0.87230  0.75850  Biso   1.000  H
  H147     1.0000 0.79140  0.87530  0.72170  Biso   1.000  H
  H148     1.0000 0.31630  0.04400  0.79040  Biso   1.000  H
  H149     1.0000 0.26550  0.03790  0.86150  Biso   1.000  H
  H150     1.0000 0.41050  0.99930  0.89730  Biso   1.000  H
  H151     1.0000 0.74650  0.02920  0.79900  Biso   1.000  H
  H152     1.0000 0.64820  0.09620  0.78840  Biso   1.000  H
  H153     1.0000 0.52930  0.13290  0.84490  Biso   1.000  H
  H154     1.0000 0.69820  0.03970  0.02710  Biso   1.000  H
  H155     1.0000 0.65950  0.97250  0.02850  Biso   1.000  H
  H156     1.0000 0.63680  0.94200  0.96840  Biso   1.000  H
  H157     1.0000 0.94380  0.00500  0.88740  Biso   1.000  H
  H158     1.0000 0.06150  0.99810  0.93990  Biso   1.000  H
  H159     1.0000 0.05910  0.93970  0.98150  Biso   1.000  H
  H160     1.0000 0.83850  0.79160  0.87120  Biso   1.000  H
  H161     1.0000 0.64560  0.82040  0.85160  Biso   1.000  H
  H162     1.0000 0.57590  0.89020  0.86180  Biso   1.000  H
  H163     1.0000 0.04760  0.63180  0.12460  Biso   1.000  H
  H164     1.0000 0.96580  0.62600  0.07060  Biso   1.000  H
  H165     1.0000 0.89930  0.68880  0.04220  Biso   1.000  H
  H166     1.0000 0.87940  0.86490  0.14870  Biso   1.000  H
  H167     1.0000 0.72690  0.86480  0.21260  Biso   1.000  H
  H168     1.0000 0.74340  0.79820  0.24080  Biso   1.000  H
  H169     1.0000 0.32480  0.82450  0.94490  Biso   1.000  H
  H170     1.0000 0.19670  0.82800  0.94020  Biso   1.000  H
  H171     1.0000 0.14800  0.75040  0.99780  Biso   1.000  H
  H172     1.0000 0.02170  0.77460  0.01000  Biso   1.000  H
  H173     1.0000 0.30490  0.79270  0.09430  Biso   1.000  H
  H174     1.0000 0.38350  0.82300  0.07640  Biso   1.000  H
  H175     1.0000 0.74430  0.86010  0.09890  Biso   1.000  H
  H176     1.0000 0.86650  0.83700  0.07940  Biso   1.000  H
  H177     1.0000 0.84800  0.78150  0.95550  Biso   1.000  H
  H178     1.0000 0.75490  0.75520  0.97120  Biso   1.000  H
  H179     1.0000 0.56220  0.83920  0.95640  Biso   1.000  H
  H180     1.0000 0.50370  0.87110  0.98510  Biso   1.000  H
  H181     1.0000 0.16540  0.58420  0.68560  Biso   1.000  H
  H182     1.0000 0.08740  0.62770  0.74150  Biso   1.000  H
  H183     1.0000 0.88840  0.62470  0.77830  Biso   1.000  H
  H184     1.0000 0.65070  0.45600  0.70960  Biso   1.000  H
  H185     1.0000 0.66490  0.46210  0.63850  Biso   1.000  H
  H186     1.0000 0.80710  0.50070  0.60270  Biso   1.000  H
  H187     1.0000 0.07470  0.47080  0.70100  Biso   1.000  H
  H188     1.0000 0.03280  0.40380  0.71160  Biso   1.000  H
  H189     1.0000 0.00710  0.36710  0.65510  Biso   1.000  H
  H190     1.0000 0.26500  0.46030  0.47290  Biso   1.000  H
  H191     1.0000 0.16050  0.52750  0.47150  Biso   1.000  H
  H192     1.0000 0.04720  0.55800  0.53160  Biso   1.000  H
  H193     1.0000 0.33620  0.49500  0.61260  Biso   1.000  H
  H194     1.0000 0.49950  0.50190  0.56010  Biso   1.000  H
  H195     1.0000 0.48030  0.56030  0.51850  Biso   1.000  H
  H196     1.0000 0.00130  0.70840  0.62880  Biso   1.000  H
  H197     1.0000 0.81760  0.67960  0.64840  Biso   1.000  H
  H198     1.0000 0.82790  0.60980  0.63820  Biso   1.000  H
  H199     1.0000 0.30400  0.86820  0.37540  Biso   1.000  H
  H200     1.0000 0.16240  0.87400  0.42940  Biso   1.000  H
  H201     1.0000 0.13030  0.81120  0.45780  Biso   1.000  H
  H202     1.0000 0.39300  0.63510  0.35130  Biso   1.000  H
  H203     1.0000 0.30430  0.63520  0.28740  Biso   1.000  H
  H204     1.0000 0.28240  0.70180  0.25920  Biso   1.000  H
  H205     1.0000 0.59420  0.67550  0.55510  Biso   1.000  H
  H206     1.0000 0.46490  0.67200  0.55980  Biso   1.000  H
  H207     1.0000 0.39620  0.74960  0.50220  Biso   1.000  H
  H208     1.0000 0.30630  0.72540  0.49000  Biso   1.000  H
  H209     1.0000 0.69190  0.70730  0.40570  Biso   1.000  H
  H210     1.0000 0.78290  0.67700  0.42360  Biso   1.000  H
  H211     1.0000 0.20330  0.63990  0.40110  Biso   1.000  H
  H212     1.0000 0.28290  0.66300  0.42060  Biso   1.000  H
  H213     1.0000 0.08500  0.71850  0.54450  Biso   1.000  H
  H214     1.0000 0.98130  0.74480  0.52880  Biso   1.000  H
  H215     1.0000 0.85780  0.66080  0.54360  Biso   1.000  H
  H216     1.0000 0.85990  0.62890  0.51490  Biso   1.000  H
  H217     1.0000 0.74960  0.18560  0.41580  Biso   1.000  H
  H218     1.0000 0.71510  0.24150  0.37230  Biso   1.000  H
  H219     1.0000 0.51310  0.27830  0.37530  Biso   1.000  H
  H220     1.0000 0.10670  0.20960  0.54400  Biso   1.000  H
  H221     1.0000 0.12700  0.13850  0.53790  Biso   1.000  H
  H222     1.0000 0.30780  0.10270  0.49930  Biso   1.000  H
  H223     1.0000 0.54550  0.20100  0.52920  Biso   1.000  H
  H224     1.0000 0.43660  0.21160  0.59620  Biso   1.000  H
  H225     1.0000 0.37420  0.15510  0.63290  Biso   1.000  H
  H226     1.0000 0.72530  0.97290  0.53970  Biso   1.000  H
  H227     1.0000 0.68800  0.97150  0.47250  Biso   1.000  H
  H228     1.0000 0.60520  0.03160  0.44200  Biso   1.000  H
  H229     1.0000 0.83120  0.11260  0.50500  Biso   1.000  H
  H230     1.0000 0.00140  0.06010  0.49810  Biso   1.000  H
  H231     1.0000 0.04060  0.01850  0.43970  Biso   1.000  H
  H232     1.0000 0.70970  0.12880  0.29160  Biso   1.000  H
  H233     1.0000 0.49720  0.14840  0.32040  Biso   1.000  H
  H234     1.0000 0.43770  0.13820  0.39020  Biso   1.000  H
  H235     1.0000 0.17220  0.87540  0.13180  Biso   1.000  H
  H236     1.0000 0.03640  0.92940  0.12600  Biso   1.000  H
  H237     1.0000 0.94150  0.95780  0.18880  Biso   1.000  H
  H238     1.0000 0.02810  0.85130  0.36490  Biso   1.000  H
  H239     1.0000 0.93950  0.78740  0.36480  Biso   1.000  H
  H240     1.0000 0.98420  0.75920  0.29820  Biso   1.000  H
  H241     1.0000 0.26970  0.05510  0.32450  Biso   1.000  H
  H242     1.0000 0.13690  0.05980  0.32800  Biso   1.000  H
  H243     1.0000 0.14580  0.00220  0.25040  Biso   1.000  H
  H244     1.0000 0.03170  0.99000  0.27460  Biso   1.000  H
  H245     1.0000 0.39920  0.90570  0.29270  Biso   1.000  H
  H246     1.0000 0.45990  0.92360  0.32300  Biso   1.000  H
  H247     1.0000 0.84320  0.90110  0.36010  Biso   1.000  H
  H248     1.0000 0.94590  0.92060  0.33700  Biso   1.000  H
  H249     1.0000 0.80350  0.04450  0.28150  Biso   1.000  H
  H250     1.0000 0.72610  0.02880  0.25520  Biso   1.000  H
  H251     1.0000 0.51860  0.04360  0.33920  Biso   1.000  H
  H252     1.0000 0.48880  0.01490  0.37110  Biso   1.000  H
  H253     1.0000 0.85100  0.31440  0.08420  Biso   1.000  H
  H254     1.0000 0.82890  0.25850  0.12770  Biso   1.000  H
  H255     1.0000 0.66670  0.22170  0.12470  Biso   1.000  H
  H256     1.0000 0.36030  0.29040  0.95600  Biso   1.000  H
  H257     1.0000 0.30340  0.36150  0.96210  Biso   1.000  H
  H258     1.0000 0.40980  0.39730  0.00070  Biso   1.000  H
  H259     1.0000 0.77570  0.29900  0.97080  Biso   1.000  H
  H260     1.0000 0.74440  0.28840  0.90380  Biso   1.000  H
  H261     1.0000 0.66220  0.34490  0.86710  Biso   1.000  H
  H262     1.0000 0.73790  0.52710  0.96030  Biso   1.000  H
  H263     1.0000 0.63200  0.52850  0.02750  Biso   1.000  H
  H264     1.0000 0.57880  0.46840  0.05800  Biso   1.000  H
  H265     1.0000 0.94880  0.38740  0.99500  Biso   1.000  H
  H266     1.0000 0.05960  0.43990  0.00190  Biso   1.000  H
  H267     1.0000 0.99880  0.48150  0.06030  Biso   1.000  H
  H268     1.0000 0.63010  0.37120  0.20840  Biso   1.000  H
  H269     1.0000 0.46600  0.35160  0.17960  Biso   1.000  H
  H270     1.0000 0.46610  0.36180  0.10980  Biso   1.000  H
  H271     1.0000 0.67940  0.62460  0.36820  Biso   1.000  H
  H272     1.0000 0.59180  0.57060  0.37400  Biso   1.000  H
  H273     1.0000 0.58810  0.54220  0.31120  Biso   1.000  H
  H274     1.0000 0.74430  0.64870  0.13510  Biso   1.000  H
  H275     1.0000 0.59170  0.71260  0.13520  Biso   1.000  H
  H276     1.0000 0.54160  0.74080  0.20180  Biso   1.000  H
  H277     1.0000 0.14930  0.44490  0.17550  Biso   1.000  H
  H278     1.0000 0.02470  0.44020  0.17200  Biso   1.000  H
  H279     1.0000 0.89840  0.49780  0.24960  Biso   1.000  H
  H280     1.0000 0.79630  0.51000  0.22540  Biso   1.000  H
  H281     1.0000 0.09760  0.59430  0.20730  Biso   1.000  H
  H282     1.0000 0.20650  0.57640  0.17700  Biso   1.000  H
  H283     1.0000 0.60440  0.59890  0.13990  Biso   1.000  H
  H284     1.0000 0.70350  0.57940  0.16300  Biso   1.000  H
  H285     1.0000 0.62950  0.45550  0.21850  Biso   1.000  H
  H286     1.0000 0.51010  0.47120  0.24480  Biso   1.000  H
  H287     1.0000 0.40140  0.45640  0.16080  Biso   1.000  H
  H288     1.0000 0.37480  0.48510  0.12890  Biso   1.000  H
  C1       1.0000 0.13180  0.08310  0.20050  Biso   1.000  C
  C2       1.0000 0.48405  0.98916  0.26154  Biso   1.000  C
  C3       1.0000 0.18100  0.24110  0.92990  Biso   1.000  C
  C4       1.0000 0.11850  0.10900  0.23380  Biso   1.000  C
  C5       1.0000 0.21600  0.10710  0.25550  Biso   1.000  C
  C6       1.0000 0.32546  0.07925  0.24383  Biso   1.000  C
  C7       1.0000 0.43481  0.07839  0.26799  Biso   1.000  C
  C8       1.0000 0.33388  0.05377  0.21027  Biso   1.000  C
  C9       1.0000 0.44676  0.02374  0.19334  Biso   1.000  C
  C10      1.0000 0.97720  0.19460  0.90520  Biso   1.000  C
  C11      1.0000 0.52246  0.99714  0.21594  Biso   1.000  C
  C12      1.0000 0.62971  0.97389  0.19489  Biso   1.000  C
  C13      1.0000 0.65830  0.97650  0.15290  Biso   1.000  C
  C14      1.0000 0.57360  0.00050  0.13190  Biso   1.000  C
  C15      1.0000 0.29590  0.95470  0.17810  Biso   1.000  C
  C16      1.0000 0.35670  0.91520  0.18480  Biso   1.000  C
  C17      1.0000 0.42410  0.89340  0.15120  Biso   1.000  C
  C18      1.0000 0.42490  0.90910  0.11170  Biso   1.000  C
  C19      1.0000 0.35290  0.94740  0.10720  Biso   1.000  C
  C20      1.0000 0.34270  0.96820  0.06720  Biso   1.000  C
  C21      1.0000 0.31732  0.94948  0.03288  Biso   1.000  C
  C22      1.0000 0.31659  0.97221  0.99701  Biso   1.000  C
  C23      1.0000 0.33741  0.01224  0.99634  Biso   1.000  C
  C24      1.0000 0.35350  0.03000  0.03180  Biso   1.000  C
  C25      1.0000 0.27572  0.90788  0.03488  Biso   1.000  C
  C26      1.0000 0.51410  0.88560  0.07660  Biso   1.000  C
  C27      1.0000 0.05300  0.01920  0.09640  Biso   1.000  C
  C28      1.0000 0.98470  0.02250  0.06510  Biso   1.000  C
  C29      1.0000 0.98590  0.05730  0.04090  Biso   1.000  C
  C30      1.0000 0.05222  0.08830  0.04846  Biso   1.000  C
  C31      1.0000 0.11011  0.08369  0.08369  Biso   1.000  C
  C32      1.0000 0.17451  0.11460  0.09998  Biso   1.000  C
  C33      1.0000 0.12842  0.15612  0.10544  Biso   1.000  C
  C34      1.0000 0.19365  0.18017  0.12413  Biso   1.000  C
  C35      1.0000 0.30706  0.16318  0.13630  Biso   1.000  C
  C36      1.0000 0.34740  0.12178  0.13002  Biso   1.000  C
  C37      1.0000 0.00542  0.17598  0.09198  Biso   1.000  C
  C38      1.0000 0.06392  0.12275  0.01821  Biso   1.000  C
  C39      1.0000 0.99980  0.34370  0.88370  Biso   1.000  C
  C40      1.0000 0.03770  0.34840  0.91660  Biso   1.000  C
  C41      1.0000 0.08360  0.31200  0.93060  Biso   1.000  C
  C42      1.0000 0.10940  0.27460  0.90920  Biso   1.000  C
  C43      1.0000 0.08010  0.27030  0.87150  Biso   1.000  C
  C44      1.0000 0.11390  0.23250  0.84710  Biso   1.000  C
  C45      1.0000 0.07410  0.19920  0.86440  Biso   1.000  C
  C46      1.0000 0.13830  0.16060  0.84000  Biso   1.000  C
  C47      1.0000 0.22480  0.15900  0.80080  Biso   1.000  C
  C48      1.0000 0.22200  0.19900  0.78720  Biso   1.000  C
  C49      1.0000 0.91540  0.41690  0.29950  Biso   1.000  C
  C50      1.0000 0.23475  0.51084  0.23846  Biso   1.000  C
  C51      1.0000 0.85200  0.25890  0.57010  Biso   1.000  C
  C52      1.0000 0.96130  0.39100  0.26620  Biso   1.000  C
  C53      1.0000 0.07860  0.39290  0.24450  Biso   1.000  C
  C54      1.0000 0.14854  0.42075  0.25617  Biso   1.000  C
  C55      1.0000 0.28119  0.42161  0.23201  Biso   1.000  C
  C56      1.0000 0.09792  0.44623  0.28973  Biso   1.000  C
  C57      1.0000 0.16384  0.47626  0.30666  Biso   1.000  C
  C58      1.0000 0.57700  0.30540  0.59480  Biso   1.000  C
  C59      1.0000 0.23554  0.50286  0.28406  Biso   1.000  C
  C60      1.0000 0.29849  0.52611  0.30511  Biso   1.000  C
  C61      1.0000 0.28770  0.52350  0.34710  Biso   1.000  C
  C62      1.0000 0.20600  0.49950  0.36810  Biso   1.000  C
  C63      1.0000 0.92870  0.54530  0.32190  Biso   1.000  C
  C64      1.0000 0.95670  0.58480  0.31520  Biso   1.000  C
  C65      1.0000 0.96870  0.60660  0.34880  Biso   1.000  C
  C66      1.0000 0.94570  0.59090  0.38830  Biso   1.000  C
  C67      1.0000 0.90750  0.55260  0.39280  Biso   1.000  C
  C68      1.0000 0.87810  0.53180  0.43280  Biso   1.000  C
  C69      1.0000 0.79968  0.55052  0.46712  Biso   1.000  C
  C70      1.0000 0.78581  0.52779  0.50299  Biso   1.000  C
  C71      1.0000 0.84599  0.48776  0.50366  Biso   1.000  C
  C72      1.0000 0.91530  0.47000  0.46820  Biso   1.000  C
  C73      1.0000 0.71848  0.59212  0.46512  Biso   1.000  C
  C74      1.0000 0.97630  0.61440  0.42340  Biso   1.000  C
  C75      1.0000 0.66860  0.48080  0.40360  Biso   1.000  C
  C76      1.0000 0.57230  0.47750  0.43490  Biso   1.000  C
  C77      1.0000 0.58410  0.44270  0.45910  Biso   1.000  C
  C78      1.0000 0.68898  0.41170  0.45154  Biso   1.000  C
  C79      1.0000 0.77749  0.41631  0.41631  Biso   1.000  C
  C80      1.0000 0.88909  0.38540  0.40002  Biso   1.000  C
  C81      1.0000 0.88998  0.34388  0.39456  Biso   1.000  C
  C82      1.0000 0.99795  0.31983  0.37587  Biso   1.000  C
  C83      1.0000 0.10654  0.33682  0.36370  Biso   1.000  C
  C84      1.0000 0.09920  0.37822  0.36998  Biso   1.000  C
  C85      1.0000 0.77338  0.32402  0.40802  Biso   1.000  C
  C86      1.0000 0.70488  0.37725  0.48179  Biso   1.000  C
  C87      1.0000 0.72720  0.15630  0.61630  Biso   1.000  C
  C88      1.0000 0.80270  0.15160  0.58340  Biso   1.000  C
  C89      1.0000 0.82620  0.18800  0.56940  Biso   1.000  C
  C90      1.0000 0.79320  0.22540  0.59080  Biso   1.000  C
  C91      1.0000 0.72190  0.22970  0.62850  Biso   1.000  C
  C92      1.0000 0.69350  0.26750  0.65290  Biso   1.000  C
  C93      1.0000 0.63770  0.30080  0.63560  Biso   1.000  C
  C94      1.0000 0.63890  0.33940  0.66000  Biso   1.000  C
  C95      1.0000 0.68460  0.34100  0.69920  Biso   1.000  C
  C96      1.0000 0.70820  0.30100  0.71280  Biso   1.000  C
  C97      1.0000 0.33230  0.79950  0.58310  Biso   1.000  C
  C98      1.0000 0.74559  0.73846  0.48916  Biso   1.000  C
  C99      1.0000 0.11090  0.07010  0.74110  Biso   1.000  C
  C100     1.0000 0.35230  0.76620  0.60900  Biso   1.000  C
  C101     1.0000 0.47150  0.74450  0.60710  Biso   1.000  C
  C102     1.0000 0.56929  0.75617  0.57925  Biso   1.000  C
  C103     1.0000 0.70280  0.73201  0.57839  Biso   1.000  C
  C104     1.0000 0.54415  0.78973  0.55377  Biso   1.000  C
  C105     1.0000 0.64010  0.80666  0.52374  Biso   1.000  C
  C106     1.0000 0.88240  0.09480  0.69460  Biso   1.000  C
  C107     1.0000 0.73840  0.78406  0.49714  Biso   1.000  C
  C108     1.0000 0.82460  0.80511  0.47389  Biso   1.000  C
  C109     1.0000 0.81120  0.84710  0.47650  Biso   1.000  C
  C110     1.0000 0.70550  0.86810  0.50050  Biso   1.000  C
  C111     1.0000 0.47400  0.82190  0.45470  Biso   1.000  C
  C112     1.0000 0.54150  0.81520  0.41520  Biso   1.000  C
  C113     1.0000 0.57530  0.84880  0.39340  Biso   1.000  C
  C114     1.0000 0.53660  0.88830  0.40910  Biso   1.000  C
  C115     1.0000 0.46010  0.89280  0.44740  Biso   1.000  C
  C116     1.0000 0.40990  0.93280  0.46820  Biso   1.000  C
  C117     1.0000 0.35020  0.96712  0.44948  Biso   1.000  C
  C118     1.0000 0.31360  0.00299  0.47221  Biso   1.000  C
  C119     1.0000 0.33375  0.00366  0.51224  Biso   1.000  C
  C120     1.0000 0.38530  0.96820  0.53000  Biso   1.000  C
  C121     1.0000 0.31060  0.96512  0.40788  Biso   1.000  C
  C122     1.0000 0.59070  0.92340  0.38560  Biso   1.000  C
  C123     1.0000 0.14940  0.90360  0.51920  Biso   1.000  C
  C124     1.0000 0.04980  0.93490  0.52250  Biso   1.000  C
  C125     1.0000 0.02680  0.95910  0.55730  Biso   1.000  C
  C126     1.0000 0.10068  0.95154  0.58830  Biso   1.000  C
  C127     1.0000 0.19380  0.91631  0.58369  Biso   1.000  C
  C128     1.0000 0.27449  0.90002  0.61460  Biso   1.000  C
  C129     1.0000 0.23386  0.89456  0.65612  Biso   1.000  C
  C130     1.0000 0.31778  0.87587  0.68017  Biso   1.000  C
  C131     1.0000 0.44336  0.86370  0.66318  Biso   1.000  C
  C132     1.0000 0.47742  0.86998  0.62178  Biso   1.000  C
  C133     1.0000 0.09740  0.90802  0.67598  Biso   1.000  C
  C134     1.0000 0.08213  0.98179  0.62275  Biso   1.000  C
  C135     1.0000 0.88350  0.11630  0.84370  Biso   1.000  C
  C136     1.0000 0.95430  0.08340  0.84840  Biso   1.000  C
  C137     1.0000 0.01420  0.06940  0.81200  Biso   1.000  C
  C138     1.0000 0.01860  0.09080  0.77460  Biso   1.000  C
  C139     1.0000 0.95160  0.12850  0.77030  Biso   1.000  C
  C140     1.0000 0.96100  0.15290  0.73250  Biso   1.000  C
  C141     1.0000 0.93850  0.13560  0.69920  Biso   1.000  C
  C142     1.0000 0.97830  0.16000  0.66060  Biso   1.000  C
  C143     1.0000 0.02560  0.19920  0.65900  Biso   1.000  C
  C144     1.0000 0.00920  0.21280  0.69900  Biso   1.000  C
  C145     1.0000 0.21490  0.70050  0.91690  Biso   1.000  C
  C146     1.0000 0.47321  0.76154  0.01084  Biso   1.000  C
  C147     1.0000 0.42210  0.42990  0.75890  Biso   1.000  C
  C148     1.0000 0.22750  0.73380  0.89100  Biso   1.000  C
  C149     1.0000 0.32310  0.75550  0.89290  Biso   1.000  C
  C150     1.0000 0.40471  0.74383  0.92075  Biso   1.000  C
  C151     1.0000 0.51320  0.76799  0.92161  Biso   1.000  C
  C152     1.0000 0.38765  0.71027  0.94623  Biso   1.000  C
  C153     1.0000 0.47050  0.69334  0.97626  Biso   1.000  C
  C154     1.0000 0.17180  0.40520  0.80540  Biso   1.000  C
  C155     1.0000 0.51960  0.71594  0.00286  Biso   1.000  C
  C156     1.0000 0.60360  0.69489  0.02611  Biso   1.000  C
  C157     1.0000 0.63480  0.65290  0.02350  Biso   1.000  C
  C158     1.0000 0.57410  0.63190  0.99950  Biso   1.000  C
  C159     1.0000 0.25060  0.67810  0.04530  Biso   1.000  C
  C160     1.0000 0.27190  0.68480  0.08480  Biso   1.000  C
  C161     1.0000 0.31750  0.65120  0.10660  Biso   1.000  C
  C162     1.0000 0.33400  0.61170  0.09090  Biso   1.000  C
  C163     1.0000 0.30030  0.60720  0.05260  Biso   1.000  C
  C164     1.0000 0.31090  0.56720  0.03180  Biso   1.000  C
  C165     1.0000 0.26680  0.53288  0.05052  Biso   1.000  C
  C166     1.0000 0.28880  0.49701  0.02779  Biso   1.000  C
  C167     1.0000 0.34965  0.49634  0.98776  Biso   1.000  C
  C168     1.0000 0.38350  0.53180  0.97000  Biso   1.000  C
  C169     1.0000 0.18360  0.53488  0.09212  Biso   1.000  C
  C170     1.0000 0.39970  0.57660  0.11440  Biso   1.000  C
  C171     1.0000 0.07220  0.59640  0.98080  Biso   1.000  C
  C172     1.0000 0.00720  0.56510  0.97750  Biso   1.000  C
  C173     1.0000 0.04320  0.54090  0.94270  Biso   1.000  C
  C174     1.0000 0.14052  0.54846  0.91170  Biso   1.000  C
  C175     1.0000 0.19380  0.58369  0.91631  Biso   1.000  C
  C176     1.0000 0.28911  0.59998  0.88540  Biso   1.000  C
  C177     1.0000 0.28454  0.60544  0.84388  Biso   1.000  C
  C178     1.0000 0.37382  0.62413  0.81983  Biso   1.000  C
  C179     1.0000 0.47024  0.63630  0.83682  Biso   1.000  C
  C180     1.0000 0.46918  0.63002  0.87822  Biso   1.000  C
  C181     1.0000 0.18140  0.59198  0.82402  Biso   1.000  C
  C182     1.0000 0.18667  0.51821  0.87725  Biso   1.000  C
  C183     1.0000 0.34350  0.38370  0.65630  Biso   1.000  C
  C184     1.0000 0.38610  0.41660  0.65160  Biso   1.000  C
  C185     1.0000 0.39560  0.43060  0.68800  Biso   1.000  C
  C186     1.0000 0.38400  0.40920  0.72540  Biso   1.000  C
  C187     1.0000 0.35040  0.37150  0.72970  Biso   1.000  C
  C188     1.0000 0.34640  0.34710  0.76750  Biso   1.000  C
  C189     1.0000 0.27330  0.36440  0.80080  Biso   1.000  C
  C190     1.0000 0.29890  0.34000  0.83940  Biso   1.000  C
  C191     1.0000 0.38380  0.30080  0.84100  Biso   1.000  C
  C192     1.0000 0.42100  0.28720  0.80100  Biso   1.000  C
  C193     1.0000 0.86820  0.91690  0.79950  Biso   1.000  C
  C194     1.0000 0.51595  0.01084  0.73846  Biso   1.000  C
  C195     1.0000 0.81900  0.75890  0.07010  Biso   1.000  C
  C196     1.0000 0.88150  0.89100  0.76620  Biso   1.000  C
  C197     1.0000 0.78400  0.89290  0.74450  Biso   1.000  C
  C198     1.0000 0.67454  0.92075  0.75617  Biso   1.000  C
  C199     1.0000 0.56519  0.92161  0.73201  Biso   1.000  C
  C200     1.0000 0.66612  0.94623  0.78973  Biso   1.000  C
  C201     1.0000 0.55324  0.97626  0.80666  Biso   1.000  C
  C202     1.0000 0.02280  0.80540  0.09480  Biso   1.000  C
  C203     1.0000 0.47754  0.00286  0.78406  Biso   1.000  C
  C204     1.0000 0.37029  0.02611  0.80511  Biso   1.000  C
  C205     1.0000 0.34170  0.02350  0.84710  Biso   1.000  C
  C206     1.0000 0.42640  0.99950  0.86810  Biso   1.000  C
  C207     1.0000 0.70410  0.04530  0.82190  Biso   1.000  C
  C208     1.0000 0.64330  0.08480  0.81520  Biso   1.000  C
  C209     1.0000 0.57590  0.10660  0.84880  Biso   1.000  C
  C210     1.0000 0.57510  0.09090  0.88830  Biso   1.000  C
  C211     1.0000 0.64710  0.05260  0.89280  Biso   1.000  C
  C212     1.0000 0.65730  0.03180  0.93280  Biso   1.000  C
  C213     1.0000 0.68268  0.05052  0.96712  Biso   1.000  C
  C214     1.0000 0.68341  0.02779  0.00299  Biso   1.000  C
  C215     1.0000 0.66259  0.98776  0.00366  Biso   1.000  C
  C216     1.0000 0.64650  0.97000  0.96820  Biso   1.000  C
  C217     1.0000 0.72428  0.09212  0.96512  Biso   1.000  C
  C218     1.0000 0.48590  0.11440  0.92340  Biso   1.000  C
  C219     1.0000 0.94700  0.98080  0.90360  Biso   1.000  C
  C220     1.0000 0.01530  0.97750  0.93490  Biso   1.000  C
  C221     1.0000 0.01410  0.94270  0.95910  Biso   1.000  C
  C222     1.0000 0.94778  0.91170  0.95154  Biso   1.000  C
  C223     1.0000 0.88989  0.91631  0.91631  Biso   1.000  C
  C224     1.0000 0.82549  0.88540  0.90002  Biso   1.000  C
  C225     1.0000 0.87158  0.84388  0.89456  Biso   1.000  C
  C226     1.0000 0.80635  0.81983  0.87587  Biso   1.000  C
  C227     1.0000 0.69294  0.83682  0.86370  Biso   1.000  C
  C228     1.0000 0.65260  0.87822  0.86998  Biso   1.000  C
  C229     1.0000 0.99458  0.82402  0.90802  Biso   1.000  C
  C230     1.0000 0.93608  0.87725  0.98179  Biso   1.000  C
  C231     1.0000 0.00020  0.65630  0.11630  Biso   1.000  C
  C232     1.0000 0.96230  0.65160  0.08340  Biso   1.000  C
  C233     1.0000 0.91640  0.68800  0.06940  Biso   1.000  C
  C234     1.0000 0.89060  0.72540  0.09080  Biso   1.000  C
  C235     1.0000 0.91990  0.72970  0.12850  Biso   1.000  C
  C236     1.0000 0.88610  0.76750  0.15290  Biso   1.000  C
  C237     1.0000 0.92590  0.80080  0.13560  Biso   1.000  C
  C238     1.0000 0.86170  0.83940  0.16000  Biso   1.000  C
  C239     1.0000 0.77520  0.84100  0.19920  Biso   1.000  C
  C240     1.0000 0.77800  0.80100  0.21280  Biso   1.000  C
  C241     1.0000 0.08460  0.58310  0.70050  Biso   1.000  C
  C242     1.0000 0.76525  0.48916  0.76154  Biso   1.000  C
  C243     1.0000 0.14800  0.74110  0.42990  Biso   1.000  C
  C244     1.0000 0.03870  0.60900  0.73380  Biso   1.000  C
  C245     1.0000 0.92140  0.60710  0.75550  Biso   1.000  C
  C246     1.0000 0.85146  0.57925  0.74383  Biso   1.000  C
  C247     1.0000 0.71881  0.57839  0.76799  Biso   1.000  C
  C248     1.0000 0.90208  0.55377  0.71027  Biso   1.000  C
  C249     1.0000 0.83616  0.52374  0.69334  Biso   1.000  C
  C250     1.0000 0.42300  0.69460  0.40520  Biso   1.000  C
  C251     1.0000 0.76446  0.49714  0.71594  Biso   1.000  C
  C252     1.0000 0.70151  0.47389  0.69489  Biso   1.000  C
  C253     1.0000 0.71230  0.47650  0.65290  Biso   1.000  C
  C254     1.0000 0.79400  0.50050  0.63190  Biso   1.000  C
  C255     1.0000 0.07130  0.45470  0.67810  Biso   1.000  C
  C256     1.0000 0.04330  0.41520  0.68480  Biso   1.000  C
  C257     1.0000 0.03130  0.39340  0.65120  Biso   1.000  C
  C258     1.0000 0.05430  0.40910  0.61170  Biso   1.000  C
  C259     1.0000 0.09250  0.44740  0.60720  Biso   1.000  C
  C260     1.0000 0.12190  0.46820  0.56720  Biso   1.000  C
  C261     1.0000 0.20032  0.44948  0.53288  Biso   1.000  C
  C262     1.0000 0.21419  0.47221  0.49701  Biso   1.000  C
  C263     1.0000 0.15401  0.51224  0.49634  Biso   1.000  C
  C264     1.0000 0.08470  0.53000  0.53180  Biso   1.000  C
  C265     1.0000 0.28152  0.40788  0.53488  Biso   1.000  C
  C266     1.0000 0.02370  0.38560  0.57660  Biso   1.000  C
  C267     1.0000 0.33140  0.51920  0.59640  Biso   1.000  C
  C268     1.0000 0.42770  0.52250  0.56510  Biso   1.000  C
  C269     1.0000 0.41590  0.55730  0.54090  Biso   1.000  C
  C270     1.0000 0.31102  0.58830  0.54846  Biso   1.000  C
  C271     1.0000 0.22251  0.58369  0.58369  Biso   1.000  C
  C272     1.0000 0.11091  0.61460  0.59998  Biso   1.000  C
  C273     1.0000 0.11002  0.65612  0.60544  Biso   1.000  C
  C274     1.0000 0.00205  0.68017  0.62413  Biso   1.000  C
  C275     1.0000 0.89346  0.66318  0.63630  Biso   1.000  C
  C276     1.0000 0.90080  0.62178  0.63002  Biso   1.000  C
  C277     1.0000 0.22662  0.67598  0.59198  Biso   1.000  C
  C278     1.0000 0.29512  0.62275  0.51821  Biso   1.000  C
  C279     1.0000 0.27280  0.84370  0.38370  Biso   1.000  C
  C280     1.0000 0.19730  0.84840  0.41660  Biso   1.000  C
  C281     1.0000 0.17380  0.81200  0.43060  Biso   1.000  C
  C282     1.0000 0.20680  0.77460  0.40920  Biso   1.000  C
  C283     1.0000 0.27810  0.77030  0.37150  Biso   1.000  C
  C284     1.0000 0.30650  0.73250  0.34710  Biso   1.000  C
  C285     1.0000 0.36230  0.69920  0.36440  Biso   1.000  C
  C286     1.0000 0.36110  0.66060  0.34000  Biso   1.000  C
  C287     1.0000 0.31540  0.65900  0.30080  Biso   1.000  C
  C288     1.0000 0.29180  0.69900  0.28720  Biso   1.000  C
  C289     1.0000 0.66770  0.20050  0.41690  Biso   1.000  C
  C290     1.0000 0.25441  0.26154  0.51084  Biso   1.000  C
  C291     1.0000 0.88910  0.92990  0.25890  Biso   1.000  C
  C292     1.0000 0.64770  0.23380  0.39100  Biso   1.000  C
  C293     1.0000 0.52850  0.25550  0.39290  Biso   1.000  C
  C294     1.0000 0.43071  0.24383  0.42075  Biso   1.000  C
  C295     1.0000 0.29720  0.26799  0.42161  Biso   1.000  C
  C296     1.0000 0.45585  0.21027  0.44623  Biso   1.000  C
  C297     1.0000 0.35990  0.19334  0.47626  Biso   1.000  C
  C298     1.0000 0.11760  0.90520  0.30540  Biso   1.000  C
  C299     1.0000 0.26160  0.21594  0.50286  Biso   1.000  C
  C300     1.0000 0.17540  0.19489  0.52611  Biso   1.000  C
  C301     1.0000 0.18880  0.15290  0.52350  Biso   1.000  C
  C302     1.0000 0.29450  0.13190  0.49950  Biso   1.000  C
  C303     1.0000 0.52600  0.17810  0.54530  Biso   1.000  C
  C304     1.0000 0.45850  0.18480  0.58480  Biso   1.000  C
  C305     1.0000 0.42470  0.15120  0.60660  Biso   1.000  C
  C306     1.0000 0.46340  0.11170  0.59090  Biso   1.000  C
  C307     1.0000 0.53990  0.10720  0.55260  Biso   1.000  C
  C308     1.0000 0.59010  0.06720  0.53180  Biso   1.000  C
  C309     1.0000 0.64980  0.03288  0.55052  Biso   1.000  C
  C310     1.0000 0.68640  0.99701  0.52779  Biso   1.000  C
  C311     1.0000 0.66625  0.99634  0.48776  Biso   1.000  C
  C312     1.0000 0.61470  0.03180  0.47000  Biso   1.000  C
  C313     1.0000 0.68940  0.03488  0.59212  Biso   1.000  C
  C314     1.0000 0.40930  0.07660  0.61440  Biso   1.000  C
  C315     1.0000 0.85060  0.09640  0.48080  Biso   1.000  C
  C316     1.0000 0.95020  0.06510  0.47750  Biso   1.000  C
  C317     1.0000 0.97320  0.04090  0.44270  Biso   1.000  C
  C318     1.0000 0.89932  0.04846  0.41170  Biso   1.000  C
  C319     1.0000 0.80620  0.08369  0.41631  Biso   1.000  C
  C320     1.0000 0.72551  0.09998  0.38540  Biso   1.000  C
  C321     1.0000 0.76614  0.10544  0.34388  Biso   1.000  C
  C322     1.0000 0.68222  0.12413  0.31983  Biso   1.000  C
  C323     1.0000 0.55664  0.13630  0.33682  Biso   1.000  C
  C324     1.0000 0.52258  0.13002  0.37822  Biso   1.000  C
  C325     1.0000 0.90260  0.09198  0.32402  Biso   1.000  C
  C326     1.0000 0.91787  0.01821  0.37725  Biso   1.000  C
  C327     1.0000 0.11650  0.88370  0.15630  Biso   1.000  C
  C328     1.0000 0.04570  0.91660  0.15160  Biso   1.000  C
  C329     1.0000 0.98580  0.93060  0.18800  Biso   1.000  C
  C330     1.0000 0.98140  0.90920  0.22540  Biso   1.000  C
  C331     1.0000 0.04840  0.87150  0.22970  Biso   1.000  C
  C332     1.0000 0.03900  0.84710  0.26750  Biso   1.000  C
  C333     1.0000 0.06150  0.86440  0.30080  Biso   1.000  C
  C334     1.0000 0.02170  0.84000  0.33940  Biso   1.000  C
  C335     1.0000 0.97440  0.80080  0.34100  Biso   1.000  C
  C336     1.0000 0.99080  0.78720  0.30100  Biso   1.000  C
  C337     1.0000 0.78510  0.29950  0.08310  Biso   1.000  C
  C338     1.0000 0.52679  0.23846  0.98916  Biso   1.000  C
  C339     1.0000 0.57790  0.57010  0.24110  Biso   1.000  C
  C340     1.0000 0.77250  0.26620  0.10900  Biso   1.000  C
  C341     1.0000 0.67690  0.24450  0.10710  Biso   1.000  C
  C342     1.0000 0.59529  0.25617  0.07925  Biso   1.000  C
  C343     1.0000 0.48680  0.23201  0.07839  Biso   1.000  C
  C344     1.0000 0.61235  0.28973  0.05377  Biso   1.000  C
  C345     1.0000 0.52950  0.30666  0.02374  Biso   1.000  C
  C346     1.0000 0.82820  0.59480  0.19460  Biso   1.000  C
  C347     1.0000 0.48040  0.28406  0.99714  Biso   1.000  C
  C348     1.0000 0.39640  0.30511  0.97389  Biso   1.000  C
  C349     1.0000 0.36520  0.34710  0.97650  Biso   1.000  C
  C350     1.0000 0.42590  0.36810  0.00050  Biso   1.000  C
  C351     1.0000 0.74940  0.32190  0.95470  Biso   1.000  C
  C352     1.0000 0.72810  0.31520  0.91520  Biso   1.000  C
  C353     1.0000 0.68250  0.34880  0.89340  Biso   1.000  C
  C354     1.0000 0.66600  0.38830  0.90910  Biso   1.000  C
  C355     1.0000 0.69970  0.39280  0.94740  Biso   1.000  C
  C356     1.0000 0.68910  0.43280  0.96820  Biso   1.000  C
  C357     1.0000 0.73320  0.46712  0.94948  Biso   1.000  C
  C358     1.0000 0.71120  0.50299  0.97221  Biso   1.000  C
  C359     1.0000 0.65035  0.50366  0.01224  Biso   1.000  C
  C360     1.0000 0.61650  0.46820  0.03000  Biso   1.000  C
  C361     1.0000 0.81640  0.46512  0.90788  Biso   1.000  C
  C362     1.0000 0.60030  0.42340  0.88560  Biso   1.000  C
  C363     1.0000 0.92780  0.40360  0.01920  Biso   1.000  C
  C364     1.0000 0.99280  0.43490  0.02250  Biso   1.000  C
  C365     1.0000 0.95680  0.45910  0.05730  Biso   1.000  C
  C366     1.0000 0.85948  0.45154  0.08830  Biso   1.000  C
  C367     1.0000 0.80620  0.41631  0.08369  Biso   1.000  C
  C368     1.0000 0.71089  0.40002  0.11460  Biso   1.000  C
  C369     1.0000 0.71546  0.39456  0.15612  Biso   1.000  C
  C370     1.0000 0.62618  0.37587  0.18017  Biso   1.000  C
  C371     1.0000 0.52976  0.36370  0.16318  Biso   1.000  C
  C372     1.0000 0.53082  0.36998  0.12178  Biso   1.000  C
  C373     1.0000 0.81860  0.40802  0.17598  Biso   1.000  C
  C374     1.0000 0.81333  0.48179  0.12275  Biso   1.000  C
  C375     1.0000 0.65650  0.61630  0.34370  Biso   1.000  C
  C376     1.0000 0.61390  0.58340  0.34840  Biso   1.000  C
  C377     1.0000 0.60440  0.56940  0.31200  Biso   1.000  C
  C378     1.0000 0.61600  0.59080  0.27460  Biso   1.000  C
  C379     1.0000 0.64960  0.62850  0.27030  Biso   1.000  C
  C380     1.0000 0.65360  0.65290  0.23250  Biso   1.000  C
  C381     1.0000 0.72670  0.63560  0.19920  Biso   1.000  C
  C382     1.0000 0.70110  0.66000  0.16060  Biso   1.000  C
  C383     1.0000 0.61620  0.69920  0.15900  Biso   1.000  C
  C384     1.0000 0.57900  0.71280  0.19900  Biso   1.000  C
  N1       1.0000 0.23873  0.05628  0.18886  Biso   1.000  N
  N2       1.0000 0.46840  0.02379  0.15181  Biso   1.000  N
  N3       1.0000 0.29459  0.97093  0.14049  Biso   1.000  N
  N4       1.0000 0.35572  0.00866  0.06670  Biso   1.000  N
  N5       1.0000 0.11601  0.04865  0.10553  Biso   1.000  N
  N6       1.0000 0.28259  0.09744  0.11278  Biso   1.000  N
  N7       1.0000 0.17790  0.23440  0.80740  Biso   1.000  N
  N8       1.0000 0.00870  0.31210  0.85630  Biso   1.000  N
  N9       1.0000 0.98387  0.44372  0.31114  Biso   1.000  N
  N10      1.0000 0.14400  0.47621  0.34819  Biso   1.000  N
  N11      1.0000 0.90601  0.52907  0.35951  Biso   1.000  N
  N12      1.0000 0.93108  0.49134  0.43330  Biso   1.000  N
  N13      1.0000 0.77019  0.45135  0.39447  Biso   1.000  N
  N14      1.0000 0.99281  0.40256  0.38722  Biso   1.000  N
  N15      1.0000 0.71970  0.26560  0.69260  Biso   1.000  N
  N16      1.0000 0.67710  0.18790  0.64370  Biso   1.000  N
  N17      1.0000 0.42759  0.81114  0.55628  Biso   1.000  N
  N18      1.0000 0.62021  0.84819  0.52379  Biso   1.000  N
  N19      1.0000 0.43508  0.85951  0.47093  Biso   1.000  N
  N20      1.0000 0.42242  0.93330  0.50866  Biso   1.000  N
  N21      1.0000 0.22154  0.89447  0.54865  Biso   1.000  N
  N22      1.0000 0.39537  0.88722  0.59744  Biso   1.000  N
  N23      1.0000 0.98530  0.19260  0.73440  Biso   1.000  N
  N24      1.0000 0.86500  0.14370  0.81210  Biso   1.000  N
  N25      1.0000 0.29501  0.68886  0.94372  Biso   1.000  N
  N26      1.0000 0.49219  0.65181  0.97621  Biso   1.000  N
  N27      1.0000 0.26552  0.64049  0.02907  Biso   1.000  N
  N28      1.0000 0.36438  0.56670  0.99134  Biso   1.000  N
  N29      1.0000 0.16466  0.60553  0.95135  Biso   1.000  N
  N30      1.0000 0.38003  0.61278  0.90256  Biso   1.000  N
  N31      1.0000 0.41230  0.30740  0.76560  Biso   1.000  N
  N32      1.0000 0.32080  0.35630  0.68790  Biso   1.000  N
  N33      1.0000 0.76127  0.94372  0.81114  Biso   1.000  N
  N34      1.0000 0.53160  0.97621  0.84819  Biso   1.000  N
  N35      1.0000 0.70541  0.02907  0.85951  Biso   1.000  N
  N36      1.0000 0.64428  0.99134  0.93330  Biso   1.000  N
  N37      1.0000 0.88399  0.95135  0.89447  Biso   1.000  N
  N38      1.0000 0.71741  0.90256  0.88722  Biso   1.000  N
  N39      1.0000 0.82210  0.76560  0.19260  Biso   1.000  N
  N40      1.0000 0.99130  0.68790  0.14370  Biso   1.000  N
  N41      1.0000 0.01613  0.55628  0.68886  Biso   1.000  N
  N42      1.0000 0.85600  0.52379  0.65181  Biso   1.000  N
  N43      1.0000 0.09399  0.47093  0.64049  Biso   1.000  N
  N44      1.0000 0.06892  0.50866  0.56670  Biso   1.000  N
  N45      1.0000 0.22981  0.54865  0.60553  Biso   1.000  N
  N46      1.0000 0.00719  0.59744  0.61278  Biso   1.000  N
  N47      1.0000 0.28030  0.73440  0.30740  Biso   1.000  N
  N48      1.0000 0.32290  0.81210  0.35630  Biso   1.000  N
  N49      1.0000 0.57241  0.18886  0.44372  Biso   1.000  N
  N50      1.0000 0.37979  0.15181  0.47621  Biso   1.000  N
  N51      1.0000 0.56492  0.14049  0.52907  Biso   1.000  N
  N52      1.0000 0.57758  0.06670  0.49134  Biso   1.000  N
  N53      1.0000 0.77846  0.10553  0.45135  Biso   1.000  N
  N54      1.0000 0.60463  0.11278  0.40256  Biso   1.000  N
  N55      1.0000 0.01470  0.80740  0.26560  Biso   1.000  N
  N56      1.0000 0.13500  0.85630  0.18790  Biso   1.000  N
  N57      1.0000 0.70499  0.31114  0.05628  Biso   1.000  N
  N58      1.0000 0.50781  0.34819  0.02379  Biso   1.000  N
  N59      1.0000 0.73448  0.35951  0.97093  Biso   1.000  N
  N60      1.0000 0.63562  0.43330  0.00866  Biso   1.000  N
  N61      1.0000 0.83534  0.39447  0.04865  Biso   1.000  N
  N62      1.0000 0.61997  0.38722  0.09744  Biso   1.000  N
  N63      1.0000 0.58770  0.69260  0.23440  Biso   1.000  N
  N64      1.0000 0.67920  0.64370  0.31210  Biso   1.000  N
  O1       1.0000 0.40615  0.07796  0.30634  Biso   1.000  O
  O2       1.0000 0.54196  0.07820  0.24768  Biso   1.000  O
  O3       1.0000 0.36670  0.99271  0.27389  Biso   1.000  O
  O4       1.0000 0.56740  0.97802  0.28198  Biso   1.000  O
  O5       1.0000 0.52513  0.84634  0.07820  Biso   1.000  O
  O6       1.0000 0.57807  0.90374  0.04992  Biso   1.000  O
  O7       1.0000 0.33942  0.87856  0.01300  Biso   1.000  O
  O8       1.0000 0.17219  0.90419  0.05663  Biso   1.000  O
  O9       1.0000 0.00613  0.21011  0.07343  Biso   1.000  O
  O10      1.0000 0.91276  0.15705  0.09963  Biso   1.000  O
  O11      1.0000 0.16075  0.13824  0.01486  Biso   1.000  O
  O12      1.0000 0.97858  0.13127  0.99677  Biso   1.000  O
  O13      1.0000 0.75093  0.16236  0.04678  Biso   1.000  O
  O14      1.0000 0.89887  0.22372  0.00334  Biso   1.000  O
  O15      1.0000 0.69810  0.18116  0.91644  Biso   1.000  O
  O16      1.0000 0.97950  0.16270  0.91770  Biso   1.000  O
  O17      1.0000 0.88830  0.22460  0.91500  Biso   1.000  O
  O18      1.0000 0.12926  0.22730  0.96378  Biso   1.000  O
  O19      1.0000 0.29261  0.22641  0.91517  Biso   1.000  O
  O20      1.0000 0.20380  0.14550  0.92610  Biso   1.000  O
  O21      1.0000 0.23514  0.21816  0.03456  Biso   1.000  O
  O22      1.0000 0.42404  0.14224  0.02708  Biso   1.000  O
  O23      1.0000 0.29045  0.42204  0.19366  Biso   1.000  O
  O24      1.0000 0.36784  0.42180  0.25232  Biso   1.000  O
  O25      1.0000 0.13330  0.50729  0.22611  Biso   1.000  O
  O26      1.0000 0.32740  0.52198  0.21802  Biso   1.000  O
  O27      1.0000 0.94967  0.65366  0.42180  Biso   1.000  O
  O28      1.0000 0.03173  0.59626  0.45008  Biso   1.000  O
  O29      1.0000 0.73098  0.62144  0.48700  Biso   1.000  O
  O30      1.0000 0.63301  0.59581  0.44337  Biso   1.000  O
  O31      1.0000 0.78967  0.28989  0.42657  Biso   1.000  O
  O32      1.0000 0.66944  0.34295  0.40037  Biso   1.000  O
  O33      1.0000 0.81385  0.36176  0.48514  Biso   1.000  O
  O34      1.0000 0.60662  0.36873  0.50323  Biso   1.000  O
  O35      1.0000 0.46007  0.33764  0.45322  Biso   1.000  O
  O36      1.0000 0.62593  0.27628  0.49666  Biso   1.000  O
  O37      1.0000 0.29570  0.31884  0.58356  Biso   1.000  O
  O38      1.0000 0.55990  0.33730  0.58230  Biso   1.000  O
  O39      1.0000 0.52790  0.27540  0.58500  Biso   1.000  O
  O40      1.0000 0.82034  0.27270  0.53622  Biso   1.000  O
  O41      1.0000 0.93419  0.27359  0.58483  Biso   1.000  O
  O42      1.0000 0.77540  0.35450  0.57390  Biso   1.000  O
  O43      1.0000 0.98786  0.28184  0.46544  Biso   1.000  O
  O44      1.0000 0.09336  0.35776  0.47292  Biso   1.000  O
  O45      1.0000 0.71249  0.69366  0.57796  Biso   1.000  O
  O46      1.0000 0.78964  0.75232  0.57820  Biso   1.000  O
  O47      1.0000 0.64059  0.72611  0.49271  Biso   1.000  O
  O48      1.0000 0.84938  0.71802  0.47802  Biso   1.000  O
  O49      1.0000 0.60333  0.92180  0.34634  Biso   1.000  O
  O50      1.0000 0.62799  0.95008  0.40374  Biso   1.000  O
  O51      1.0000 0.35242  0.98700  0.37856  Biso   1.000  O
  O52      1.0000 0.22882  0.94337  0.40419  Biso   1.000  O
  O53      1.0000 0.07956  0.92657  0.71011  Biso   1.000  O
  O54      1.0000 0.01239  0.90037  0.65705  Biso   1.000  O
  O55      1.0000 0.17561  0.98514  0.63824  Biso   1.000  O
  O56      1.0000 0.97535  0.00323  0.63127  Biso   1.000  O
  O57      1.0000 0.79771  0.95322  0.66236  Biso   1.000  O
  O58      1.0000 0.90221  0.99666  0.72372  Biso   1.000  O
  O59      1.0000 0.61454  0.08356  0.68116  Biso   1.000  O
  O60      1.0000 0.89720  0.08230  0.66270  Biso   1.000  O
  O61      1.0000 0.80330  0.08500  0.72460  Biso   1.000  O
  O62      1.0000 0.09304  0.03622  0.72730  Biso   1.000  O
  O63      1.0000 0.20778  0.08483  0.72641  Biso   1.000  O
  O64      1.0000 0.12990  0.07390  0.64550  Biso   1.000  O
  O65      1.0000 0.26970  0.96544  0.71816  Biso   1.000  O
  O66      1.0000 0.45112  0.97292  0.64224  Biso   1.000  O
  O67      1.0000 0.48411  0.80634  0.92204  Biso   1.000  O
  O68      1.0000 0.62016  0.74768  0.92180  Biso   1.000  O
  O69      1.0000 0.35941  0.77389  0.00729  Biso   1.000  O
  O70      1.0000 0.54542  0.78198  0.02198  Biso   1.000  O
  O71      1.0000 0.37147  0.57820  0.15366  Biso   1.000  O
  O72      1.0000 0.48181  0.54992  0.09626  Biso   1.000  O
  O73      1.0000 0.21798  0.51300  0.12144  Biso   1.000  O
  O74      1.0000 0.07638  0.55663  0.09581  Biso   1.000  O
  O75      1.0000 0.21624  0.57343  0.78989  Biso   1.000  O
  O76      1.0000 0.06981  0.59963  0.84295  Biso   1.000  O
  O77      1.0000 0.29899  0.51486  0.86176  Biso   1.000  O
  O78      1.0000 0.10985  0.49677  0.86873  Biso   1.000  O
  O79      1.0000 0.91329  0.54678  0.83764  Biso   1.000  O
  O80      1.0000 0.12259  0.50334  0.77628  Biso   1.000  O
  O81      1.0000 0.87926  0.41644  0.81884  Biso   1.000  O
  O82      1.0000 0.14220  0.41770  0.83730  Biso   1.000  O
  O83      1.0000 0.11290  0.41500  0.77540  Biso   1.000  O
  O84      1.0000 0.35656  0.46378  0.77270  Biso   1.000  O
  O85      1.0000 0.51902  0.41517  0.77359  Biso   1.000  O
  O86      1.0000 0.34930  0.42610  0.85450  Biso   1.000  O
  O87      1.0000 0.45330  0.53456  0.78184  Biso   1.000  O
  O88      1.0000 0.56628  0.52708  0.85776  Biso   1.000  O
  O89      1.0000 0.59385  0.92204  0.69366  Biso   1.000  O
  O90      1.0000 0.45804  0.92180  0.75232  Biso   1.000  O
  O91      1.0000 0.63330  0.00729  0.72611  Biso   1.000  O
  O92      1.0000 0.43260  0.02198  0.71802  Biso   1.000  O
  O93      1.0000 0.47487  0.15366  0.92180  Biso   1.000  O
  O94      1.0000 0.42193  0.09626  0.95008  Biso   1.000  O
  O95      1.0000 0.66058  0.12144  0.98700  Biso   1.000  O
  O96      1.0000 0.82781  0.09581  0.94337  Biso   1.000  O
  O97      1.0000 0.99387  0.78989  0.92657  Biso   1.000  O
  O98      1.0000 0.08724  0.84295  0.90037  Biso   1.000  O
  O99      1.0000 0.83925  0.86176  0.98514  Biso   1.000  O
  O100     1.0000 0.02142  0.86873  0.00323  Biso   1.000  O
  O101     1.0000 0.24907  0.83764  0.95322  Biso   1.000  O
  O102     1.0000 0.10113  0.77628  0.99666  Biso   1.000  O
  O103     1.0000 0.30190  0.81884  0.08356  Biso   1.000  O
  O104     1.0000 0.02050  0.83730  0.08230  Biso   1.000  O
  O105     1.0000 0.11170  0.77540  0.08500  Biso   1.000  O
  O106     1.0000 0.87074  0.77270  0.03622  Biso   1.000  O
  O107     1.0000 0.70739  0.77359  0.08483  Biso   1.000  O
  O108     1.0000 0.79620  0.85450  0.07390  Biso   1.000  O
  O109     1.0000 0.76486  0.78184  0.96544  Biso   1.000  O
  O110     1.0000 0.57596  0.85776  0.97292  Biso   1.000  O
  O111     1.0000 0.70955  0.57796  0.80634  Biso   1.000  O
  O112     1.0000 0.63216  0.57820  0.74768  Biso   1.000  O
  O113     1.0000 0.86670  0.49271  0.77389  Biso   1.000  O
  O114     1.0000 0.67260  0.47802  0.78198  Biso   1.000  O
  O115     1.0000 0.05033  0.34634  0.57820  Biso   1.000  O
  O116     1.0000 0.96827  0.40374  0.54992  Biso   1.000  O
  O117     1.0000 0.26902  0.37856  0.51300  Biso   1.000  O
  O118     1.0000 0.36699  0.40419  0.55663  Biso   1.000  O
  O119     1.0000 0.21033  0.71011  0.57343  Biso   1.000  O
  O120     1.0000 0.33056  0.65705  0.59963  Biso   1.000  O
  O121     1.0000 0.18615  0.63824  0.51486  Biso   1.000  O
  O122     1.0000 0.39338  0.63127  0.49677  Biso   1.000  O
  O123     1.0000 0.53993  0.66236  0.54678  Biso   1.000  O
  O124     1.0000 0.37407  0.72372  0.50334  Biso   1.000  O
  O125     1.0000 0.70430  0.68116  0.41644  Biso   1.000  O
  O126     1.0000 0.44010  0.66270  0.41770  Biso   1.000  O
  O127     1.0000 0.47210  0.72460  0.41500  Biso   1.000  O
  O128     1.0000 0.17966  0.72730  0.46378  Biso   1.000  O
  O129     1.0000 0.06581  0.72641  0.41517  Biso   1.000  O
  O130     1.0000 0.22460  0.64550  0.42610  Biso   1.000  O
  O131     1.0000 0.01214  0.71816  0.53456  Biso   1.000  O
  O132     1.0000 0.90664  0.64224  0.52708  Biso   1.000  O
  O133     1.0000 0.28751  0.30634  0.42204  Biso   1.000  O
  O134     1.0000 0.21036  0.24768  0.42180  Biso   1.000  O
  O135     1.0000 0.35941  0.27389  0.50729  Biso   1.000  O
  O136     1.0000 0.15062  0.28198  0.52198  Biso   1.000  O
  O137     1.0000 0.39667  0.07820  0.65366  Biso   1.000  O
  O138     1.0000 0.37201  0.04992  0.59626  Biso   1.000  O
  O139     1.0000 0.64758  0.01300  0.62144  Biso   1.000  O
  O140     1.0000 0.77118  0.05663  0.59581  Biso   1.000  O
  O141     1.0000 0.92044  0.07343  0.28989  Biso   1.000  O
  O142     1.0000 0.98761  0.09963  0.34295  Biso   1.000  O
  O143     1.0000 0.82439  0.01486  0.36176  Biso   1.000  O
  O144     1.0000 0.02465  0.99677  0.36873  Biso   1.000  O
  O145     1.0000 0.20229  0.04678  0.33764  Biso   1.000  O
  O146     1.0000 0.09779  0.00334  0.27628  Biso   1.000  O
  O147     1.0000 0.38546  0.91644  0.31884  Biso   1.000  O
  O148     1.0000 0.10280  0.91770  0.33730  Biso   1.000  O
  O149     1.0000 0.19670  0.91500  0.27540  Biso   1.000  O
  O150     1.0000 0.90696  0.96378  0.27270  Biso   1.000  O
  O151     1.0000 0.79222  0.91517  0.27359  Biso   1.000  O
  O152     1.0000 0.87010  0.92610  0.35450  Biso   1.000  O
  O153     1.0000 0.73030  0.03456  0.28184  Biso   1.000  O
  O154     1.0000 0.54888  0.02708  0.35776  Biso   1.000  O
  O155     1.0000 0.51589  0.19366  0.07796  Biso   1.000  O
  O156     1.0000 0.37984  0.25232  0.07820  Biso   1.000  O
  O157     1.0000 0.64059  0.22611  0.99271  Biso   1.000  O
  O158     1.0000 0.45458  0.21802  0.97802  Biso   1.000  O
  O159     1.0000 0.62853  0.42180  0.84634  Biso   1.000  O
  O160     1.0000 0.51819  0.45008  0.90374  Biso   1.000  O
  O161     1.0000 0.78202  0.48700  0.87856  Biso   1.000  O
  O162     1.0000 0.92362  0.44337  0.90419  Biso   1.000  O
  O163     1.0000 0.78376  0.42657  0.21011  Biso   1.000  O
  O164     1.0000 0.93019  0.40037  0.15705  Biso   1.000  O
  O165     1.0000 0.70101  0.48514  0.13824  Biso   1.000  O
  O166     1.0000 0.89015  0.50323  0.13127  Biso   1.000  O
  O167     1.0000 0.08671  0.45322  0.16236  Biso   1.000  O
  O168     1.0000 0.87741  0.49666  0.22372  Biso   1.000  O
  O169     1.0000 0.12074  0.58356  0.18116  Biso   1.000  O
  O170     1.0000 0.85780  0.58230  0.16270  Biso   1.000  O
  O171     1.0000 0.88710  0.58500  0.22460  Biso   1.000  O
  O172     1.0000 0.64344  0.53622  0.22730  Biso   1.000  O
  O173     1.0000 0.48098  0.58483  0.22641  Biso   1.000  O
  O174     1.0000 0.65070  0.57390  0.14550  Biso   1.000  O
  O175     1.0000 0.54670  0.46544  0.21816  Biso   1.000  O
  O176     1.0000 0.43372  0.47292  0.14224  Biso   1.000  O
