data_image0
_cell_length_a       11.0046
_cell_length_b       32.8649
_cell_length_c       32.8649
_cell_angle_alpha    88.3938
_cell_angle_beta     80.362
_cell_angle_gamma    80.362

_symmetry_space_group_name_H-M    P 1
_symmetry_int_tables_number       1

loop_
  _symmetry_equiv_pos_as_xyz
  'x, y, z'

loop_
  _atom_site_label
  _atom_site_occupancy
  _atom_site_fract_x
  _atom_site_fract_y
  _atom_site_fract_z
  _atom_site_thermal_displace_type
  _atom_site_B_iso_or_equiv
  _atom_site_type_symbol
  Tb1      1.0000 0.71517  0.32868  0.97304  Biso   1.000  Tb
  Tb2      1.0000 0.21509  0.32502  0.97529  Biso   1.000  Tb
  Tb3      1.0000 0.51689  0.17132  0.52696  Biso   1.000  Tb
  Tb4      1.0000 0.01541  0.17498  0.52470  Biso   1.000  Tb
  Tb5      1.0000 0.68821  0.02696  0.82868  Biso   1.000  Tb
  Tb6      1.0000 0.19038  0.02471  0.82502  Biso   1.000  Tb
  Tb7      1.0000 0.04385  0.47304  0.67132  Biso   1.000  Tb
  Tb8      1.0000 0.54011  0.47529  0.67499  Biso   1.000  Tb
  Tb9      1.0000 0.28483  0.67132  0.02696  Biso   1.000  Tb
  Tb10     1.0000 0.78491  0.67498  0.02470  Biso   1.000  Tb
  Tb11     1.0000 0.48311  0.82868  0.47304  Biso   1.000  Tb
  Tb12     1.0000 0.98459  0.82502  0.47529  Biso   1.000  Tb
  Tb13     1.0000 0.31179  0.97304  0.17132  Biso   1.000  Tb
  Tb14     1.0000 0.80962  0.97529  0.17498  Biso   1.000  Tb
  Tb15     1.0000 0.95615  0.52696  0.32868  Biso   1.000  Tb
  Tb16     1.0000 0.45988  0.52471  0.32502  Biso   1.000  Tb
  Co1      1.0000 0.78980  0.12864  0.03624  Biso   1.000  Co
  Co2      1.0000 0.45468  0.37136  0.46376  Biso   1.000  Co
  Co3      1.0000 0.82604  0.96376  0.62864  Biso   1.000  Co
  Co4      1.0000 0.91844  0.53624  0.87136  Biso   1.000  Co
  Co5      1.0000 0.21020  0.87136  0.96376  Biso   1.000  Co
  Co6      1.0000 0.54532  0.62864  0.53624  Biso   1.000  Co
  Co7      1.0000 0.17396  0.03624  0.37136  Biso   1.000  Co
  Co8      1.0000 0.08156  0.46376  0.12864  Biso   1.000  Co
  H1       1.0000 0.94530  0.32870  0.92270  Biso   1.000  H
  H2       1.0000 0.90290  0.30210  0.89810  Biso   1.000  H
  H3       1.0000 0.53860  0.43820  0.01780  Biso   1.000  H
  H4       1.0000 0.50210  0.49540  0.06080  Biso   1.000  H
  H5       1.0000 0.33190  0.50270  0.11370  Biso   1.000  H
  H6       1.0000 0.94150  0.38820  0.13960  Biso   1.000  H
  H7       1.0000 0.00170  0.31900  0.14940  Biso   1.000  H
  H8       1.0000 0.20960  0.28960  0.12940  Biso   1.000  H
  H9       1.0000 0.70950  0.27930  0.12590  Biso   1.000  H
  H10      1.0000 0.54520  0.24290  0.12990  Biso   1.000  H
  H11      1.0000 0.56620  0.18710  0.08650  Biso   1.000  H
  H12      1.0000 0.08290  0.10420  0.00100  Biso   1.000  H
  H13      1.0000 0.22670  0.13900  0.96220  Biso   1.000  H
  H14      1.0000 0.17970  0.20990  0.95690  Biso   1.000  H
  H15      1.0000 0.77320  0.46090  0.02710  Biso   1.000  H
  H16      1.0000 0.81150  0.52870  0.02830  Biso   1.000  H
  H17      1.0000 0.89600  0.55820  0.96820  Biso   1.000  H
  H18      1.0000 0.95010  0.47180  0.79860  Biso   1.000  H
  H19      1.0000 0.06190  0.40500  0.78800  Biso   1.000  H
  H20      1.0000 0.11780  0.36720  0.84460  Biso   1.000  H
  H21      1.0000 0.54460  0.36230  0.84830  Biso   1.000  H
  H22      1.0000 0.43440  0.36450  0.78870  Biso   1.000  H
  H23      1.0000 0.46540  0.29630  0.76170  Biso   1.000  H
  H24      1.0000 0.66600  0.13230  0.87390  Biso   1.000  H
  H25      1.0000 0.54760  0.12660  0.93160  Biso   1.000  H
  H26      1.0000 0.43550  0.18770  0.95830  Biso   1.000  H
  H27      1.0000 0.97910  0.36430  0.01550  Biso   1.000  H
  H28      1.0000 0.06540  0.38070  0.03450  Biso   1.000  H
  H29      1.0000 0.16180  0.28760  0.05200  Biso   1.000  H
  H30      1.0000 0.29350  0.28350  0.04430  Biso   1.000  H
  H31      1.0000 0.36470  0.38270  0.93230  Biso   1.000  H
  H32      1.0000 0.34560  0.35610  0.90030  Biso   1.000  H
  H33      1.0000 0.56420  0.28220  0.02600  Biso   1.000  H
  H34      1.0000 0.64860  0.25290  0.00130  Biso   1.000  H
  H35      1.0000 0.66750  0.36330  0.05210  Biso   1.000  H
  H36      1.0000 0.77080  0.33180  0.05260  Biso   1.000  H
  H37      1.0000 0.69670  0.17130  0.57730  Biso   1.000  H
  H38      1.0000 0.60310  0.19790  0.60190  Biso   1.000  H
  H39      1.0000 0.49460  0.06180  0.48220  Biso   1.000  H
  H40      1.0000 0.55830  0.00460  0.43920  Biso   1.000  H
  H41      1.0000 0.44830  0.99730  0.38630  Biso   1.000  H
  H42      1.0000 0.96930  0.11180  0.36040  Biso   1.000  H
  H43      1.0000 0.97010  0.18100  0.35060  Biso   1.000  H
  H44      1.0000 0.12860  0.21040  0.37060  Biso   1.000  H
  H45      1.0000 0.61470  0.22070  0.37410  Biso   1.000  H
  H46      1.0000 0.41800  0.25710  0.37010  Biso   1.000  H
  H47      1.0000 0.33980  0.31290  0.41350  Biso   1.000  H
  H48      1.0000 0.68810  0.39580  0.49900  Biso   1.000  H
  H49      1.0000 0.82790  0.36100  0.53780  Biso   1.000  H
  H50      1.0000 0.84650  0.29010  0.54310  Biso   1.000  H
  H51      1.0000 0.76120  0.03910  0.47290  Biso   1.000  H
  H52      1.0000 0.86850  0.97130  0.47170  Biso   1.000  H
  H53      1.0000 0.92240  0.94180  0.53180  Biso   1.000  H
  H54      1.0000 0.72050  0.02820  0.70140  Biso   1.000  H
  H55      1.0000 0.75490  0.09500  0.71200  Biso   1.000  H
  H56      1.0000 0.82960  0.13280  0.65540  Biso   1.000  H
  H57      1.0000 0.25520  0.13770  0.65170  Biso   1.000  H
  H58      1.0000 0.08760  0.13550  0.71130  Biso   1.000  H
  H59      1.0000 0.02340  0.20370  0.73830  Biso   1.000  H
  H60      1.0000 0.17220  0.36770  0.62610  Biso   1.000  H
  H61      1.0000 0.10580  0.37340  0.56840  Biso   1.000  H
  H62      1.0000 0.08150  0.31230  0.54170  Biso   1.000  H
  H63      1.0000 0.85890  0.13570  0.48450  Biso   1.000  H
  H64      1.0000 0.98060  0.11930  0.46550  Biso   1.000  H
  H65      1.0000 0.00140  0.21240  0.44800  Biso   1.000  H
  H66      1.0000 0.12130  0.21650  0.45570  Biso   1.000  H
  H67      1.0000 0.17970  0.11730  0.56770  Biso   1.000  H
  H68      1.0000 0.10200  0.14390  0.59970  Biso   1.000  H
  H69      1.0000 0.37240  0.21780  0.47400  Biso   1.000  H
  H70      1.0000 0.40280  0.24710  0.49870  Biso   1.000  H
  H71      1.0000 0.58290  0.13670  0.44790  Biso   1.000  H
  H72      1.0000 0.65520  0.16820  0.44740  Biso   1.000  H
  H73      1.0000 0.86800  0.07730  0.82870  Biso   1.000  H
  H74      1.0000 0.80100  0.10190  0.80210  Biso   1.000  H
  H75      1.0000 0.55640  0.98220  0.93820  Biso   1.000  H
  H76      1.0000 0.56290  0.93920  0.99540  Biso   1.000  H
  H77      1.0000 0.44560  0.88630  0.00270  Biso   1.000  H
  H78      1.0000 0.08110  0.86040  0.88820  Biso   1.000  H
  H79      1.0000 0.15110  0.85060  0.81900  Biso   1.000  H
  H80      1.0000 0.33900  0.87060  0.78960  Biso   1.000  H
  H81      1.0000 0.83540  0.87410  0.77930  Biso   1.000  H
  H82      1.0000 0.67510  0.87010  0.74290  Biso   1.000  H
  H83      1.0000 0.65270  0.91350  0.68710  Biso   1.000  H
  H84      1.0000 0.08390  0.99900  0.60420  Biso   1.000  H
  H85      1.0000 0.18890  0.03780  0.63900  Biso   1.000  H
  H86      1.0000 0.13660  0.04310  0.70990  Biso   1.000  H
  H87      1.0000 0.80030  0.97290  0.96090  Biso   1.000  H
  H88      1.0000 0.83980  0.97170  0.02870  Biso   1.000  H
  H89      1.0000 0.86420  0.03180  0.05820  Biso   1.000  H
  H90      1.0000 0.74870  0.20140  0.97180  Biso   1.000  H
  H91      1.0000 0.84990  0.21200  0.90500  Biso   1.000  H
  H92      1.0000 0.96240  0.15540  0.86720  Biso   1.000  H
  H93      1.0000 0.39290  0.15170  0.86230  Biso   1.000  H
  H94      1.0000 0.22310  0.21130  0.86450  Biso   1.000  H
  H95      1.0000 0.22710  0.23830  0.79630  Biso   1.000  H
  H96      1.0000 0.53990  0.12610  0.63230  Biso   1.000  H
  H97      1.0000 0.47920  0.06840  0.62660  Biso   1.000  H
  H98      1.0000 0.39380  0.04170  0.68770  Biso   1.000  H
  H99      1.0000 0.99460  0.98450  0.86430  Biso   1.000  H
  H100     1.0000 0.09990  0.96550  0.88070  Biso   1.000  H
  H101     1.0000 0.21380  0.94800  0.78760  Biso   1.000  H
  H102     1.0000 0.33780  0.95570  0.78350  Biso   1.000  H
  H103     1.0000 0.29700  0.06770  0.88270  Biso   1.000  H
  H104     1.0000 0.24590  0.09970  0.85610  Biso   1.000  H
  H105     1.0000 0.59020  0.97400  0.78220  Biso   1.000  H
  H106     1.0000 0.64990  0.99870  0.75290  Biso   1.000  H
  H107     1.0000 0.71960  0.94790  0.86330  Biso   1.000  H
  H108     1.0000 0.82340  0.94740  0.83180  Biso   1.000  H
  H109     1.0000 0.27400  0.42270  0.67130  Biso   1.000  H
  H110     1.0000 0.20500  0.39810  0.69790  Biso   1.000  H
  H111     1.0000 0.97680  0.51780  0.56180  Biso   1.000  H
  H112     1.0000 0.99750  0.56080  0.50460  Biso   1.000  H
  H113     1.0000 0.83460  0.61370  0.49730  Biso   1.000  H
  H114     1.0000 0.32970  0.63960  0.61180  Biso   1.000  H
  H115     1.0000 0.32070  0.64940  0.68100  Biso   1.000  H
  H116     1.0000 0.49920  0.62940  0.71040  Biso   1.000  H
  H117     1.0000 0.98880  0.62590  0.72070  Biso   1.000  H
  H118     1.0000 0.78810  0.62990  0.75710  Biso   1.000  H
  H119     1.0000 0.75330  0.58650  0.81290  Biso   1.000  H
  H120     1.0000 0.18710  0.50100  0.89580  Biso   1.000  H
  H121     1.0000 0.36570  0.46220  0.86100  Biso   1.000  H
  H122     1.0000 0.38960  0.45690  0.79010  Biso   1.000  H
  H123     1.0000 0.23410  0.52710  0.53910  Biso   1.000  H
  H124     1.0000 0.34020  0.52830  0.47130  Biso   1.000  H
  H125     1.0000 0.45420  0.46820  0.44180  Biso   1.000  H
  H126     1.0000 0.42190  0.29860  0.52820  Biso   1.000  H
  H127     1.0000 0.46690  0.28800  0.59500  Biso   1.000  H
  H128     1.0000 0.48500  0.34460  0.63280  Biso   1.000  H
  H129     1.0000 0.90690  0.34830  0.63770  Biso   1.000  H
  H130     1.0000 0.79890  0.28870  0.63550  Biso   1.000  H
  H131     1.0000 0.76170  0.26170  0.70370  Biso   1.000  H
  H132     1.0000 0.79830  0.37390  0.86770  Biso   1.000  H
  H133     1.0000 0.67420  0.43160  0.87340  Biso   1.000  H
  H134     1.0000 0.62320  0.45830  0.81230  Biso   1.000  H
  H135     1.0000 0.34340  0.51550  0.63570  Biso   1.000  H
  H136     1.0000 0.44610  0.53450  0.61930  Biso   1.000  H
  H137     1.0000 0.44940  0.55200  0.71240  Biso   1.000  H
  H138     1.0000 0.57700  0.54430  0.71650  Biso   1.000  H
  H139     1.0000 0.74740  0.43230  0.61730  Biso   1.000  H
  H140     1.0000 0.70170  0.40030  0.64390  Biso   1.000  H
  H141     1.0000 0.84640  0.52600  0.71780  Biso   1.000  H
  H142     1.0000 0.90150  0.50130  0.74710  Biso   1.000  H
  H143     1.0000 0.03080  0.55210  0.63670  Biso   1.000  H
  H144     1.0000 0.10260  0.55260  0.66820  Biso   1.000  H
  H145     1.0000 0.05470  0.67130  0.07730  Biso   1.000  H
  H146     1.0000 0.09710  0.69790  0.10190  Biso   1.000  H
  H147     1.0000 0.46140  0.56180  0.98220  Biso   1.000  H
  H148     1.0000 0.49790  0.50460  0.93920  Biso   1.000  H
  H149     1.0000 0.66810  0.49730  0.88630  Biso   1.000  H
  H150     1.0000 0.05850  0.61180  0.86040  Biso   1.000  H
  H151     1.0000 0.99830  0.68100  0.85060  Biso   1.000  H
  H152     1.0000 0.79040  0.71040  0.87060  Biso   1.000  H
  H153     1.0000 0.29050  0.72070  0.87410  Biso   1.000  H
  H154     1.0000 0.45480  0.75710  0.87010  Biso   1.000  H
  H155     1.0000 0.43380  0.81290  0.91350  Biso   1.000  H
  H156     1.0000 0.91710  0.89580  0.99900  Biso   1.000  H
  H157     1.0000 0.77330  0.86100  0.03780  Biso   1.000  H
  H158     1.0000 0.82030  0.79010  0.04310  Biso   1.000  H
  H159     1.0000 0.22680  0.53910  0.97290  Biso   1.000  H
  H160     1.0000 0.18850  0.47130  0.97170  Biso   1.000  H
  H161     1.0000 0.10400  0.44180  0.03180  Biso   1.000  H
  H162     1.0000 0.04990  0.52820  0.20140  Biso   1.000  H
  H163     1.0000 0.93810  0.59500  0.21200  Biso   1.000  H
  H164     1.0000 0.88220  0.63280  0.15540  Biso   1.000  H
  H165     1.0000 0.45540  0.63770  0.15170  Biso   1.000  H
  H166     1.0000 0.56560  0.63550  0.21130  Biso   1.000  H
  H167     1.0000 0.53460  0.70370  0.23830  Biso   1.000  H
  H168     1.0000 0.33400  0.86770  0.12610  Biso   1.000  H
  H169     1.0000 0.45240  0.87340  0.06840  Biso   1.000  H
  H170     1.0000 0.56450  0.81230  0.04170  Biso   1.000  H
  H171     1.0000 0.02090  0.63570  0.98450  Biso   1.000  H
  H172     1.0000 0.93460  0.61930  0.96550  Biso   1.000  H
  H173     1.0000 0.83820  0.71240  0.94800  Biso   1.000  H
  H174     1.0000 0.70650  0.71650  0.95570  Biso   1.000  H
  H175     1.0000 0.63530  0.61730  0.06770  Biso   1.000  H
  H176     1.0000 0.65440  0.64390  0.09970  Biso   1.000  H
  H177     1.0000 0.43580  0.71780  0.97400  Biso   1.000  H
  H178     1.0000 0.35140  0.74710  0.99870  Biso   1.000  H
  H179     1.0000 0.33250  0.63670  0.94790  Biso   1.000  H
  H180     1.0000 0.22920  0.66820  0.94740  Biso   1.000  H
  H181     1.0000 0.30330  0.82870  0.42270  Biso   1.000  H
  H182     1.0000 0.39690  0.80210  0.39810  Biso   1.000  H
  H183     1.0000 0.50540  0.93820  0.51780  Biso   1.000  H
  H184     1.0000 0.44170  0.99540  0.56080  Biso   1.000  H
  H185     1.0000 0.55170  0.00270  0.61370  Biso   1.000  H
  H186     1.0000 0.03070  0.88820  0.63960  Biso   1.000  H
  H187     1.0000 0.02990  0.81900  0.64940  Biso   1.000  H
  H188     1.0000 0.87140  0.78960  0.62940  Biso   1.000  H
  H189     1.0000 0.38530  0.77930  0.62590  Biso   1.000  H
  H190     1.0000 0.58200  0.74290  0.62990  Biso   1.000  H
  H191     1.0000 0.66020  0.68710  0.58650  Biso   1.000  H
  H192     1.0000 0.31190  0.60420  0.50100  Biso   1.000  H
  H193     1.0000 0.17210  0.63900  0.46220  Biso   1.000  H
  H194     1.0000 0.15350  0.70990  0.45690  Biso   1.000  H
  H195     1.0000 0.23880  0.96090  0.52710  Biso   1.000  H
  H196     1.0000 0.13150  0.02870  0.52830  Biso   1.000  H
  H197     1.0000 0.07760  0.05820  0.46820  Biso   1.000  H
  H198     1.0000 0.27950  0.97180  0.29860  Biso   1.000  H
  H199     1.0000 0.24510  0.90500  0.28800  Biso   1.000  H
  H200     1.0000 0.17040  0.86720  0.34460  Biso   1.000  H
  H201     1.0000 0.74480  0.86230  0.34830  Biso   1.000  H
  H202     1.0000 0.91240  0.86450  0.28870  Biso   1.000  H
  H203     1.0000 0.97660  0.79630  0.26170  Biso   1.000  H
  H204     1.0000 0.82780  0.63230  0.37390  Biso   1.000  H
  H205     1.0000 0.89420  0.62660  0.43160  Biso   1.000  H
  H206     1.0000 0.91850  0.68770  0.45830  Biso   1.000  H
  H207     1.0000 0.14110  0.86430  0.51550  Biso   1.000  H
  H208     1.0000 0.01940  0.88070  0.53450  Biso   1.000  H
  H209     1.0000 0.99860  0.78760  0.55200  Biso   1.000  H
  H210     1.0000 0.87870  0.78350  0.54430  Biso   1.000  H
  H211     1.0000 0.82030  0.88270  0.43230  Biso   1.000  H
  H212     1.0000 0.89800  0.85610  0.40030  Biso   1.000  H
  H213     1.0000 0.62760  0.78220  0.52600  Biso   1.000  H
  H214     1.0000 0.59720  0.75290  0.50130  Biso   1.000  H
  H215     1.0000 0.41710  0.86330  0.55210  Biso   1.000  H
  H216     1.0000 0.34480  0.83180  0.55260  Biso   1.000  H
  H217     1.0000 0.13200  0.92270  0.17130  Biso   1.000  H
  H218     1.0000 0.19900  0.89810  0.19790  Biso   1.000  H
  H219     1.0000 0.44360  0.01780  0.06180  Biso   1.000  H
  H220     1.0000 0.43710  0.06080  0.00460  Biso   1.000  H
  H221     1.0000 0.55440  0.11370  0.99730  Biso   1.000  H
  H222     1.0000 0.91890  0.13960  0.11180  Biso   1.000  H
  H223     1.0000 0.84890  0.14940  0.18100  Biso   1.000  H
  H224     1.0000 0.66100  0.12940  0.21040  Biso   1.000  H
  H225     1.0000 0.16460  0.12590  0.22070  Biso   1.000  H
  H226     1.0000 0.32490  0.12990  0.25710  Biso   1.000  H
  H227     1.0000 0.34730  0.08650  0.31290  Biso   1.000  H
  H228     1.0000 0.91610  0.00100  0.39580  Biso   1.000  H
  H229     1.0000 0.81110  0.96220  0.36100  Biso   1.000  H
  H230     1.0000 0.86340  0.95690  0.29010  Biso   1.000  H
  H231     1.0000 0.19970  0.02710  0.03910  Biso   1.000  H
  H232     1.0000 0.16020  0.02830  0.97130  Biso   1.000  H
  H233     1.0000 0.13580  0.96820  0.94180  Biso   1.000  H
  H234     1.0000 0.25130  0.79860  0.02820  Biso   1.000  H
  H235     1.0000 0.15010  0.78800  0.09500  Biso   1.000  H
  H236     1.0000 0.03760  0.84460  0.13280  Biso   1.000  H
  H237     1.0000 0.60710  0.84830  0.13770  Biso   1.000  H
  H238     1.0000 0.77690  0.78870  0.13550  Biso   1.000  H
  H239     1.0000 0.77290  0.76170  0.20370  Biso   1.000  H
  H240     1.0000 0.46010  0.87390  0.36770  Biso   1.000  H
  H241     1.0000 0.52080  0.93160  0.37340  Biso   1.000  H
  H242     1.0000 0.60620  0.95830  0.31230  Biso   1.000  H
  H243     1.0000 0.00540  0.01550  0.13570  Biso   1.000  H
  H244     1.0000 0.90010  0.03450  0.11930  Biso   1.000  H
  H245     1.0000 0.78620  0.05200  0.21240  Biso   1.000  H
  H246     1.0000 0.66220  0.04430  0.21650  Biso   1.000  H
  H247     1.0000 0.70300  0.93230  0.11730  Biso   1.000  H
  H248     1.0000 0.75410  0.90030  0.14390  Biso   1.000  H
  H249     1.0000 0.40980  0.02600  0.21780  Biso   1.000  H
  H250     1.0000 0.35010  0.00130  0.24710  Biso   1.000  H
  H251     1.0000 0.28040  0.05210  0.13670  Biso   1.000  H
  H252     1.0000 0.17660  0.05260  0.16820  Biso   1.000  H
  H253     1.0000 0.72600  0.57730  0.32870  Biso   1.000  H
  H254     1.0000 0.79500  0.60190  0.30210  Biso   1.000  H
  H255     1.0000 0.02320  0.48220  0.43820  Biso   1.000  H
  H256     1.0000 0.00250  0.43920  0.49540  Biso   1.000  H
  H257     1.0000 0.16540  0.38630  0.50270  Biso   1.000  H
  H258     1.0000 0.67030  0.36040  0.38820  Biso   1.000  H
  H259     1.0000 0.67930  0.35060  0.31900  Biso   1.000  H
  H260     1.0000 0.50080  0.37060  0.28960  Biso   1.000  H
  H261     1.0000 0.01120  0.37410  0.27930  Biso   1.000  H
  H262     1.0000 0.21190  0.37010  0.24290  Biso   1.000  H
  H263     1.0000 0.24670  0.41350  0.18710  Biso   1.000  H
  H264     1.0000 0.81290  0.49900  0.10420  Biso   1.000  H
  H265     1.0000 0.63430  0.53780  0.13900  Biso   1.000  H
  H266     1.0000 0.61040  0.54310  0.20990  Biso   1.000  H
  H267     1.0000 0.76590  0.47290  0.46090  Biso   1.000  H
  H268     1.0000 0.65980  0.47170  0.52870  Biso   1.000  H
  H269     1.0000 0.54580  0.53180  0.55820  Biso   1.000  H
  H270     1.0000 0.57810  0.70140  0.47180  Biso   1.000  H
  H271     1.0000 0.53310  0.71200  0.40500  Biso   1.000  H
  H272     1.0000 0.51500  0.65540  0.36720  Biso   1.000  H
  H273     1.0000 0.09310  0.65170  0.36230  Biso   1.000  H
  H274     1.0000 0.20110  0.71130  0.36450  Biso   1.000  H
  H275     1.0000 0.23830  0.73830  0.29630  Biso   1.000  H
  H276     1.0000 0.20170  0.62610  0.13230  Biso   1.000  H
  H277     1.0000 0.32580  0.56840  0.12660  Biso   1.000  H
  H278     1.0000 0.37680  0.54170  0.18770  Biso   1.000  H
  H279     1.0000 0.65660  0.48450  0.36430  Biso   1.000  H
  H280     1.0000 0.55390  0.46550  0.38070  Biso   1.000  H
  H281     1.0000 0.55060  0.44800  0.28760  Biso   1.000  H
  H282     1.0000 0.42300  0.45570  0.28350  Biso   1.000  H
  H283     1.0000 0.25260  0.56770  0.38270  Biso   1.000  H
  H284     1.0000 0.29830  0.59970  0.35610  Biso   1.000  H
  H285     1.0000 0.15360  0.47400  0.28220  Biso   1.000  H
  H286     1.0000 0.09850  0.49870  0.25290  Biso   1.000  H
  H287     1.0000 0.96920  0.44790  0.36330  Biso   1.000  H
  H288     1.0000 0.89740  0.44740  0.33180  Biso   1.000  H
  C1       1.0000 0.41525  0.37612  0.01758  Biso   1.000  C
  C2       1.0000 0.39908  0.41017  0.04867  Biso   1.000  C
  C3       1.0000 0.47393  0.44089  0.04025  Biso   1.000  C
  C4       1.0000 0.45131  0.47525  0.06533  Biso   1.000  C
  C5       1.0000 0.35063  0.47895  0.09759  Biso   1.000  C
  C6       1.0000 0.30682  0.41469  0.08367  Biso   1.000  C
  C7       1.0000 0.22570  0.38337  0.10023  Biso   1.000  C
  C8       1.0000 0.02469  0.37646  0.13116  Biso   1.000  C
  C9       1.0000 0.05988  0.33507  0.13717  Biso   1.000  C
  C10      1.0000 0.18339  0.31751  0.12471  Biso   1.000  C
  C11      1.0000 0.26818  0.34175  0.10529  Biso   1.000  C
  C12      1.0000 0.40246  0.32184  0.09104  Biso   1.000  C
  C13      1.0000 0.93116  0.27001  0.07847  Biso   1.000  C
  C14      1.0000 0.82401  0.24586  0.08012  Biso   1.000  C
  C15      1.0000 0.71606  0.25703  0.10845  Biso   1.000  C
  C16      1.0000 0.61831  0.23533  0.11105  Biso   1.000  C
  C17      1.0000 0.63175  0.20196  0.08494  Biso   1.000  C
  C18      1.0000 0.83099  0.21191  0.05451  Biso   1.000  C
  C19      1.0000 0.94255  0.19400  0.02410  Biso   1.000  C
  C20      1.0000 0.06773  0.13288  0.00086  Biso   1.000  C
  C21      1.0000 0.15271  0.15344  0.97654  Biso   1.000  C
  C22      1.0000 0.12545  0.19560  0.97410  Biso   1.000  C
  C23      1.0000 0.01801  0.21699  0.99699  Biso   1.000  C
  C24      1.0000 0.97877  0.26272  0.98874  Biso   1.000  C
  C25      1.0000 0.80416  0.40886  0.96482  Biso   1.000  C
  C26      1.0000 0.84475  0.45050  0.96680  Biso   1.000  C
  C27      1.0000 0.81044  0.47287  0.00325  Biso   1.000  C
  C28      1.0000 0.83219  0.51350  0.00392  Biso   1.000  C
  C29      1.0000 0.88482  0.53080  0.96796  Biso   1.000  C
  C30      1.0000 0.90621  0.46927  0.93231  Biso   1.000  C
  C31      1.0000 0.95655  0.44871  0.89199  Biso   1.000  C
  C32      1.0000 0.96955  0.45586  0.82124  Biso   1.000  C
  C33      1.0000 0.03851  0.41593  0.81445  Biso   1.000  C
  C34      1.0000 0.07053  0.39349  0.84825  Biso   1.000  C
  C35      1.0000 0.03246  0.40986  0.88802  Biso   1.000  C
  C36      1.0000 0.08713  0.38723  0.92311  Biso   1.000  C
  C37      1.0000 0.62170  0.30550  0.90150  Biso   1.000  C
  C38      1.0000 0.55900  0.30150  0.86150  Biso   1.000  C
  C39      1.0000 0.52720  0.33790  0.83870  Biso   1.000  C
  C40      1.0000 0.46970  0.34070  0.80130  Biso   1.000  C
  C41      1.0000 0.47980  0.29960  0.78840  Biso   1.000  C
  C42      1.0000 0.53450  0.26630  0.84790  Biso   1.000  C
  C43      1.0000 0.54890  0.22800  0.87220  Biso   1.000  C
  C44      1.0000 0.61460  0.15670  0.88370  Biso   1.000  C
  C45      1.0000 0.54900  0.15180  0.91800  Biso   1.000  C
  C46      1.0000 0.48250  0.18740  0.93200  Biso   1.000  C
  C47      1.0000 0.47710  0.22550  0.90990  Biso   1.000  C
  C48      1.0000 0.38524  0.26008  0.93004  Biso   1.000  C
  C49      1.0000 0.30895  0.12388  0.48242  Biso   1.000  C
  C50      1.0000 0.35792  0.08983  0.45133  Biso   1.000  C
  C51      1.0000 0.45507  0.05911  0.45975  Biso   1.000  C
  C52      1.0000 0.49189  0.02475  0.43467  Biso   1.000  C
  C53      1.0000 0.42717  0.02105  0.40241  Biso   1.000  C
  C54      1.0000 0.30518  0.08531  0.41633  Biso   1.000  C
  C55      1.0000 0.20930  0.11663  0.39977  Biso   1.000  C
  C56      1.0000 0.03231  0.12354  0.36884  Biso   1.000  C
  C57      1.0000 0.03212  0.16493  0.36283  Biso   1.000  C
  C58      1.0000 0.12561  0.18249  0.37529  Biso   1.000  C
  C59      1.0000 0.21522  0.15825  0.39471  Biso   1.000  C
  C60      1.0000 0.31534  0.17816  0.40896  Biso   1.000  C
  C61      1.0000 0.77964  0.22999  0.42153  Biso   1.000  C
  C62      1.0000 0.64999  0.25414  0.41988  Biso   1.000  C
  C63      1.0000 0.58154  0.24297  0.39155  Biso   1.000  C
  C64      1.0000 0.46469  0.26467  0.38895  Biso   1.000  C
  C65      1.0000 0.41865  0.29804  0.41506  Biso   1.000  C
  C66      1.0000 0.59741  0.28809  0.44549  Biso   1.000  C
  C67      1.0000 0.66065  0.30600  0.47590  Biso   1.000  C
  C68      1.0000 0.70147  0.36712  0.49914  Biso   1.000  C
  C69      1.0000 0.78269  0.34656  0.52346  Biso   1.000  C
  C70      1.0000 0.79515  0.30440  0.52590  Biso   1.000  C
  C71      1.0000 0.73199  0.28301  0.50301  Biso   1.000  C
  C72      1.0000 0.73023  0.23728  0.51126  Biso   1.000  C
  C73      1.0000 0.67784  0.09114  0.53518  Biso   1.000  C
  C74      1.0000 0.76205  0.04950  0.53320  Biso   1.000  C
  C75      1.0000 0.78656  0.02713  0.49675  Biso   1.000  C
  C76      1.0000 0.84961  0.98650  0.49608  Biso   1.000  C
  C77      1.0000 0.88358  0.96920  0.53204  Biso   1.000  C
  C78      1.0000 0.80779  0.03073  0.56769  Biso   1.000  C
  C79      1.0000 0.79725  0.05129  0.60801  Biso   1.000  C
  C80      1.0000 0.74665  0.04414  0.67876  Biso   1.000  C
  C81      1.0000 0.76889  0.08407  0.68555  Biso   1.000  C
  C82      1.0000 0.81227  0.10651  0.65175  Biso   1.000  C
  C83      1.0000 0.83034  0.09014  0.61198  Biso   1.000  C
  C84      1.0000 0.89747  0.11277  0.57689  Biso   1.000  C
  C85      1.0000 0.32870  0.19450  0.59850  Biso   1.000  C
  C86      1.0000 0.22200  0.19850  0.63850  Biso   1.000  C
  C87      1.0000 0.20380  0.16210  0.66130  Biso   1.000  C
  C88      1.0000 0.11170  0.15930  0.69870  Biso   1.000  C
  C89      1.0000 0.06780  0.20040  0.71160  Biso   1.000  C
  C90      1.0000 0.14870  0.23370  0.65210  Biso   1.000  C
  C91      1.0000 0.14910  0.27200  0.62780  Biso   1.000  C
  C92      1.0000 0.15500  0.34330  0.61630  Biso   1.000  C
  C93      1.0000 0.11880  0.34820  0.58200  Biso   1.000  C
  C94      1.0000 0.10190  0.31260  0.56800  Biso   1.000  C
  C95      1.0000 0.11250  0.27450  0.59010  Biso   1.000  C
  C96      1.0000 0.07536  0.23992  0.56996  Biso   1.000  C
  C97      1.0000 0.43283  0.98242  0.87612  Biso   1.000  C
  C98      1.0000 0.44775  0.95133  0.91017  Biso   1.000  C
  C99      1.0000 0.51418  0.95975  0.94089  Biso   1.000  C
  C100     1.0000 0.51664  0.93467  0.97525  Biso   1.000  C
  C101     1.0000 0.44822  0.90241  0.97895  Biso   1.000  C
  C102     1.0000 0.39049  0.91633  0.91469  Biso   1.000  C
  C103     1.0000 0.32593  0.89977  0.88337  Biso   1.000  C
  C104     1.0000 0.15585  0.86884  0.87646  Biso   1.000  C
  C105     1.0000 0.19705  0.86283  0.83507  Biso   1.000  C
  C106     1.0000 0.30810  0.87529  0.81751  Biso   1.000  C
  C107     1.0000 0.37347  0.89471  0.84175  Biso   1.000  C
  C108     1.0000 0.49350  0.90896  0.82184  Biso   1.000  C
  C109     1.0000 0.00963  0.92153  0.77001  Biso   1.000  C
  C110     1.0000 0.90413  0.91988  0.74586  Biso   1.000  C
  C111     1.0000 0.82451  0.89155  0.75703  Biso   1.000  C
  C112     1.0000 0.72936  0.88895  0.73533  Biso   1.000  C
  C113     1.0000 0.71669  0.91506  0.70196  Biso   1.000  C
  C114     1.0000 0.88550  0.94549  0.71191  Biso   1.000  C
  C115     1.0000 0.96665  0.97590  0.69400  Biso   1.000  C
  C116     1.0000 0.06859  0.99914  0.63288  Biso   1.000  C
  C117     1.0000 0.12925  0.02346  0.65344  Biso   1.000  C
  C118     1.0000 0.09955  0.02590  0.69560  Biso   1.000  C
  C119     1.0000 0.01500  0.00301  0.71699  Biso   1.000  C
  C120     1.0000 0.96751  0.01126  0.76272  Biso   1.000  C
  C121     1.0000 0.76898  0.03518  0.90886  Biso   1.000  C
  C122     1.0000 0.81155  0.03320  0.95050  Biso   1.000  C
  C123     1.0000 0.81369  0.99675  0.97287  Biso   1.000  C
  C124     1.0000 0.83611  0.99608  0.01350  Biso   1.000  C
  C125     1.0000 0.85278  0.03204  0.03080  Biso   1.000  C
  C126     1.0000 0.83852  0.06769  0.96927  Biso   1.000  C
  C127     1.0000 0.84854  0.10801  0.94871  Biso   1.000  C
  C128     1.0000 0.79079  0.17876  0.95586  Biso   1.000  C
  C129     1.0000 0.85296  0.18555  0.91593  Biso   1.000  C
  C130     1.0000 0.91878  0.15175  0.89349  Biso   1.000  C
  C131     1.0000 0.92048  0.11198  0.90986  Biso   1.000  C
  C132     1.0000 0.01024  0.07689  0.88723  Biso   1.000  C
  C133     1.0000 0.52320  0.09850  0.80550  Biso   1.000  C
  C134     1.0000 0.42050  0.13850  0.80150  Biso   1.000  C
  C135     1.0000 0.36590  0.16130  0.83790  Biso   1.000  C
  C136     1.0000 0.27100  0.19870  0.84070  Biso   1.000  C
  C137     1.0000 0.26820  0.21160  0.79960  Biso   1.000  C
  C138     1.0000 0.38240  0.15210  0.76630  Biso   1.000  C
  C139     1.0000 0.42110  0.12780  0.72800  Biso   1.000  C
  C140     1.0000 0.49830  0.11630  0.65670  Biso   1.000  C
  C141     1.0000 0.46700  0.08200  0.65180  Biso   1.000  C
  C142     1.0000 0.41450  0.06800  0.68740  Biso   1.000  C
  C143     1.0000 0.38700  0.09010  0.72550  Biso   1.000  C
  C144     1.0000 0.31528  0.06996  0.76008  Biso   1.000  C
  C145     1.0000 0.79137  0.51758  0.62388  Biso   1.000  C
  C146     1.0000 0.80925  0.54867  0.58983  Biso   1.000  C
  C147     1.0000 0.91482  0.54025  0.55911  Biso   1.000  C
  C148     1.0000 0.92656  0.56533  0.52475  Biso   1.000  C
  C149     1.0000 0.82958  0.59759  0.52105  Biso   1.000  C
  C150     1.0000 0.72151  0.58367  0.58531  Biso   1.000  C
  C151     1.0000 0.60907  0.60023  0.61663  Biso   1.000  C
  C152     1.0000 0.40115  0.63116  0.62354  Biso   1.000  C
  C153     1.0000 0.39495  0.63717  0.66493  Biso   1.000  C
  C154     1.0000 0.50090  0.62471  0.68249  Biso   1.000  C
  C155     1.0000 0.60993  0.60529  0.65825  Biso   1.000  C
  C156     1.0000 0.72430  0.59104  0.67816  Biso   1.000  C
  C157     1.0000 0.20117  0.57847  0.72999  Biso   1.000  C
  C158     1.0000 0.06987  0.58012  0.75414  Biso   1.000  C
  C159     1.0000 0.97309  0.60845  0.74297  Biso   1.000  C
  C160     1.0000 0.85364  0.61105  0.76467  Biso   1.000  C
  C161     1.0000 0.83371  0.58494  0.79804  Biso   1.000  C
  C162     1.0000 0.04290  0.55451  0.78809  Biso   1.000  C
  C163     1.0000 0.13655  0.52410  0.80600  Biso   1.000  C
  C164     1.0000 0.20061  0.50086  0.86712  Biso   1.000  C
  C165     1.0000 0.30615  0.47654  0.84656  Biso   1.000  C
  C166     1.0000 0.32105  0.47410  0.80440  Biso   1.000  C
  C167     1.0000 0.23500  0.49699  0.78301  Biso   1.000  C
  C168     1.0000 0.24149  0.48874  0.73728  Biso   1.000  C
  C169     1.0000 0.21302  0.46482  0.59114  Biso   1.000  C
  C170     1.0000 0.29525  0.46680  0.54950  Biso   1.000  C
  C171     1.0000 0.28331  0.50325  0.52713  Biso   1.000  C
  C172     1.0000 0.34569  0.50392  0.48650  Biso   1.000  C
  C173     1.0000 0.41562  0.46796  0.46920  Biso   1.000  C
  C174     1.0000 0.37548  0.43231  0.53073  Biso   1.000  C
  C175     1.0000 0.40526  0.39199  0.55129  Biso   1.000  C
  C176     1.0000 0.42541  0.32124  0.54414  Biso   1.000  C
  C177     1.0000 0.45444  0.31445  0.58407  Biso   1.000  C
  C178     1.0000 0.46402  0.34825  0.60651  Biso   1.000  C
  C179     1.0000 0.44232  0.38802  0.59014  Biso   1.000  C
  C180     1.0000 0.47436  0.42311  0.61277  Biso   1.000  C
  C181     1.0000 0.92720  0.40150  0.69450  Biso   1.000  C
  C182     1.0000 0.86050  0.36150  0.69850  Biso   1.000  C
  C183     1.0000 0.86510  0.33870  0.66210  Biso   1.000  C
  C184     1.0000 0.81040  0.30130  0.65930  Biso   1.000  C
  C185     1.0000 0.77940  0.28840  0.70040  Biso   1.000  C
  C186     1.0000 0.80080  0.34790  0.73370  Biso   1.000  C
  C187     1.0000 0.77690  0.37220  0.77200  Biso   1.000  C
  C188     1.0000 0.77130  0.38370  0.84330  Biso   1.000  C
  C189     1.0000 0.70080  0.41800  0.84820  Biso   1.000  C
  C190     1.0000 0.66990  0.43200  0.81260  Biso   1.000  C
  C191     1.0000 0.70260  0.40990  0.77450  Biso   1.000  C
  C192     1.0000 0.64532  0.43004  0.73992  Biso   1.000  C
  C193     1.0000 0.58475  0.62388  0.98242  Biso   1.000  C
  C194     1.0000 0.60092  0.58983  0.95133  Biso   1.000  C
  C195     1.0000 0.52607  0.55911  0.95975  Biso   1.000  C
  C196     1.0000 0.54869  0.52475  0.93467  Biso   1.000  C
  C197     1.0000 0.64937  0.52105  0.90241  Biso   1.000  C
  C198     1.0000 0.69318  0.58531  0.91633  Biso   1.000  C
  C199     1.0000 0.77430  0.61663  0.89977  Biso   1.000  C
  C200     1.0000 0.97531  0.62354  0.86884  Biso   1.000  C
  C201     1.0000 0.94012  0.66493  0.86283  Biso   1.000  C
  C202     1.0000 0.81661  0.68249  0.87529  Biso   1.000  C
  C203     1.0000 0.73182  0.65825  0.89471  Biso   1.000  C
  C204     1.0000 0.59754  0.67816  0.90896  Biso   1.000  C
  C205     1.0000 0.06884  0.72999  0.92153  Biso   1.000  C
  C206     1.0000 0.17599  0.75414  0.91988  Biso   1.000  C
  C207     1.0000 0.28394  0.74297  0.89155  Biso   1.000  C
  C208     1.0000 0.38169  0.76467  0.88895  Biso   1.000  C
  C209     1.0000 0.36825  0.79804  0.91506  Biso   1.000  C
  C210     1.0000 0.16901  0.78809  0.94549  Biso   1.000  C
  C211     1.0000 0.05745  0.80600  0.97590  Biso   1.000  C
  C212     1.0000 0.93227  0.86712  0.99914  Biso   1.000  C
  C213     1.0000 0.84729  0.84656  0.02346  Biso   1.000  C
  C214     1.0000 0.87455  0.80440  0.02590  Biso   1.000  C
  C215     1.0000 0.98199  0.78301  0.00301  Biso   1.000  C
  C216     1.0000 0.02123  0.73728  0.01126  Biso   1.000  C
  C217     1.0000 0.19584  0.59114  0.03518  Biso   1.000  C
  C218     1.0000 0.15525  0.54950  0.03320  Biso   1.000  C
  C219     1.0000 0.18956  0.52713  0.99675  Biso   1.000  C
  C220     1.0000 0.16781  0.48650  0.99608  Biso   1.000  C
  C221     1.0000 0.11518  0.46920  0.03204  Biso   1.000  C
  C222     1.0000 0.09379  0.53073  0.06769  Biso   1.000  C
  C223     1.0000 0.04345  0.55129  0.10801  Biso   1.000  C
  C224     1.0000 0.03045  0.54414  0.17876  Biso   1.000  C
  C225     1.0000 0.96149  0.58407  0.18555  Biso   1.000  C
  C226     1.0000 0.92947  0.60651  0.15175  Biso   1.000  C
  C227     1.0000 0.96754  0.59014  0.11198  Biso   1.000  C
  C228     1.0000 0.91287  0.61277  0.07689  Biso   1.000  C
  C229     1.0000 0.37830  0.69450  0.09850  Biso   1.000  C
  C230     1.0000 0.44100  0.69850  0.13850  Biso   1.000  C
  C231     1.0000 0.47280  0.66210  0.16130  Biso   1.000  C
  C232     1.0000 0.53030  0.65930  0.19870  Biso   1.000  C
  C233     1.0000 0.52020  0.70040  0.21160  Biso   1.000  C
  C234     1.0000 0.46550  0.73370  0.15210  Biso   1.000  C
  C235     1.0000 0.45110  0.77200  0.12780  Biso   1.000  C
  C236     1.0000 0.38540  0.84330  0.11630  Biso   1.000  C
  C237     1.0000 0.45100  0.84820  0.08200  Biso   1.000  C
  C238     1.0000 0.51750  0.81260  0.06800  Biso   1.000  C
  C239     1.0000 0.52290  0.77450  0.09010  Biso   1.000  C
  C240     1.0000 0.61476  0.73992  0.06996  Biso   1.000  C
  C241     1.0000 0.69105  0.87612  0.51758  Biso   1.000  C
  C242     1.0000 0.64208  0.91017  0.54867  Biso   1.000  C
  C243     1.0000 0.54493  0.94089  0.54025  Biso   1.000  C
  C244     1.0000 0.50811  0.97525  0.56533  Biso   1.000  C
  C245     1.0000 0.57283  0.97895  0.59759  Biso   1.000  C
  C246     1.0000 0.69482  0.91469  0.58367  Biso   1.000  C
  C247     1.0000 0.79070  0.88337  0.60023  Biso   1.000  C
  C248     1.0000 0.96769  0.87646  0.63116  Biso   1.000  C
  C249     1.0000 0.96788  0.83507  0.63717  Biso   1.000  C
  C250     1.0000 0.87439  0.81751  0.62471  Biso   1.000  C
  C251     1.0000 0.78478  0.84175  0.60529  Biso   1.000  C
  C252     1.0000 0.68466  0.82184  0.59104  Biso   1.000  C
  C253     1.0000 0.22036  0.77001  0.57847  Biso   1.000  C
  C254     1.0000 0.35001  0.74586  0.58012  Biso   1.000  C
  C255     1.0000 0.41846  0.75703  0.60845  Biso   1.000  C
  C256     1.0000 0.53531  0.73533  0.61105  Biso   1.000  C
  C257     1.0000 0.58135  0.70196  0.58494  Biso   1.000  C
  C258     1.0000 0.40259  0.71191  0.55451  Biso   1.000  C
  C259     1.0000 0.33935  0.69400  0.52410  Biso   1.000  C
  C260     1.0000 0.29853  0.63288  0.50086  Biso   1.000  C
  C261     1.0000 0.21731  0.65344  0.47654  Biso   1.000  C
  C262     1.0000 0.20485  0.69560  0.47410  Biso   1.000  C
  C263     1.0000 0.26801  0.71699  0.49699  Biso   1.000  C
  C264     1.0000 0.26977  0.76272  0.48874  Biso   1.000  C
  C265     1.0000 0.32216  0.90886  0.46482  Biso   1.000  C
  C266     1.0000 0.23795  0.95050  0.46680  Biso   1.000  C
  C267     1.0000 0.21344  0.97287  0.50325  Biso   1.000  C
  C268     1.0000 0.15039  0.01350  0.50392  Biso   1.000  C
  C269     1.0000 0.11642  0.03080  0.46796  Biso   1.000  C
  C270     1.0000 0.19221  0.96927  0.43231  Biso   1.000  C
  C271     1.0000 0.20275  0.94871  0.39199  Biso   1.000  C
  C272     1.0000 0.25335  0.95586  0.32124  Biso   1.000  C
  C273     1.0000 0.23111  0.91593  0.31445  Biso   1.000  C
  C274     1.0000 0.18773  0.89349  0.34825  Biso   1.000  C
  C275     1.0000 0.16966  0.90986  0.38802  Biso   1.000  C
  C276     1.0000 0.10253  0.88723  0.42311  Biso   1.000  C
  C277     1.0000 0.67130  0.80550  0.40150  Biso   1.000  C
  C278     1.0000 0.77800  0.80150  0.36150  Biso   1.000  C
  C279     1.0000 0.79620  0.83790  0.33870  Biso   1.000  C
  C280     1.0000 0.88830  0.84070  0.30130  Biso   1.000  C
  C281     1.0000 0.93220  0.79960  0.28840  Biso   1.000  C
  C282     1.0000 0.85130  0.76630  0.34790  Biso   1.000  C
  C283     1.0000 0.85090  0.72800  0.37220  Biso   1.000  C
  C284     1.0000 0.84500  0.65670  0.38370  Biso   1.000  C
  C285     1.0000 0.88120  0.65180  0.41800  Biso   1.000  C
  C286     1.0000 0.89810  0.68740  0.43200  Biso   1.000  C
  C287     1.0000 0.88750  0.72550  0.40990  Biso   1.000  C
  C288     1.0000 0.92464  0.76008  0.43004  Biso   1.000  C
  C289     1.0000 0.56717  0.01758  0.12388  Biso   1.000  C
  C290     1.0000 0.55225  0.04867  0.08983  Biso   1.000  C
  C291     1.0000 0.48582  0.04025  0.05911  Biso   1.000  C
  C292     1.0000 0.48336  0.06533  0.02475  Biso   1.000  C
  C293     1.0000 0.55178  0.09759  0.02105  Biso   1.000  C
  C294     1.0000 0.60951  0.08367  0.08531  Biso   1.000  C
  C295     1.0000 0.67407  0.10023  0.11663  Biso   1.000  C
  C296     1.0000 0.84415  0.13116  0.12354  Biso   1.000  C
  C297     1.0000 0.80295  0.13717  0.16493  Biso   1.000  C
  C298     1.0000 0.69190  0.12471  0.18249  Biso   1.000  C
  C299     1.0000 0.62653  0.10529  0.15825  Biso   1.000  C
  C300     1.0000 0.50650  0.09104  0.17816  Biso   1.000  C
  C301     1.0000 0.99037  0.07847  0.22999  Biso   1.000  C
  C302     1.0000 0.09587  0.08012  0.25414  Biso   1.000  C
  C303     1.0000 0.17549  0.10845  0.24297  Biso   1.000  C
  C304     1.0000 0.27064  0.11105  0.26467  Biso   1.000  C
  C305     1.0000 0.28331  0.08494  0.29804  Biso   1.000  C
  C306     1.0000 0.11450  0.05451  0.28809  Biso   1.000  C
  C307     1.0000 0.03335  0.02410  0.30600  Biso   1.000  C
  C308     1.0000 0.93141  0.00086  0.36712  Biso   1.000  C
  C309     1.0000 0.87075  0.97654  0.34656  Biso   1.000  C
  C310     1.0000 0.90045  0.97410  0.30440  Biso   1.000  C
  C311     1.0000 0.98500  0.99699  0.28301  Biso   1.000  C
  C312     1.0000 0.03249  0.98874  0.23728  Biso   1.000  C
  C313     1.0000 0.23102  0.96482  0.09114  Biso   1.000  C
  C314     1.0000 0.18845  0.96680  0.04950  Biso   1.000  C
  C315     1.0000 0.18631  0.00325  0.02713  Biso   1.000  C
  C316     1.0000 0.16389  0.00392  0.98650  Biso   1.000  C
  C317     1.0000 0.14722  0.96796  0.96920  Biso   1.000  C
  C318     1.0000 0.16148  0.93231  0.03073  Biso   1.000  C
  C319     1.0000 0.15146  0.89199  0.05129  Biso   1.000  C
  C320     1.0000 0.20921  0.82124  0.04414  Biso   1.000  C
  C321     1.0000 0.14704  0.81445  0.08407  Biso   1.000  C
  C322     1.0000 0.08122  0.84825  0.10651  Biso   1.000  C
  C323     1.0000 0.07952  0.88802  0.09014  Biso   1.000  C
  C324     1.0000 0.98976  0.92311  0.11277  Biso   1.000  C
  C325     1.0000 0.47680  0.90150  0.19450  Biso   1.000  C
  C326     1.0000 0.57950  0.86150  0.19850  Biso   1.000  C
  C327     1.0000 0.63410  0.83870  0.16210  Biso   1.000  C
  C328     1.0000 0.72900  0.80130  0.15930  Biso   1.000  C
  C329     1.0000 0.73180  0.78840  0.20040  Biso   1.000  C
  C330     1.0000 0.61760  0.84790  0.23370  Biso   1.000  C
  C331     1.0000 0.57890  0.87220  0.27200  Biso   1.000  C
  C332     1.0000 0.50170  0.88370  0.34330  Biso   1.000  C
  C333     1.0000 0.53300  0.91800  0.34820  Biso   1.000  C
  C334     1.0000 0.58550  0.93200  0.31260  Biso   1.000  C
  C335     1.0000 0.61300  0.90990  0.27450  Biso   1.000  C
  C336     1.0000 0.68472  0.93004  0.23992  Biso   1.000  C
  C337     1.0000 0.20863  0.48242  0.37612  Biso   1.000  C
  C338     1.0000 0.19075  0.45133  0.41017  Biso   1.000  C
  C339     1.0000 0.08518  0.45975  0.44089  Biso   1.000  C
  C340     1.0000 0.07344  0.43467  0.47525  Biso   1.000  C
  C341     1.0000 0.17042  0.40241  0.47895  Biso   1.000  C
  C342     1.0000 0.27849  0.41633  0.41469  Biso   1.000  C
  C343     1.0000 0.39093  0.39977  0.38337  Biso   1.000  C
  C344     1.0000 0.59885  0.36884  0.37646  Biso   1.000  C
  C345     1.0000 0.60505  0.36283  0.33507  Biso   1.000  C
  C346     1.0000 0.49910  0.37529  0.31751  Biso   1.000  C
  C347     1.0000 0.39007  0.39471  0.34175  Biso   1.000  C
  C348     1.0000 0.27570  0.40896  0.32184  Biso   1.000  C
  C349     1.0000 0.79883  0.42153  0.27001  Biso   1.000  C
  C350     1.0000 0.93013  0.41988  0.24586  Biso   1.000  C
  C351     1.0000 0.02691  0.39155  0.25703  Biso   1.000  C
  C352     1.0000 0.14636  0.38895  0.23533  Biso   1.000  C
  C353     1.0000 0.16629  0.41506  0.20196  Biso   1.000  C
  C354     1.0000 0.95710  0.44549  0.21191  Biso   1.000  C
  C355     1.0000 0.86345  0.47590  0.19400  Biso   1.000  C
  C356     1.0000 0.79939  0.49914  0.13288  Biso   1.000  C
  C357     1.0000 0.69385  0.52346  0.15344  Biso   1.000  C
  C358     1.0000 0.67895  0.52590  0.19560  Biso   1.000  C
  C359     1.0000 0.76500  0.50301  0.21699  Biso   1.000  C
  C360     1.0000 0.75851  0.51126  0.26272  Biso   1.000  C
  C361     1.0000 0.78698  0.53518  0.40886  Biso   1.000  C
  C362     1.0000 0.70475  0.53320  0.45050  Biso   1.000  C
  C363     1.0000 0.71669  0.49675  0.47287  Biso   1.000  C
  C364     1.0000 0.65431  0.49608  0.51350  Biso   1.000  C
  C365     1.0000 0.58438  0.53204  0.53080  Biso   1.000  C
  C366     1.0000 0.62452  0.56769  0.46927  Biso   1.000  C
  C367     1.0000 0.59474  0.60801  0.44871  Biso   1.000  C
  C368     1.0000 0.57459  0.67876  0.45586  Biso   1.000  C
  C369     1.0000 0.54556  0.68555  0.41593  Biso   1.000  C
  C370     1.0000 0.53598  0.65175  0.39349  Biso   1.000  C
  C371     1.0000 0.55768  0.61198  0.40986  Biso   1.000  C
  C372     1.0000 0.52564  0.57689  0.38723  Biso   1.000  C
  C373     1.0000 0.07280  0.59850  0.30550  Biso   1.000  C
  C374     1.0000 0.13950  0.63850  0.30150  Biso   1.000  C
  C375     1.0000 0.13490  0.66130  0.33790  Biso   1.000  C
  C376     1.0000 0.18960  0.69870  0.34070  Biso   1.000  C
  C377     1.0000 0.22060  0.71160  0.29960  Biso   1.000  C
  C378     1.0000 0.19920  0.65210  0.26630  Biso   1.000  C
  C379     1.0000 0.22310  0.62780  0.22800  Biso   1.000  C
  C380     1.0000 0.22870  0.61630  0.15670  Biso   1.000  C
  C381     1.0000 0.29920  0.58200  0.15180  Biso   1.000  C
  C382     1.0000 0.33010  0.56800  0.18740  Biso   1.000  C
  C383     1.0000 0.29740  0.59010  0.22550  Biso   1.000  C
  C384     1.0000 0.35468  0.56996  0.26008  Biso   1.000  C
  N1       1.0000 0.27963  0.44937  0.10617  Biso   1.000  N
  N2       1.0000 0.10566  0.40084  0.11364  Biso   1.000  N
  N3       1.0000 0.73551  0.19035  0.05763  Biso   1.000  N
  N4       1.0000 0.96373  0.15267  0.02427  Biso   1.000  N
  N5       1.0000 0.93093  0.47178  0.85896  Biso   1.000  N
  N6       1.0000 0.92030  0.50942  0.93258  Biso   1.000  N
  N7       1.0000 0.62950  0.18840  0.85720  Biso   1.000  N
  N8       1.0000 0.50720  0.26450  0.80930  Biso   1.000  N
  N9       1.0000 0.33517  0.05063  0.39383  Biso   1.000  N
  N10      1.0000 0.12014  0.09916  0.38636  Biso   1.000  N
  N11      1.0000 0.48349  0.30965  0.44237  Biso   1.000  N
  N12      1.0000 0.64067  0.34733  0.47573  Biso   1.000  N
  N13      1.0000 0.76167  0.02822  0.64104  Biso   1.000  N
  N14      1.0000 0.86230  0.99058  0.56742  Biso   1.000  N
  N15      1.0000 0.17510  0.31160  0.64280  Biso   1.000  N
  N16      1.0000 0.08100  0.23550  0.69070  Biso   1.000  N
  N17      1.0000 0.38580  0.89383  0.94937  Biso   1.000  N
  N18      1.0000 0.21930  0.88636  0.90084  Biso   1.000  N
  N19      1.0000 0.79314  0.94237  0.69035  Biso   1.000  N
  N20      1.0000 0.98800  0.97573  0.65267  Biso   1.000  N
  N21      1.0000 0.78989  0.14104  0.97178  Biso   1.000  N
  N22      1.0000 0.85288  0.06742  0.00942  Biso   1.000  N
  N23      1.0000 0.48670  0.14280  0.68840  Biso   1.000  N
  N24      1.0000 0.31650  0.19070  0.76450  Biso   1.000  N
  N25      1.0000 0.72900  0.60617  0.55063  Biso   1.000  N
  N26      1.0000 0.50650  0.61364  0.59916  Biso   1.000  N
  N27      1.0000 0.92586  0.55763  0.80965  Biso   1.000  N
  N28      1.0000 0.11640  0.52427  0.84733  Biso   1.000  N
  N29      1.0000 0.40271  0.35896  0.52822  Biso   1.000  N
  N30      1.0000 0.42972  0.43258  0.49058  Biso   1.000  N
  N31      1.0000 0.81790  0.35720  0.81160  Biso   1.000  N
  N32      1.0000 0.77170  0.30930  0.73550  Biso   1.000  N
  N33      1.0000 0.72037  0.55063  0.89383  Biso   1.000  N
  N34      1.0000 0.89434  0.59916  0.88636  Biso   1.000  N
  N35      1.0000 0.26449  0.80965  0.94237  Biso   1.000  N
  N36      1.0000 0.03627  0.84733  0.97573  Biso   1.000  N
  N37      1.0000 0.06907  0.52822  0.14104  Biso   1.000  N
  N38      1.0000 0.07970  0.49058  0.06742  Biso   1.000  N
  N39      1.0000 0.37050  0.81160  0.14280  Biso   1.000  N
  N40      1.0000 0.49280  0.73550  0.19070  Biso   1.000  N
  N41      1.0000 0.66483  0.94937  0.60617  Biso   1.000  N
  N42      1.0000 0.87986  0.90084  0.61364  Biso   1.000  N
  N43      1.0000 0.51651  0.69035  0.55763  Biso   1.000  N
  N44      1.0000 0.35933  0.65267  0.52427  Biso   1.000  N
  N45      1.0000 0.23833  0.97178  0.35896  Biso   1.000  N
  N46      1.0000 0.13770  0.00942  0.43258  Biso   1.000  N
  N47      1.0000 0.82490  0.68840  0.35720  Biso   1.000  N
  N48      1.0000 0.91900  0.76450  0.30930  Biso   1.000  N
  N49      1.0000 0.61420  0.10617  0.05063  Biso   1.000  N
  N50      1.0000 0.78070  0.11364  0.09916  Biso   1.000  N
  N51      1.0000 0.20686  0.05763  0.30965  Biso   1.000  N
  N52      1.0000 0.01200  0.02427  0.34733  Biso   1.000  N
  N53      1.0000 0.21011  0.85896  0.02822  Biso   1.000  N
  N54      1.0000 0.14712  0.93258  0.99058  Biso   1.000  N
  N55      1.0000 0.51330  0.85720  0.31160  Biso   1.000  N
  N56      1.0000 0.68350  0.80930  0.23550  Biso   1.000  N
  N57      1.0000 0.27100  0.39383  0.44937  Biso   1.000  N
  N58      1.0000 0.49350  0.38636  0.40084  Biso   1.000  N
  N59      1.0000 0.07414  0.44237  0.19035  Biso   1.000  N
  N60      1.0000 0.88360  0.47573  0.15267  Biso   1.000  N
  N61      1.0000 0.59729  0.64104  0.47178  Biso   1.000  N
  N62      1.0000 0.57028  0.56742  0.50942  Biso   1.000  N
  N63      1.0000 0.18210  0.64280  0.18840  Biso   1.000  N
  N64      1.0000 0.22830  0.69070  0.26450  Biso   1.000  N
  O1       1.0000 0.51990  0.36718  0.99602  Biso   1.000  O
  O2       1.0000 0.31933  0.36128  0.01466  Biso   1.000  O
  O3       1.0000 0.41998  0.28898  0.07146  Biso   1.000  O
  O4       1.0000 0.48698  0.33998  0.10006  Biso   1.000  O
  O5       1.0000 0.72147  0.40555  0.94411  Biso   1.000  O
  O6       1.0000 0.85056  0.37909  0.98559  Biso   1.000  O
  O7       1.0000 0.11846  0.40623  0.94965  Biso   1.000  O
  O8       1.0000 0.10055  0.34785  0.92165  Biso   1.000  O
  O9       1.0000 0.90497  0.30833  0.07653  Biso   1.000  O
  O10      1.0000 0.03851  0.24944  0.07914  Biso   1.000  O
  O11      1.0000 0.86361  0.27516  0.99222  Biso   1.000  O
  O12      1.0000 0.06420  0.28309  0.97751  Biso   1.000  O
  O13      1.0000 0.04672  0.35830  0.02606  Biso   1.000  O
  O14      1.0000 0.22802  0.28120  0.03336  Biso   1.000  O
  O15      1.0000 0.36382  0.35613  0.92603  Biso   1.000  O
  O16      1.0000 0.88225  0.32056  0.91654  Biso   1.000  O
  O17      1.0000 0.59916  0.27582  0.00126  Biso   1.000  O
  O18      1.0000 0.60129  0.33670  0.91632  Biso   1.000  O
  O19      1.0000 0.69342  0.27562  0.91334  Biso   1.000  O
  O20      1.0000 0.40627  0.27462  0.96264  Biso   1.000  O
  O21      1.0000 0.29024  0.27407  0.91545  Biso   1.000  O
  O22      1.0000 0.69788  0.33792  0.04552  Biso   1.000  O
  O23      1.0000 0.38310  0.13282  0.50398  Biso   1.000  O
  O24      1.0000 0.19527  0.13872  0.48534  Biso   1.000  O
  O25      1.0000 0.28042  0.21102  0.42854  Biso   1.000  O
  O26      1.0000 0.42702  0.16002  0.39994  Biso   1.000  O
  O27      1.0000 0.57113  0.09445  0.55589  Biso   1.000  O
  O28      1.0000 0.71524  0.12091  0.51441  Biso   1.000  O
  O29      1.0000 0.97434  0.09377  0.55035  Biso   1.000  O
  O30      1.0000 0.87005  0.15215  0.57835  Biso   1.000  O
  O31      1.0000 0.78983  0.19167  0.42347  Biso   1.000  O
  O32      1.0000 0.86709  0.25056  0.42086  Biso   1.000  O
  O33      1.0000 0.63099  0.22484  0.50778  Biso   1.000  O
  O34      1.0000 0.82480  0.21691  0.52249  Biso   1.000  O
  O35      1.0000 0.93108  0.14170  0.47394  Biso   1.000  O
  O36      1.0000 0.04258  0.21880  0.46664  Biso   1.000  O
  O37      1.0000 0.14598  0.14387  0.57397  Biso   1.000  O
  O38      1.0000 0.61935  0.17944  0.58346  Biso   1.000  O
  O39      1.0000 0.37624  0.22418  0.49874  Biso   1.000  O
  O40      1.0000 0.35431  0.16330  0.58368  Biso   1.000  O
  O41      1.0000 0.38238  0.22438  0.58666  Biso   1.000  O
  O42      1.0000 0.14353  0.22538  0.53736  Biso   1.000  O
  O43      1.0000 0.97976  0.22593  0.58455  Biso   1.000  O
  O44      1.0000 0.58132  0.16208  0.45448  Biso   1.000  O
  O45      1.0000 0.51592  0.00398  0.86718  Biso   1.000  O
  O46      1.0000 0.33399  0.98534  0.86128  Biso   1.000  O
  O47      1.0000 0.49144  0.92854  0.78898  Biso   1.000  O
  O48      1.0000 0.58704  0.89994  0.83998  Biso   1.000  O
  O49      1.0000 0.66558  0.05589  0.90555  Biso   1.000  O
  O50      1.0000 0.83615  0.01441  0.87909  Biso   1.000  O
  O51      1.0000 0.06811  0.05035  0.90623  Biso   1.000  O
  O52      1.0000 0.02220  0.07835  0.84785  Biso   1.000  O
  O53      1.0000 0.98150  0.92347  0.80833  Biso   1.000  O
  O54      1.0000 0.11765  0.92086  0.74944  Biso   1.000  O
  O55      1.0000 0.85583  0.00778  0.77516  Biso   1.000  O
  O56      1.0000 0.04171  0.02249  0.78309  Biso   1.000  O
  O57      1.0000 0.07278  0.97394  0.85830  Biso   1.000  O
  O58      1.0000 0.26138  0.96664  0.78120  Biso   1.000  O
  O59      1.0000 0.28985  0.07397  0.85613  Biso   1.000  O
  O60      1.0000 0.79879  0.08346  0.82056  Biso   1.000  O
  O61      1.0000 0.60042  0.99874  0.77582  Biso   1.000  O
  O62      1.0000 0.51761  0.08368  0.83670  Biso   1.000  O
  O63      1.0000 0.60676  0.08666  0.77562  Biso   1.000  O
  O64      1.0000 0.36891  0.03736  0.77462  Biso   1.000  O
  O65      1.0000 0.20569  0.08455  0.77407  Biso   1.000  O
  O66      1.0000 0.74340  0.95448  0.83792  Biso   1.000  O
  O67      1.0000 0.88708  0.49602  0.63282  Biso   1.000  O
  O68      1.0000 0.68061  0.51466  0.63872  Biso   1.000  O
  O69      1.0000 0.70896  0.57146  0.71102  Biso   1.000  O
  O70      1.0000 0.82696  0.60006  0.66002  Biso   1.000  O
  O71      1.0000 0.12702  0.44411  0.59445  Biso   1.000  O
  O72      1.0000 0.22965  0.48559  0.62091  Biso   1.000  O
  O73      1.0000 0.52469  0.44965  0.59377  Biso   1.000  O
  O74      1.0000 0.44840  0.42165  0.65215  Biso   1.000  O
  O75      1.0000 0.21330  0.57653  0.69167  Biso   1.000  O
  O76      1.0000 0.28795  0.57914  0.75056  Biso   1.000  O
  O77      1.0000 0.13877  0.49222  0.72484  Biso   1.000  O
  O78      1.0000 0.34729  0.47751  0.71691  Biso   1.000  O
  O79      1.0000 0.40502  0.52606  0.64170  Biso   1.000  O
  O80      1.0000 0.50922  0.53336  0.71880  Biso   1.000  O
  O81      1.0000 0.71995  0.42603  0.64387  Biso   1.000  O
  O82      1.0000 0.20281  0.41654  0.67944  Biso   1.000  O
  O83      1.0000 0.87498  0.50126  0.72418  Biso   1.000  O
  O84      1.0000 0.93799  0.41632  0.66330  Biso   1.000  O
  O85      1.0000 0.96904  0.41334  0.72438  Biso   1.000  O
  O86      1.0000 0.68089  0.46264  0.72538  Biso   1.000  O
  O87      1.0000 0.56431  0.41545  0.72593  Biso   1.000  O
  O88      1.0000 0.03580  0.54552  0.66208  Biso   1.000  O
  O89      1.0000 0.48010  0.63282  0.00398  Biso   1.000  O
  O90      1.0000 0.68067  0.63872  0.98534  Biso   1.000  O
  O91      1.0000 0.58002  0.71102  0.92854  Biso   1.000  O
  O92      1.0000 0.51302  0.66002  0.89994  Biso   1.000  O
  O93      1.0000 0.27853  0.59445  0.05589  Biso   1.000  O
  O94      1.0000 0.14944  0.62091  0.01441  Biso   1.000  O
  O95      1.0000 0.88154  0.59377  0.05035  Biso   1.000  O
  O96      1.0000 0.89945  0.65215  0.07835  Biso   1.000  O
  O97      1.0000 0.09503  0.69167  0.92347  Biso   1.000  O
  O98      1.0000 0.96149  0.75056  0.92086  Biso   1.000  O
  O99      1.0000 0.13639  0.72484  0.00778  Biso   1.000  O
  O100     1.0000 0.93580  0.71691  0.02249  Biso   1.000  O
  O101     1.0000 0.95328  0.64170  0.97394  Biso   1.000  O
  O102     1.0000 0.77198  0.71880  0.96664  Biso   1.000  O
  O103     1.0000 0.63618  0.64387  0.07397  Biso   1.000  O
  O104     1.0000 0.11775  0.67944  0.08346  Biso   1.000  O
  O105     1.0000 0.40084  0.72418  0.99874  Biso   1.000  O
  O106     1.0000 0.39871  0.66330  0.08368  Biso   1.000  O
  O107     1.0000 0.30658  0.72438  0.08666  Biso   1.000  O
  O108     1.0000 0.59373  0.72538  0.03736  Biso   1.000  O
  O109     1.0000 0.70976  0.72593  0.08455  Biso   1.000  O
  O110     1.0000 0.30212  0.66208  0.95448  Biso   1.000  O
  O111     1.0000 0.61690  0.86718  0.49602  Biso   1.000  O
  O112     1.0000 0.80473  0.86128  0.51466  Biso   1.000  O
  O113     1.0000 0.71958  0.78898  0.57146  Biso   1.000  O
  O114     1.0000 0.57298  0.83998  0.60006  Biso   1.000  O
  O115     1.0000 0.42887  0.90555  0.44411  Biso   1.000  O
  O116     1.0000 0.28476  0.87909  0.48559  Biso   1.000  O
  O117     1.0000 0.02566  0.90623  0.44965  Biso   1.000  O
  O118     1.0000 0.12995  0.84785  0.42165  Biso   1.000  O
  O119     1.0000 0.21017  0.80833  0.57653  Biso   1.000  O
  O120     1.0000 0.13291  0.74944  0.57914  Biso   1.000  O
  O121     1.0000 0.36901  0.77516  0.49222  Biso   1.000  O
  O122     1.0000 0.17520  0.78309  0.47751  Biso   1.000  O
  O123     1.0000 0.06892  0.85830  0.52606  Biso   1.000  O
  O124     1.0000 0.95742  0.78120  0.53336  Biso   1.000  O
  O125     1.0000 0.85402  0.85613  0.42603  Biso   1.000  O
  O126     1.0000 0.38065  0.82056  0.41654  Biso   1.000  O
  O127     1.0000 0.62376  0.77582  0.50126  Biso   1.000  O
  O128     1.0000 0.64569  0.83670  0.41632  Biso   1.000  O
  O129     1.0000 0.61762  0.77562  0.41334  Biso   1.000  O
  O130     1.0000 0.85647  0.77462  0.46264  Biso   1.000  O
  O131     1.0000 0.02024  0.77407  0.41545  Biso   1.000  O
  O132     1.0000 0.41868  0.83792  0.54552  Biso   1.000  O
  O133     1.0000 0.48408  0.99602  0.13282  Biso   1.000  O
  O134     1.0000 0.66601  0.01466  0.13872  Biso   1.000  O
  O135     1.0000 0.50856  0.07146  0.21102  Biso   1.000  O
  O136     1.0000 0.41296  0.10006  0.16002  Biso   1.000  O
  O137     1.0000 0.33442  0.94411  0.09445  Biso   1.000  O
  O138     1.0000 0.16385  0.98559  0.12091  Biso   1.000  O
  O139     1.0000 0.93189  0.94965  0.09377  Biso   1.000  O
  O140     1.0000 0.97780  0.92165  0.15215  Biso   1.000  O
  O141     1.0000 0.01850  0.07653  0.19167  Biso   1.000  O
  O142     1.0000 0.88235  0.07914  0.25056  Biso   1.000  O
  O143     1.0000 0.14417  0.99222  0.22484  Biso   1.000  O
  O144     1.0000 0.95829  0.97751  0.21691  Biso   1.000  O
  O145     1.0000 0.92722  0.02606  0.14170  Biso   1.000  O
  O146     1.0000 0.73862  0.03336  0.21880  Biso   1.000  O
  O147     1.0000 0.71015  0.92603  0.14387  Biso   1.000  O
  O148     1.0000 0.20121  0.91654  0.17944  Biso   1.000  O
  O149     1.0000 0.39958  0.00126  0.22418  Biso   1.000  O
  O150     1.0000 0.48239  0.91632  0.16330  Biso   1.000  O
  O151     1.0000 0.39324  0.91334  0.22438  Biso   1.000  O
  O152     1.0000 0.63109  0.96264  0.22538  Biso   1.000  O
  O153     1.0000 0.79431  0.91545  0.22593  Biso   1.000  O
  O154     1.0000 0.25660  0.04552  0.16208  Biso   1.000  O
  O155     1.0000 0.11292  0.50398  0.36718  Biso   1.000  O
  O156     1.0000 0.31939  0.48534  0.36128  Biso   1.000  O
  O157     1.0000 0.29104  0.42854  0.28898  Biso   1.000  O
  O158     1.0000 0.17304  0.39994  0.33998  Biso   1.000  O
  O159     1.0000 0.87298  0.55589  0.40555  Biso   1.000  O
  O160     1.0000 0.77035  0.51441  0.37909  Biso   1.000  O
  O161     1.0000 0.47531  0.55035  0.40623  Biso   1.000  O
  O162     1.0000 0.55160  0.57835  0.34785  Biso   1.000  O
  O163     1.0000 0.78670  0.42347  0.30833  Biso   1.000  O
  O164     1.0000 0.71205  0.42086  0.24944  Biso   1.000  O
  O165     1.0000 0.86123  0.50778  0.27516  Biso   1.000  O
  O166     1.0000 0.65271  0.52249  0.28309  Biso   1.000  O
  O167     1.0000 0.59498  0.47394  0.35830  Biso   1.000  O
  O168     1.0000 0.49078  0.46664  0.28120  Biso   1.000  O
  O169     1.0000 0.28005  0.57397  0.35613  Biso   1.000  O
  O170     1.0000 0.79719  0.58346  0.32056  Biso   1.000  O
  O171     1.0000 0.12502  0.49874  0.27582  Biso   1.000  O
  O172     1.0000 0.06201  0.58368  0.33670  Biso   1.000  O
  O173     1.0000 0.03096  0.58666  0.27562  Biso   1.000  O
  O174     1.0000 0.31911  0.53736  0.27462  Biso   1.000  O
  O175     1.0000 0.43569  0.58455  0.27407  Biso   1.000  O
  O176     1.0000 0.96420  0.45448  0.33792  Biso   1.000  O
