data_CP2K
_symmetry_space_group_name_H-M    'P1'
_symmetry_Int_Tables_number       1
_symmetry_cell_setting            triclinic
loop_
_symmetry_equiv_pos_as_xyz
  x,y,z
_cell_length_a                      32.1539
_cell_length_b                      32.1539
_cell_length_c                      32.1539
_cell_angle_alpha                   60.0000
_cell_angle_beta                    60.0000
_cell_angle_gamma                   60.0000
loop_
_atom_site_label
_atom_site_type_symbol
_atom_site_fract_x
_atom_site_fract_y
_atom_site_fract_z
_atom_site_U_iso_or_equiv
_atom_site_adp_type
_atom_site_occupancy
   H1             H     0.44187     0.15452     0.62266     0.00000   Uiso        1.00
   H2             H     0.80807     0.43492     0.49212     0.00000   Uiso        1.00
   H3             H     0.95896     0.55362     0.34118     0.00000   Uiso        1.00
   H4             H     0.72374     0.63753     0.49199     0.00000   Uiso        1.00
   H5             H     0.80783     0.78963     0.25584     0.00000   Uiso        1.00
   H6             H     0.95965     0.63809     0.13742     0.00000   Uiso        1.00
   C7             C     0.43294     0.07790     0.01176     0.00000   Uiso        1.00
   N8             N     0.43072     0.15637     0.00296     0.00000   Uiso        1.00
   C9             C     0.41050     0.11898     0.02896     0.00000   Uiso        1.00
   N10            N     0.42235     0.03416     0.02777     0.00000   Uiso        1.00
   C11            C     0.11308     0.16574     0.01978     0.00000   Uiso        1.00
   H12            H     0.35406     0.23583     0.02193     0.00000   Uiso        1.00
   C13            C     0.15713     0.16726     0.01839     0.00000   Uiso        1.00
   C14            C     0.24864     0.26326     0.00977     0.00000   Uiso        1.00
   C15            C     0.32261     0.25641     0.00704     0.00000   Uiso        1.00
   N16            N     0.28500     0.23658     0.03124     0.00000   Uiso        1.00
   N17            N     0.20535     0.25270     0.02483     0.00000   Uiso        1.00
   H18            H     0.84629     0.23558     0.02077     0.00000   Uiso        1.00
   C19            C     0.93512     0.26369     0.01041     0.00000   Uiso        1.00
   C20            C     0.87172     0.25631     0.00644     0.00000   Uiso        1.00
   N21            N     0.90443     0.23667     0.03118     0.00000   Uiso        1.00
   N22            N     0.97303     0.25375     0.02634     0.00000   Uiso        1.00
   C23            C     0.93621     0.07956     0.00957     0.00000   Uiso        1.00
   N24            N     0.86835     0.15763     0.00011     0.00000   Uiso        1.00
   C25            C     0.90035     0.12116     0.02596     0.00000   Uiso        1.00
   N26            N     0.97446     0.03613     0.02607     0.00000   Uiso        1.00
   C27            C     0.33425     0.98801     0.02086     0.00000   Uiso        1.00
   C28            C     0.15936     0.94443     0.01968     0.00000   Uiso        1.00
   C29            C     0.24846     0.76562     0.01031     0.00000   Uiso        1.00
   N30            N     0.32699     0.69831     0.00058     0.00000   Uiso        1.00
   C31            C     0.29003     0.72988     0.02677     0.00000   Uiso        1.00
   N32            N     0.20486     0.80368     0.02691     0.00000   Uiso        1.00
   H33            H     0.14901     0.50222     0.05298     0.00000   Uiso        1.00
  Zn34           Zn     0.05066     0.69654     0.02865     0.00000   Uiso        1.00
   N35            N     0.06969     0.64089     0.00670     0.00000   Uiso        1.00
  Zn36           Zn     0.04654     0.51374     0.03103     0.00000   Uiso        1.00
   N37            N     0.06986     0.57007     0.00762     0.00000   Uiso        1.00
   C38            C     0.11508     0.98835     0.01859     0.00000   Uiso        1.00
   H39            H     0.40581     0.67650     0.02008     0.00000   Uiso        1.00
   C40            C     0.33607     0.94373     0.01936     0.00000   Uiso        1.00
   C41            C     0.43274     0.76612     0.00971     0.00000   Uiso        1.00
   C42            C     0.42617     0.70229     0.00569     0.00000   Uiso        1.00
   N43            N     0.40607     0.73511     0.03045     0.00000   Uiso        1.00
   N44            N     0.42225     0.80427     0.02563     0.00000   Uiso        1.00
   H45            H     0.00522     0.61486     0.05231     0.00000   Uiso        1.00
   C46            C     0.04376     0.60946     0.02525     0.00000   Uiso        1.00
  Zn47           Zn     0.86374     0.51352     0.03096     0.00000   Uiso        1.00
   N48            N     0.90088     0.52797     0.05478     0.00000   Uiso        1.00
   N49            N     0.80940     0.57200     0.00634     0.00000   Uiso        1.00
   N50            N     0.97487     0.73341     0.05403     0.00000   Uiso        1.00
  Zn51           Zn     0.68367     0.88071     0.02639     0.00000   Uiso        1.00
   N52            N     0.69683     0.80503     0.05247     0.00000   Uiso        1.00
   N53            N     0.74163     0.89980     0.00637     0.00000   Uiso        1.00
  Zn54           Zn     0.68115     0.69621     0.03092     0.00000   Uiso        1.00
   N55            N     0.69900     0.73361     0.05147     0.00000   Uiso        1.00
   N56            N     0.73986     0.64286     0.00508     0.00000   Uiso        1.00
  Zn57           Zn     0.86624     0.87886     0.03161     0.00000   Uiso        1.00
   N58            N     0.90356     0.80363     0.05243     0.00000   Uiso        1.00
   N59            N     0.81242     0.89957     0.00563     0.00000   Uiso        1.00
   N60            N     0.97148     0.52965     0.05346     0.00000   Uiso        1.00
   H61            H     0.75003     0.50115     0.05519     0.00000   Uiso        1.00
   H62            H     0.66972     0.98353     0.05077     0.00000   Uiso        1.00
   H63            H     0.97347     0.51022    -0.00227     0.00000   Uiso        1.00
   C64            C     0.95105     0.52127     0.03158     0.00000   Uiso        1.00
   H65            H     0.97710     0.80599    -0.00251     0.00000   Uiso        1.00
   C66            C     0.95447     0.78346     0.03093     0.00000   Uiso        1.00
   H67            H     0.67894     0.80691    -0.00415     0.00000   Uiso        1.00
   C68            C     0.69026     0.78442     0.02954     0.00000   Uiso        1.00
   H69            H     0.78383     0.61792     0.05069     0.00000   Uiso        1.00
   C70            C     0.77863     0.61158     0.02367     0.00000   Uiso        1.00
   H71            H     0.78797     0.83472     0.05021     0.00000   Uiso        1.00
   C72            C     0.78143     0.87346     0.02369     0.00000   Uiso        1.00
   H73            H     0.16310     0.22034     0.77701     0.00000   Uiso        1.00
   C74            C     0.11484     0.31666     0.69206     0.00000   Uiso        1.00
   C75            C     0.16056     0.24804     0.73990     0.00000   Uiso        1.00
   N76            N     0.11454     0.28359     0.73897     0.00000   Uiso        1.00
   H77            H     0.14985     0.35211     0.28495     0.00000   Uiso        1.00
  Zn78           Zn     0.18095     0.19596     0.53104     0.00000   Uiso        1.00
   H79            H     0.24431     0.12791     0.69514     0.00000   Uiso        1.00
   H80            H     0.35416     0.23554     0.38004     0.00000   Uiso        1.00
   C81            C     0.15883     0.16507     0.64742     0.00000   Uiso        1.00
   C82            C     0.20711     0.13985     0.69282     0.00000   Uiso        1.00
   C83            C     0.10636     0.19023     0.50465     0.00000   Uiso        1.00
   N84            N     0.11341     0.14072     0.53148     0.00000   Uiso        1.00
   C85            C     0.25679     0.13244     0.46307     0.00000   Uiso        1.00
   N86            N     0.23949     0.16231     0.42363     0.00000   Uiso        1.00
   C87            C     0.24776     0.26363     0.46905     0.00000   Uiso        1.00
   C88            C     0.32236     0.25631     0.40547     0.00000   Uiso        1.00
   N89            N     0.20582     0.15155     0.64690     0.00000   Uiso        1.00
   C90            C     0.09074     0.12158     0.52286     0.00000   Uiso        1.00
   C91            C     0.26891     0.14667     0.38282     0.00000   Uiso        1.00
   N92            N     0.28461     0.23661     0.43833     0.00000   Uiso        1.00
   N93            N     0.14441     0.17937     0.60692     0.00000   Uiso        1.00
   N94            N     0.12505     0.22104     0.50420     0.00000   Uiso        1.00
   N95            N     0.23645     0.13824     0.50997     0.00000   Uiso        1.00
   N96            N     0.20396     0.25364     0.50722     0.00000   Uiso        1.00
  Zn97           Zn     0.36450     0.00990     0.08460     0.00000   Uiso        1.00
   H98            H     0.29683     0.07351     0.92496     0.00000   Uiso        1.00
   C99            C     0.30909     0.03628     0.95236     0.00000   Uiso        1.00
   C100           C     0.30111     0.08732     0.13797     0.00000   Uiso        1.00
   N101           N     0.33202     0.07067     0.16355     0.00000   Uiso        1.00
   N102           N     0.32042     0.03507     0.98811     0.00000   Uiso        1.00
   C103           C     0.31681     0.10039     0.19014     0.00000   Uiso        1.00
   N104           N     0.30692     0.06665     0.10587     0.00000   Uiso        1.00
   H105           H     0.40438     0.32247     0.37829     0.00000   Uiso        1.00
   C106           C     0.33472     0.31733     0.64759     0.00000   Uiso        1.00
   C107           C     0.30966     0.24879     0.69276     0.00000   Uiso        1.00
   C108           C     0.43159     0.30915     0.46916     0.00000   Uiso        1.00
   C109           C     0.42448     0.30682     0.40468     0.00000   Uiso        1.00
   N110           N     0.32114     0.28451     0.64693     0.00000   Uiso        1.00
   N111           N     0.40548     0.33148     0.43730     0.00000   Uiso        1.00
   N112           N     0.42172     0.32451     0.50747     0.00000   Uiso        1.00
   H113           H     0.16269     0.07454     0.83035     0.00000   Uiso        1.00
   C114           C     0.16029     0.03735     0.84239     0.00000   Uiso        1.00
   N115           N     0.11433     0.03615     0.85406     0.00000   Uiso        1.00
   C116           C     0.48711     0.16548     0.69177     0.00000   Uiso        1.00
   C117           C     0.41865     0.14027     0.74035     0.00000   Uiso        1.00
   C118           C     0.47822     0.26408     0.78153     0.00000   Uiso        1.00
   N119           N     0.46919     0.26211     0.85999     0.00000   Uiso        1.00
   N120           N     0.45431     0.15196     0.73886     0.00000   Uiso        1.00
   C121           C     0.49540     0.24190     0.82258     0.00000   Uiso        1.00
   N122           N     0.49458     0.25344     0.73776     0.00000   Uiso        1.00
   H123           H     0.39053     0.07475     0.69568     0.00000   Uiso        1.00
   H124           H     0.48800     0.18478     0.38030     0.00000   Uiso        1.00
   C125           C     0.41808     0.03758     0.69321     0.00000   Uiso        1.00
   C126           C     0.47640     0.07891     0.46991     0.00000   Uiso        1.00
   C127           C     0.47325     0.15325     0.40599     0.00000   Uiso        1.00
   N128           N     0.45387     0.03659     0.64730     0.00000   Uiso        1.00
   N129           N     0.49755     0.11556     0.43914     0.00000   Uiso        1.00
   N130           N     0.49176     0.03521     0.50826     0.00000   Uiso        1.00
   H131           H     0.16097     0.12777     0.92425     0.00000   Uiso        1.00
   C132           C     0.15858     0.14006     0.95161     0.00000   Uiso        1.00
   N133           N     0.11262     0.15187     0.98705     0.00000   Uiso        1.00
   N134           N     0.07259     0.18015     0.06034     0.00000   Uiso        1.00
   H135           H     0.24380     0.22317     0.82968     0.00000   Uiso        1.00
   C136           C     0.15809     0.31878     0.86751     0.00000   Uiso        1.00
   C137           C     0.20651     0.25042     0.84213     0.00000   Uiso        1.00
   C138           C     0.24861     0.30784     0.96635     0.00000   Uiso        1.00
   N139           N     0.32673     0.29860     0.96532     0.00000   Uiso        1.00
   N140           N     0.20522     0.28631     0.85334     0.00000   Uiso        1.00
   C141           C     0.28975     0.32481     0.94455     0.00000   Uiso        1.00
   N142           N     0.20515     0.32419     0.95519     0.00000   Uiso        1.00
  Zn143          Zn     0.05106     0.32652     0.21410     0.00000   Uiso        1.00
   C144           C     0.07643     0.21939     0.22147     0.00000   Uiso        1.00
   N145           N     0.04984     0.20356     0.27104     0.00000   Uiso        1.00
   C146           C     0.11694     0.27259     0.27813     0.00000   Uiso        1.00
   N147           N     0.15624     0.24640     0.24761     0.00000   Uiso        1.00
   C148           C     0.05802     0.15324     0.28978     0.00000   Uiso        1.00
   C149           C     0.19732     0.21926     0.26281     0.00000   Uiso        1.00
   N150           N     0.07724     0.26837     0.19084     0.00000   Uiso        1.00
   N151           N     0.06982     0.30488     0.27277     0.00000   Uiso        1.00
   H152           H     0.08930     0.15400     0.77272     0.00000   Uiso        1.00
   C153           C     0.38997     0.02766     0.30951     0.00000   Uiso        1.00
   H154           H     0.44215     0.07064     0.85657     0.00000   Uiso        1.00
   H155           H     0.23976     0.27247     0.62171     0.00000   Uiso        1.00
   H156           H     0.37663     0.12472     0.42943     0.00000   Uiso        1.00
   H157           H     0.23837     0.15475     0.97501     0.00000   Uiso        1.00
   H158           H     0.08832     0.27265     0.85868     0.00000   Uiso        1.00
   H159           H     0.32434     0.06955     0.62239     0.00000   Uiso        1.00
   H160           H     0.08948     0.06947     0.97495     0.00000   Uiso        1.00
  Zn161          Zn     0.04845     0.32869     0.39847     0.00000   Uiso        1.00
   H162           H     0.03287     0.21576     0.44088     0.00000   Uiso        1.00
   H163           H     0.16599     0.23836     0.36808     0.00000   Uiso        1.00
   C164           C     0.07754     0.22019     0.47137     0.00000   Uiso        1.00
   C165           C     0.05566     0.19599     0.46574     0.00000   Uiso        1.00
   C166           C     0.11720     0.27198     0.32229     0.00000   Uiso        1.00
   C167           C     0.16179     0.24202     0.33461     0.00000   Uiso        1.00
   N168           N     0.06274     0.14622     0.49172     0.00000   Uiso        1.00
   N169           N     0.20190     0.21596     0.30415     0.00000   Uiso        1.00
   N170           N     0.07880     0.26940     0.45074     0.00000   Uiso        1.00
   N171           N     0.07007     0.30432     0.34322     0.00000   Uiso        1.00
   N172           N     0.38756     0.03199     0.26654     0.00000   Uiso        1.00
   H173           H     0.37683     0.12238     0.06272     0.00000   Uiso        1.00
   H174           H     0.36718     0.06119     0.32157     0.00000   Uiso        1.00
   H175           H     0.03728     0.13790     0.32992     0.00000   Uiso        1.00
   H176           H     0.23078     0.19684     0.23964     0.00000   Uiso        1.00
   C177           C     0.11377     0.31681     0.86995     0.00000   Uiso        1.00
   N178           N     0.16680     0.24449     0.84377     0.00000   Uiso        1.00
   C179           C     0.12002     0.27769     0.85766     0.00000   Uiso        1.00
  Zn180          Zn     0.18150     0.19605     0.08170     0.00000   Uiso        1.00
   H181           H     0.13899     0.10833     0.19491     0.00000   Uiso        1.00
   H182           H     0.21298     0.19424     0.16855     0.00000   Uiso        1.00
   N183           N     0.20278     0.14087     0.94620     0.00000   Uiso        1.00
   C184           C     0.10910     0.18758     0.19112     0.00000   Uiso        1.00
   C185           C     0.11445     0.13595     0.21499     0.00000   Uiso        1.00
   C186           C     0.25706     0.13116     0.13801     0.00000   Uiso        1.00
   C187           C     0.24552     0.15932     0.16643     0.00000   Uiso        1.00
   C188           C     0.20247     0.15445     0.97963     0.00000   Uiso        1.00
   N189           N     0.08867     0.11901     0.26478     0.00000   Uiso        1.00
   N190           N     0.27577     0.14332     0.19255     0.00000   Uiso        1.00
   N191           N     0.14327     0.18210     0.05869     0.00000   Uiso        1.00
   N192           N     0.12963     0.21760     0.14197     0.00000   Uiso        1.00
   N193           N     0.23606     0.13645     0.10618     0.00000   Uiso        1.00
  Zn194          Zn     0.36396     0.01135     0.53167     0.00000   Uiso        1.00
   H195           H     0.36227     0.04240     0.41477     0.00000   Uiso        1.00
   N196           N     0.31029     0.03397     0.70071     0.00000   Uiso        1.00
   C197           C     0.30087     0.08849     0.46305     0.00000   Uiso        1.00
   C198           C     0.32803     0.07571     0.41876     0.00000   Uiso        1.00
   C199           C     0.43278     0.07912     0.46888     0.00000   Uiso        1.00
   N200           N     0.43153     0.15745     0.40136     0.00000   Uiso        1.00
   C201           C     0.32367     0.03374     0.65403     0.00000   Uiso        1.00
   N202           N     0.31174     0.10545     0.37853     0.00000   Uiso        1.00
   C203           C     0.41069     0.12053     0.43293     0.00000   Uiso        1.00
   N204           N     0.30708     0.06826     0.51000     0.00000   Uiso        1.00
   N205           N     0.42166     0.03551     0.50687     0.00000   Uiso        1.00
   H206           H     0.00970     0.08102     0.27183     0.00000   Uiso        1.00
   H207           H     0.40611     0.31792     0.88827     0.00000   Uiso        1.00
   C208           C     0.33640     0.31582     0.69161     0.00000   Uiso        1.00
   N209           N     0.31057     0.24327     0.73696     0.00000   Uiso        1.00
   C210           C     0.43345     0.30732     0.78206     0.00000   Uiso        1.00
   C211           C     0.42673     0.30359     0.85643     0.00000   Uiso        1.00
   C212           C     0.32392     0.27679     0.73680     0.00000   Uiso        1.00
   N213           N     0.40667     0.32818     0.81891     0.00000   Uiso        1.00
   N214           N     0.42282     0.32287     0.73867     0.00000   Uiso        1.00
   N215           N     0.16767     0.03390     0.94565     0.00000   Uiso        1.00
   C216           C     0.12111     0.03362     0.97950     0.00000   Uiso        1.00
   C217           C     0.48569     0.16678     0.64771     0.00000   Uiso        1.00
   N218           N     0.41315     0.14101     0.70085     0.00000   Uiso        1.00
   C219           C     0.47487     0.26439     0.46922     0.00000   Uiso        1.00
   N220           N     0.46528     0.26378     0.40138     0.00000   Uiso        1.00
   C221           C     0.44667     0.15423     0.65412     0.00000   Uiso        1.00
   C222           C     0.49091     0.24206     0.43366     0.00000   Uiso        1.00
   N223           N     0.49121     0.25274     0.50769     0.00000   Uiso        1.00
   H224           H     0.48686     0.18456     0.94033     0.00000   Uiso        1.00
   N225           N     0.41308     0.03486     0.84325     0.00000   Uiso        1.00
   C226           C     0.47644     0.07844     0.96725     0.00000   Uiso        1.00
   C227           C     0.47250     0.15277     0.96074     0.00000   Uiso        1.00
   C228           C     0.44668     0.03466     0.85652     0.00000   Uiso        1.00
   N229           N     0.49739     0.11521     0.94071     0.00000   Uiso        1.00
   N230           N     0.49222     0.03516     0.95641     0.00000   Uiso        1.00
   H231           H     0.09496     0.08140     0.54367     0.00000   Uiso        1.00
   H232           H     0.01558     0.10785     0.67186     0.00000   Uiso        1.00
   C233           C     0.11464     0.16643     0.69147     0.00000   Uiso        1.00
   N234           N     0.16749     0.14048     0.73704     0.00000   Uiso        1.00
   C235           C     0.12083     0.15377     0.73679     0.00000   Uiso        1.00
   N236           N     0.07347     0.18112     0.67750     0.00000   Uiso        1.00
   H237           H     0.25691     0.16935     0.34928     0.00000   Uiso        1.00
   H238           H     0.33990     0.08863     0.21250     0.00000   Uiso        1.00
   C239           C     0.15865     0.31556     0.64767     0.00000   Uiso        1.00
   N240           N     0.20460     0.24293     0.70007     0.00000   Uiso        1.00
   C241           C     0.24777     0.30813     0.46810     0.00000   Uiso        1.00
   N242           N     0.32631     0.29861     0.40085     0.00000   Uiso        1.00
   C243           C     0.20405     0.27673     0.65354     0.00000   Uiso        1.00
   C244           C     0.28906     0.32493     0.43218     0.00000   Uiso        1.00
   N245           N     0.20406     0.32485     0.50597     0.00000   Uiso        1.00
   H246           H     0.07119     0.19933     0.60480     0.00000   Uiso        1.00
   C247           C     0.09378     0.18797     0.62724     0.00000   Uiso        1.00
   H248           H     0.07061     0.20043     0.11546     0.00000   Uiso        1.00
   C249           C     0.09300     0.18895     0.08186     0.00000   Uiso        1.00
   H250           H     0.11703     0.29976     0.46171     0.00000   Uiso        1.00
   C251           C     0.10780     0.26715     0.47136     0.00000   Uiso        1.00
   H252           H     0.11959     0.29682     0.11206     0.00000   Uiso        1.00
   C253           C     0.10963     0.26470     0.14456     0.00000   Uiso        1.00
   H254           H     0.26181     0.09433     0.57436     0.00000   Uiso        1.00
   C255           C     0.26781     0.09946     0.53593     0.00000   Uiso        1.00
   H256           H     0.26188     0.09070     0.06155     0.00000   Uiso        1.00
   C257           C     0.26739     0.09729     0.08820     0.00000   Uiso        1.00
   H258           H     0.04257     0.09165     0.79578     0.00000   Uiso        1.00
   C259           C     0.00402     0.09771     0.80119     0.00000   Uiso        1.00
   H260           H     0.04165     0.09311     0.06155     0.00000   Uiso        1.00
   C261           C     0.00311     0.09844     0.08863     0.00000   Uiso        1.00
   H262           H     0.00535     0.34974     0.31845     0.00000   Uiso        1.00
   C263           C     0.04389     0.32266     0.31209     0.00000   Uiso        1.00
   H264           H     0.02794     0.28881     0.68022     0.00000   Uiso        1.00
   H265           H     0.14471     0.29294     0.55962     0.00000   Uiso        1.00
   C266           C     0.18011     0.29091     0.52766     0.00000   Uiso        1.00
   C267           C     0.45845     0.01089     0.99338     0.00000   Uiso        1.00
   H268           H     0.46024     0.29041     0.56098     0.00000   Uiso        1.00
   C269           C     0.45806     0.28954     0.52883     0.00000   Uiso        1.00
   H270           H     0.46175     0.29057     0.67928     0.00000   Uiso        1.00
   C271           C     0.46019     0.28923     0.71443     0.00000   Uiso        1.00
   C272           C     0.45772     0.01155     0.52873     0.00000   Uiso        1.00
   H273           H     0.02535     0.29314     0.99409     0.00000   Uiso        1.00
   H274           H     0.14664     0.29142     0.99177     0.00000   Uiso        1.00
   C275           C     0.18158     0.28990     0.99082     0.00000   Uiso        1.00
   H276           H     0.39121     0.12824     0.77764     0.00000   Uiso        1.00
   H277           H     0.84505     0.32088     0.88663     0.00000   Uiso        1.00
   C278           C     0.93580     0.30773     0.78179     0.00000   Uiso        1.00
   C279           C     0.87124     0.30544     0.85564     0.00000   Uiso        1.00
   N280           N     0.90419     0.32986     0.81760     0.00000   Uiso        1.00
   N281           N     0.97440     0.32277     0.73818     0.00000   Uiso        1.00
  Zn282          Zn     0.99854     0.01120     0.89845     0.00000   Uiso        1.00
   H283           H     0.84634     0.18392     0.93823     0.00000   Uiso        1.00
   C284           C     0.93090     0.08707     0.83473     0.00000   Uiso        1.00
   N285           N     0.89143     0.06987     0.86495     0.00000   Uiso        1.00
   C286           C     0.93671     0.07876     0.96567     0.00000   Uiso        1.00
   C287           C     0.87242     0.15280     0.95855     0.00000   Uiso        1.00
   C288           C     0.85046     0.09927     0.84959     0.00000   Uiso        1.00
   N289           N     0.90544     0.11495     0.93906     0.00000   Uiso        1.00
   N290           N     0.97789     0.06670     0.84037     0.00000   Uiso        1.00
   N291           N     0.97499     0.03499     0.95571     0.00000   Uiso        1.00
  Zn292          Zn     0.55110     0.19601     0.71333     0.00000   Uiso        1.00
   C293           C     0.65765     0.19079     0.63863     0.00000   Uiso        1.00
   N294           N     0.67368     0.14119     0.64575     0.00000   Uiso        1.00
   C295           C     0.60538     0.13280     0.79031     0.00000   Uiso        1.00
   N296           N     0.63118     0.16351     0.77360     0.00000   Uiso        1.00
   C297           C     0.72409     0.12251     0.62259     0.00000   Uiso        1.00
   C298           C     0.65824     0.14793     0.80300     0.00000   Uiso        1.00
   N299           N     0.52783     0.17980     0.67707     0.00000   Uiso        1.00
   N300           N     0.60852     0.22129     0.65765     0.00000   Uiso        1.00
   N301           N     0.57292     0.13882     0.76989     0.00000   Uiso        1.00
  Zn302          Zn     0.54893     0.01161     0.53148     0.00000   Uiso        1.00
   C303           C     0.60539     0.08700     0.46403     0.00000   Uiso        1.00
   N304           N     0.63224     0.06952     0.42476     0.00000   Uiso        1.00
   C305           C     0.65867     0.09927     0.38356     0.00000   Uiso        1.00
   N306           N     0.57362     0.06617     0.51133     0.00000   Uiso        1.00
  Zn307          Zn     0.99637     0.19621     0.08349     0.00000   Uiso        1.00
   C308           C     0.97109     0.18967     0.19020     0.00000   Uiso        1.00
   N309           N     0.99739     0.14000     0.20610     0.00000   Uiso        1.00
   C310           C     0.92975     0.13200     0.13859     0.00000   Uiso        1.00
   N311           N     0.89014     0.16239     0.16476     0.00000   Uiso        1.00
   C312           C     0.98919     0.12124     0.25644     0.00000   Uiso        1.00
   C313           C     0.84922     0.14696     0.19163     0.00000   Uiso        1.00
   N314           N     0.97037     0.22035     0.14120     0.00000   Uiso        1.00
   N315           N     0.97668     0.13777     0.10634     0.00000   Uiso        1.00
   N316           N     0.97487     0.35179     0.22797     0.00000   Uiso        1.00
   N317           N     0.58065     0.00991     0.25344     0.00000   Uiso        1.00
   N318           N     0.72094     0.01016     0.14755     0.00000   Uiso        1.00
   C319           C     0.77651     0.02873     0.26317     0.00000   Uiso        1.00
  Zn320          Zn     0.68330     0.32600     0.39890     0.00000   Uiso        1.00
   C321           C     0.68872     0.21916     0.47317     0.00000   Uiso        1.00
   N322           N     0.73821     0.20298     0.46647     0.00000   Uiso        1.00
   C323           C     0.74623     0.27253     0.32222     0.00000   Uiso        1.00
   N324           N     0.71489     0.24741     0.33892     0.00000   Uiso        1.00
   C325           C     0.75660     0.15264     0.49009     0.00000   Uiso        1.00
   C326           C     0.73002     0.22034     0.30967     0.00000   Uiso        1.00
   N327           N     0.69687     0.35152     0.43540     0.00000   Uiso        1.00
   N328           N     0.65850     0.26832     0.45373     0.00000   Uiso        1.00
   N329           N     0.74090     0.30471     0.34258     0.00000   Uiso        1.00
   H330           H     0.89711     0.12597     0.05886     0.00000   Uiso        1.00
   H331           H     0.52338     0.20717     0.43096     0.00000   Uiso        1.00
   H332           H     0.89647     0.20672     0.82926     0.00000   Uiso        1.00
   N333           N     0.61540     0.01043     0.11122     0.00000   Uiso        1.00
   C334           C     0.73083     0.02809     0.92261     0.00000   Uiso        1.00
  Zn335          Zn     0.86671     0.32625     0.58314     0.00000   Uiso        1.00
   C336           C     0.94051     0.21891     0.60932     0.00000   Uiso        1.00
   N337           N     0.93328     0.20307     0.58280     0.00000   Uiso        1.00
   C338           C     0.78928     0.27343     0.64964     0.00000   Uiso        1.00
   N339           N     0.80604     0.24768     0.68941     0.00000   Uiso        1.00
   C340           C     0.95662     0.15273     0.59104     0.00000   Uiso        1.00
   C341           C     0.77677     0.22047     0.73030     0.00000   Uiso        1.00
   N342           N     0.90329     0.35130     0.50735     0.00000   Uiso        1.00
   N343           N     0.92150     0.26796     0.60994     0.00000   Uiso        1.00
   N344           N     0.80970     0.30587     0.60272     0.00000   Uiso        1.00
   N345           N     0.97345     0.34961     0.43600     0.00000   Uiso        1.00
   H346           H     0.78874     0.19798     0.76387     0.00000   Uiso        1.00
   H347           H     0.55888     0.03085     0.17435     0.00000   Uiso        1.00
   C348           C     0.57386     0.00536     0.15348     0.00000   Uiso        1.00
   H349           H     0.95247     0.13741     0.57034     0.00000   Uiso        1.00
   H350           H     0.70750     0.06178     0.90046     0.00000   Uiso        1.00
   H351           H     0.69401     0.03100     0.09079     0.00000   Uiso        1.00
   C352           C     0.72539     0.00544     0.10576     0.00000   Uiso        1.00
   N353           N     0.77208     0.03246     0.91972     0.00000   Uiso        1.00
   H354           H     0.79669     0.13703     0.48638     0.00000   Uiso        1.00
  Zn355          Zn     0.68141     0.33072     0.58092     0.00000   Uiso        1.00
   H356           H     0.76859     0.21761     0.56424     0.00000   Uiso        1.00
   H357           H     0.68353     0.24108     0.69835     0.00000   Uiso        1.00
   C358           C     0.68934     0.22125     0.60932     0.00000   Uiso        1.00
   C359           C     0.74106     0.19745     0.58720     0.00000   Uiso        1.00
   C360           C     0.74562     0.27307     0.64944     0.00000   Uiso        1.00
   C361           C     0.71804     0.24382     0.69411     0.00000   Uiso        1.00
   N362           N     0.75818     0.14763     0.59429     0.00000   Uiso        1.00
   N363           N     0.73422     0.21750     0.73438     0.00000   Uiso        1.00
   N364           N     0.69880     0.35066     0.50566     0.00000   Uiso        1.00
   N365           N     0.65919     0.27042     0.61049     0.00000   Uiso        1.00
   N366           N     0.74001     0.30517     0.60216     0.00000   Uiso        1.00
   H367           H     0.70665     0.19819     0.32157     0.00000   Uiso        1.00
   H368           H     0.78830     0.06241     0.24003     0.00000   Uiso        1.00
   H369           H     0.52934     0.20844     0.82592     0.00000   Uiso        1.00
   H370           H     0.64286     0.03153     0.22708     0.00000   Uiso        1.00
   C371           C     0.62237     0.00558     0.25820     0.00000   Uiso        1.00
   N372           N     0.73389     0.03289     0.30454     0.00000   Uiso        1.00
  Zn373          Zn     0.86575     0.32910     0.21438     0.00000   Uiso        1.00
   H374           H     0.90907     0.21637     0.30115     0.00000   Uiso        1.00
   H375           H     0.83509     0.23982     0.21653     0.00000   Uiso        1.00
   C376           C     0.93871     0.22006     0.22197     0.00000   Uiso        1.00
   C377           C     0.93333     0.19620     0.27360     0.00000   Uiso        1.00
   C378           C     0.79057     0.27164     0.27870     0.00000   Uiso        1.00
   C379           C     0.80213     0.24273     0.25104     0.00000   Uiso        1.00
   N380           N     0.95879     0.14631     0.29061     0.00000   Uiso        1.00
   N381           N     0.77142     0.21706     0.26715     0.00000   Uiso        1.00
   N382           N     0.90349     0.35029     0.23063     0.00000   Uiso        1.00
   N383           N     0.91846     0.26931     0.19196     0.00000   Uiso        1.00
   N384           N     0.81206     0.30306     0.27323     0.00000   Uiso        1.00
   C385           C     0.93429     0.30811     0.96679     0.00000   Uiso        1.00
   N386           N     0.86723     0.29854     0.96472     0.00000   Uiso        1.00
   C387           C     0.89855     0.32486     0.94441     0.00000   Uiso        1.00
   N388           N     0.97205     0.32487     0.95617     0.00000   Uiso        1.00
   H389           H     0.68156     0.08707     0.35013     0.00000   Uiso        1.00
   H390           H     0.81557     0.16999     0.21406     0.00000   Uiso        1.00
   H391           H     0.81692     0.08727     0.87254     0.00000   Uiso        1.00
   H392           H     0.66896     0.34868     0.28719     0.00000   Uiso        1.00
  Zn393          Zn     0.99869     0.01131     0.08322     0.00000   Uiso        1.00
   H394           H     0.88138     0.04186     0.17186     0.00000   Uiso        1.00
   C395           C     0.93005     0.08757     0.13917     0.00000   Uiso        1.00
   C396           C     0.88547     0.07520     0.16860     0.00000   Uiso        1.00
   N397           N     0.84502     0.10558     0.19455     0.00000   Uiso        1.00
   N398           N     0.97747     0.06677     0.10700     0.00000   Uiso        1.00
   H399           H     0.73960     0.08236     0.62660     0.00000   Uiso        1.00
  Zn400          Zn     0.54858     0.19625     0.53119     0.00000   Uiso        1.00
   H401           H     0.66115     0.10864     0.54836     0.00000   Uiso        1.00
   H402           H     0.63658     0.19371     0.41461     0.00000   Uiso        1.00
   C403           C     0.65804     0.18770     0.50241     0.00000   Uiso        1.00
   C404           C     0.68150     0.13604     0.52516     0.00000   Uiso        1.00
   C405           C     0.60473     0.13150     0.46366     0.00000   Uiso        1.00
   C406           C     0.63398     0.15909     0.41893     0.00000   Uiso        1.00
   N407           N     0.73121     0.11876     0.51853     0.00000   Uiso        1.00
   N408           N     0.66066     0.14264     0.37885     0.00000   Uiso        1.00
   N409           N     0.52617     0.18127     0.60637     0.00000   Uiso        1.00
   N410           N     0.60904     0.21804     0.50066     0.00000   Uiso        1.00
   N411           N     0.57211     0.13754     0.51081     0.00000   Uiso        1.00
   H412           H     0.68082     0.17089     0.79104     0.00000   Uiso        1.00
  Zn413          Zn     0.54909     0.01374     0.89858     0.00000   Uiso        1.00
   H414           H     0.63700     0.04384     0.89659     0.00000   Uiso        1.00
   C415           C     0.60565     0.08860     0.83399     0.00000   Uiso        1.00
   C416           C     0.63459     0.07658     0.86184     0.00000   Uiso        1.00
   N417           N     0.66095     0.10664     0.84571     0.00000   Uiso        1.00
   N418           N     0.57356     0.06786     0.83943     0.00000   Uiso        1.00
  Zn419          Zn     0.99850     0.19553     0.71441     0.00000   Uiso        1.00
   H420           H     0.88218     0.19251     0.74498     0.00000   Uiso        1.00
   C421           C     0.96996     0.18712     0.64201     0.00000   Uiso        1.00
   C422           C     0.99233     0.13546     0.64741     0.00000   Uiso        1.00
   C423           C     0.93089     0.13092     0.79058     0.00000   Uiso        1.00
   C424           C     0.88632     0.15825     0.77822     0.00000   Uiso        1.00
   C425           C     0.93541     0.26340     0.78278     0.00000   Uiso        1.00
   N426           N     0.86747     0.26285     0.86072     0.00000   Uiso        1.00
   N427           N     0.98519     0.11851     0.62169     0.00000   Uiso        1.00
   N428           N     0.84604     0.14208     0.80837     0.00000   Uiso        1.00
   C429           C     0.89956     0.24130     0.82439     0.00000   Uiso        1.00
   N430           N     0.96869     0.21719     0.66240     0.00000   Uiso        1.00
   N431           N     0.97813     0.13684     0.76983     0.00000   Uiso        1.00
   N432           N     0.97388     0.25176     0.73961     0.00000   Uiso        1.00
   H433           H     0.75420     0.34938     0.68544     0.00000   Uiso        1.00
   H434           H     0.58328     0.19930     0.60372     0.00000   Uiso        1.00
   C435           C     0.54947     0.18818     0.62640     0.00000   Uiso        1.00
   H436           H     0.97699     0.29524     0.20979     0.00000   Uiso        1.00
   C437           C     0.95443     0.32873     0.22144     0.00000   Uiso        1.00
   H438           H     0.67871     0.29506     0.50792     0.00000   Uiso        1.00
   C439           C     0.69013     0.32867     0.48553     0.00000   Uiso        1.00
   H440           H     0.97574     0.29427     0.50942     0.00000   Uiso        1.00
   C441           C     0.95329     0.32802     0.48690     0.00000   Uiso        1.00
   H442           H     0.57977     0.30029     0.64914     0.00000   Uiso        1.00
   C443           C     0.61209     0.26773     0.63995     0.00000   Uiso        1.00
   H444           H     0.92863     0.29927     0.11265     0.00000   Uiso        1.00
   C445           C     0.93832     0.26672     0.14487     0.00000   Uiso        1.00
   H446           H     0.57971     0.29739     0.46140     0.00000   Uiso        1.00
   C447           C     0.61205     0.26504     0.47102     0.00000   Uiso        1.00
   H448           H     0.92960     0.29658     0.65201     0.00000   Uiso        1.00
   C449           C     0.93912     0.26432     0.64229     0.00000   Uiso        1.00
   H450           H     0.52825     0.09405     0.79426     0.00000   Uiso        1.00
   C451           C     0.55522     0.09935     0.80057     0.00000   Uiso        1.00
   H452           H     0.52759     0.09184     0.57559     0.00000   Uiso        1.00
   C453           C     0.55480     0.09784     0.53709     0.00000   Uiso        1.00
   H454           H     0.78776     0.34802     0.31748     0.00000   Uiso        1.00
   C455           C     0.78097     0.32157     0.31193     0.00000   Uiso        1.00
   H456           H     0.78439     0.35048     0.53779     0.00000   Uiso        1.00
   C457           C     0.77884     0.32351     0.57636     0.00000   Uiso        1.00
   C458           C     0.99552     0.28804     0.71522     0.00000   Uiso        1.00
   C459           C     0.99588     0.01176     0.99250     0.00000   Uiso        1.00
   C460           C     0.99353     0.29098     0.99258     0.00000   Uiso        1.00
   H461           H     0.01549     0.49194     0.67176     0.00000   Uiso        1.00
   N462           N     0.07430     0.35744     0.67775     0.00000   Uiso        1.00
   H463           H     0.25782     0.50983     0.34866     0.00000   Uiso        1.00
   H464           H     0.39089     0.99290     0.83053     0.00000   Uiso        1.00
   C465           C     0.48657     0.94530     0.86818     0.00000   Uiso        1.00
   C466           C     0.41832     0.99061     0.84267     0.00000   Uiso        1.00
   C467           C     0.47710     0.76570     0.96603     0.00000   Uiso        1.00
   N468           N     0.46832     0.69822     0.96386     0.00000   Uiso        1.00
   N469           N     0.45373     0.94466     0.85461     0.00000   Uiso        1.00
   C470           C     0.49408     0.73010     0.94338     0.00000   Uiso        1.00
   N471           N     0.49331     0.80384     0.95547     0.00000   Uiso        1.00
   H472           H     0.09336     0.57048     0.54438     0.00000   Uiso        1.00
   C473           C     0.36036     0.93559     0.19114     0.00000   Uiso        1.00
   N474           N     0.31075     0.94248     0.20760     0.00000   Uiso        1.00
   C475           C     0.29249     0.91912     0.25801     0.00000   Uiso        1.00
   N476           N     0.34843     0.97346     0.06161     0.00000   Uiso        1.00
   N477           N     0.39043     0.95486     0.14187     0.00000   Uiso        1.00
   H478           H     0.33933     0.64609     0.21541     0.00000   Uiso        1.00
  Zn479          Zn     0.18107     0.82872     0.08347     0.00000   Uiso        1.00
   H480           H     0.24454     0.99224     0.92307     0.00000   Uiso        1.00
   H481           H     0.21259     0.71077     0.17122     0.00000   Uiso        1.00
   C482           C     0.20741     0.98980     0.95084     0.00000   Uiso        1.00
   C483           C     0.10726     0.80120     0.19071     0.00000   Uiso        1.00
   N484           N     0.11540     0.82658     0.20710     0.00000   Uiso        1.00
   C485           C     0.25793     0.75956     0.13893     0.00000   Uiso        1.00
   C486           C     0.24571     0.71494     0.16836     0.00000   Uiso        1.00
   N487           N     0.20627     0.94390     0.98654     0.00000   Uiso        1.00
   C488           C     0.09119     0.81877     0.25732     0.00000   Uiso        1.00
   N489           N     0.27569     0.67485     0.19492     0.00000   Uiso        1.00
   N490           N     0.14503     0.90398     0.06057     0.00000   Uiso        1.00
   N491           N     0.12698     0.80026     0.14166     0.00000   Uiso        1.00
   N492           N     0.23733     0.80646     0.10633     0.00000   Uiso        1.00
  Zn493          Zn     0.36378     0.38144     0.53181     0.00000   Uiso        1.00
   H494           H     0.36281     0.46836     0.41357     0.00000   Uiso        1.00
   C495           C     0.35893     0.48833     0.50379     0.00000   Uiso        1.00
   N496           N     0.30908     0.50489     0.52922     0.00000   Uiso        1.00
   C497           C     0.30082     0.43630     0.46300     0.00000   Uiso        1.00
   C498           C     0.32834     0.46533     0.41807     0.00000   Uiso        1.00
   C499           C     0.29099     0.55516     0.52108     0.00000   Uiso        1.00
   N500           N     0.31219     0.49105     0.37781     0.00000   Uiso        1.00
   N501           N     0.34882     0.35811     0.60725     0.00000   Uiso        1.00
   N502           N     0.38897     0.43920     0.50308     0.00000   Uiso        1.00
   N503           N     0.30656     0.40472     0.51022     0.00000   Uiso        1.00
   C504           C     0.11480     0.98919     0.86754     0.00000   Uiso        1.00
   N505           N     0.07429     0.97480     0.88185     0.00000   Uiso        1.00
   H506           H     0.15168     0.58394     0.20248     0.00000   Uiso        1.00
   C507           C     0.48672     0.98960     0.64762     0.00000   Uiso        1.00
  Zn508          Zn     0.36595     0.82848     0.71387     0.00000   Uiso        1.00
   H509           H     0.29689     0.99223     0.77765     0.00000   Uiso        1.00
   H510           H     0.28025     0.84749     0.66909     0.00000   Uiso        1.00
   C511           C     0.33391     0.94462     0.69211     0.00000   Uiso        1.00
   C512           C     0.30902     0.98989     0.74039     0.00000   Uiso        1.00
   C513           C     0.35930     0.80106     0.63998     0.00000   Uiso        1.00
   C514           C     0.30769     0.82359     0.64524     0.00000   Uiso        1.00
   C515           C     0.30182     0.76105     0.79017     0.00000   Uiso        1.00
   N516           N     0.33272     0.72128     0.77343     0.00000   Uiso        1.00
   C517           C     0.43399     0.76606     0.78109     0.00000   Uiso        1.00
   N518           N     0.43241     0.69824     0.85925     0.00000   Uiso        1.00
   N519           N     0.32022     0.94408     0.73915     0.00000   Uiso        1.00
   N520           N     0.29050     0.81575     0.62029     0.00000   Uiso        1.00
   C521           C     0.31741     0.68023     0.80288     0.00000   Uiso        1.00
   C522           C     0.41195     0.72987     0.82207     0.00000   Uiso        1.00
   N523           N     0.34788     0.90425     0.67760     0.00000   Uiso        1.00
   N524           N     0.38940     0.80052     0.65973     0.00000   Uiso        1.00
   N525           N     0.30753     0.80814     0.76949     0.00000   Uiso        1.00
   N526           N     0.42315     0.80427     0.73747     0.00000   Uiso        1.00
   H527           H     0.00994     0.57001     0.78306     0.00000   Uiso        1.00
  Zn528          Zn     0.18078     0.38109     0.89850     0.00000   Uiso        1.00
   H529           H     0.13624     0.49237     0.81276     0.00000   Uiso        1.00
   C530           C     0.10650     0.48908     0.89180     0.00000   Uiso        1.00
   C531           C     0.11211     0.51276     0.84010     0.00000   Uiso        1.00
   C532           C     0.25678     0.43649     0.83433     0.00000   Uiso        1.00
   N533           N     0.24017     0.46225     0.86503     0.00000   Uiso        1.00
   N534           N     0.08717     0.56272     0.82272     0.00000   Uiso        1.00
   C535           C     0.27014     0.48855     0.84991     0.00000   Uiso        1.00
   N536           N     0.14354     0.35960     0.88160     0.00000   Uiso        1.00
   N537           N     0.12621     0.43985     0.92205     0.00000   Uiso        1.00
   N538           N     0.23568     0.40483     0.83985     0.00000   Uiso        1.00
   H539           H     0.24889     0.92595     0.54266     0.00000   Uiso        1.00
   H540           H     0.20075     0.39024     0.17348     0.00000   Uiso        1.00
   C541           C     0.11118     0.40063     0.14646     0.00000   Uiso        1.00
   C542           C     0.17479     0.40481     0.15324     0.00000   Uiso        1.00
   N543           N     0.14242     0.37969     0.17294     0.00000   Uiso        1.00
   N544           N     0.07333     0.38445     0.15675     0.00000   Uiso        1.00
   H545           H     0.30900     0.78151     0.57038     0.00000   Uiso        1.00
  Zn546          Zn     0.49684     0.88060     0.39894     0.00000   Uiso        1.00
   H547           H     0.38485     0.86066     0.44347     0.00000   Uiso        1.00
   C548           C     0.38822     0.90718     0.47263     0.00000   Uiso        1.00
   C549           C     0.36451     0.88448     0.46741     0.00000   Uiso        1.00
   C550           C     0.44277     0.94692     0.32218     0.00000   Uiso        1.00
   N551           N     0.41681     0.98663     0.33906     0.00000   Uiso        1.00
   N552           N     0.31458     0.89206     0.49251     0.00000   Uiso        1.00
   N553           N     0.52090     0.80481     0.43535     0.00000   Uiso        1.00
   N554           N     0.43745     0.90799     0.45286     0.00000   Uiso        1.00
   N555           N     0.47474     0.89972     0.34302     0.00000   Uiso        1.00
   H556           H     0.32470     0.91819     0.97535     0.00000   Uiso        1.00
   H557           H     0.03698     0.62844     0.84099     0.00000   Uiso        1.00
   H558           H     0.23143     0.61958     0.23878     0.00000   Uiso        1.00
   H559           H     0.44147     0.91936     0.77241     0.00000   Uiso        1.00
   H560           H     0.20138     0.52246     0.09202     0.00000   Uiso        1.00
   C561           C     0.07625     0.77107     0.92181     0.00000   Uiso        1.00
   N562           N     0.04940     0.76422     0.90604     0.00000   Uiso        1.00
   C563           C     0.11671     0.62039     0.97456     0.00000   Uiso        1.00
   N564           N     0.15610     0.63775     0.94783     0.00000   Uiso        1.00
   C565           C     0.11172     0.62854     0.10263     0.00000   Uiso        1.00
   C566           C     0.17565     0.55417     0.10649     0.00000   Uiso        1.00
   C567           C     0.05751     0.78768     0.85573     0.00000   Uiso        1.00
   C568           C     0.19707     0.60824     0.92101     0.00000   Uiso        1.00
   N569           N     0.14282     0.59170     0.08178     0.00000   Uiso        1.00
   N570           N     0.07712     0.75185     0.97080     0.00000   Uiso        1.00
   N571           N     0.07360     0.67219     0.08670     0.00000   Uiso        1.00
  Zn572          Zn     0.49382     0.51371     0.58315     0.00000   Uiso        1.00
   C573           C     0.38735     0.51958     0.60931     0.00000   Uiso        1.00
   N574           N     0.37114     0.56899     0.58252     0.00000   Uiso        1.00
   C575           C     0.44157     0.57713     0.64972     0.00000   Uiso        1.00
   N576           N     0.41568     0.54643     0.68948     0.00000   Uiso        1.00
   C577           C     0.32078     0.58727     0.59101     0.00000   Uiso        1.00
   C578           C     0.38915     0.56160     0.73061     0.00000   Uiso        1.00
   N579           N     0.51997     0.52707     0.50742     0.00000   Uiso        1.00
   N580           N     0.43652     0.48940     0.60976     0.00000   Uiso        1.00
   N581           N     0.47345     0.57154     0.60259     0.00000   Uiso        1.00
   H582           H     0.36552     0.53739     0.32385     0.00000   Uiso        1.00
  Zn583          Zn     0.49607     0.69619     0.21602     0.00000   Uiso        1.00
   H584           H     0.40942     0.66416     0.21756     0.00000   Uiso        1.00
   C585           C     0.38856     0.76989     0.22286     0.00000   Uiso        1.00
   N586           N     0.37226     0.76210     0.27264     0.00000   Uiso        1.00
   C587           C     0.44199     0.61888     0.27937     0.00000   Uiso        1.00
   C588           C     0.41245     0.63111     0.25203     0.00000   Uiso        1.00
   C589           C     0.32206     0.78639     0.29086     0.00000   Uiso        1.00
   N590           N     0.38587     0.60112     0.26857     0.00000   Uiso        1.00
   N591           N     0.52143     0.73277     0.22955     0.00000   Uiso        1.00
   N592           N     0.43757     0.74992     0.19263     0.00000   Uiso        1.00
   N593           N     0.47466     0.63941     0.27318     0.00000   Uiso        1.00
  Zn594          Zn     0.04935     0.51314     0.39847     0.00000   Uiso        1.00
   H595           H     0.03297     0.59982     0.44074     0.00000   Uiso        1.00
   H596           H     0.16578     0.51500     0.36697     0.00000   Uiso        1.00
   H597           H     0.20203     0.47202     0.22612     0.00000   Uiso        1.00
   C598           C     0.07804     0.52062     0.47124     0.00000   Uiso        1.00
   C599           C     0.05568     0.57228     0.46572     0.00000   Uiso        1.00
   C600           C     0.11645     0.57757     0.32240     0.00000   Uiso        1.00
   C601           C     0.16147     0.54953     0.33402     0.00000   Uiso        1.00
   C602           C     0.11116     0.44565     0.33121     0.00000   Uiso        1.00
   C603           C     0.17573     0.45200     0.25734     0.00000   Uiso        1.00
   N604           N     0.06208     0.58927     0.49195     0.00000   Uiso        1.00
   N605           N     0.20196     0.56526     0.30337     0.00000   Uiso        1.00
   N606           N     0.14289     0.47177     0.29508     0.00000   Uiso        1.00
   N607           N     0.07979     0.49063     0.45044     0.00000   Uiso        1.00
   N608           N     0.06884     0.57238     0.34378     0.00000   Uiso        1.00
   N609           N     0.07260     0.45621     0.37461     0.00000   Uiso        1.00
   H610           H     0.24004     0.91948     0.85661     0.00000   Uiso        1.00
   H611           H     0.29272     0.35869     0.42835     0.00000   Uiso        1.00
   C612           C     0.11130     0.40176     0.33079     0.00000   Uiso        1.00
   N613           N     0.17928     0.41055     0.25276     0.00000   Uiso        1.00
   C614           C     0.14704     0.38502     0.28939     0.00000   Uiso        1.00
   N615           N     0.07276     0.38572     0.37413     0.00000   Uiso        1.00
   H616           H     0.30636     0.78198     0.33112     0.00000   Uiso        1.00
  Zn617          Zn     0.50086     0.87836     0.21385     0.00000   Uiso        1.00
   H618           H     0.38819     0.86099     0.30161     0.00000   Uiso        1.00
   H619           H     0.41189     0.99604     0.21548     0.00000   Uiso        1.00
   C620           C     0.39121     0.90636     0.22246     0.00000   Uiso        1.00
   C621           C     0.36779     0.88397     0.27426     0.00000   Uiso        1.00
   C622           C     0.44300     0.94695     0.27812     0.00000   Uiso        1.00
   C623           C     0.41411     0.99179     0.25026     0.00000   Uiso        1.00
   N624           N     0.31799     0.89076     0.29181     0.00000   Uiso        1.00
   N625           N     0.52057     0.80303     0.23146     0.00000   Uiso        1.00
   N626           N     0.44026     0.90789     0.19189     0.00000   Uiso        1.00
   N627           N     0.47508     0.89960     0.27256     0.00000   Uiso        1.00
   H628           H     0.23057     0.62032     0.89821     0.00000   Uiso        1.00
   H629           H     0.29437     0.72664     0.05993     0.00000   Uiso        1.00
   H630           H     0.03649     0.78391     0.84047     0.00000   Uiso        1.00
  Zn631          Zn     0.04888     0.69649     0.21402     0.00000   Uiso        1.00
   H632           H     0.02910     0.74129     0.30050     0.00000   Uiso        1.00
   C633           C     0.07614     0.77013     0.22173     0.00000   Uiso        1.00
   C634           C     0.05332     0.76484     0.27335     0.00000   Uiso        1.00
   C635           C     0.11662     0.62107     0.27807     0.00000   Uiso        1.00
   N636           N     0.15657     0.63750     0.24686     0.00000   Uiso        1.00
   C637           C     0.11221     0.62869     0.14636     0.00000   Uiso        1.00
   N638           N     0.17986     0.55039     0.14827     0.00000   Uiso        1.00
   N639           N     0.06123     0.78942     0.29088     0.00000   Uiso        1.00
   C640           C     0.19770     0.60788     0.26203     0.00000   Uiso        1.00
   C641           C     0.14810     0.58758     0.16873     0.00000   Uiso        1.00
   N642           N     0.07666     0.75078     0.19129     0.00000   Uiso        1.00
   N643           N     0.06939     0.64181     0.27263     0.00000   Uiso        1.00
   N644           N     0.07403     0.67245     0.15698     0.00000   Uiso        1.00
   H645           H     0.30511     0.62725     0.57004     0.00000   Uiso        1.00
  Zn646          Zn     0.49833     0.51146     0.39857     0.00000   Uiso        1.00
   H647           H     0.38755     0.59804     0.44299     0.00000   Uiso        1.00
   C648           C     0.39017     0.51926     0.47239     0.00000   Uiso        1.00
   C649           C     0.36685     0.57096     0.46680     0.00000   Uiso        1.00
   C650           C     0.44148     0.57539     0.32384     0.00000   Uiso        1.00
   N651           N     0.41481     0.54529     0.34134     0.00000   Uiso        1.00
   N652           N     0.31682     0.58868     0.49138     0.00000   Uiso        1.00
   C653           C     0.38824     0.56027     0.31173     0.00000   Uiso        1.00
   N654           N     0.51908     0.52912     0.43602     0.00000   Uiso        1.00
   N655           N     0.43933     0.48862     0.45307     0.00000   Uiso        1.00
   N656           N     0.47319     0.57028     0.34458     0.00000   Uiso        1.00
   H657           H     0.36668     0.53857     0.76423     0.00000   Uiso        1.00
  Zn658          Zn     0.49847     0.69655     0.58097     0.00000   Uiso        1.00
   H659           H     0.41115     0.66524     0.69905     0.00000   Uiso        1.00
   C660           C     0.39076     0.77033     0.60853     0.00000   Uiso        1.00
   N661           N     0.37471     0.76236     0.58274     0.00000   Uiso        1.00
   C662           C     0.44204     0.62077     0.64984     0.00000   Uiso        1.00
   C663           C     0.41333     0.63257     0.69469     0.00000   Uiso        1.00
   C664           C     0.32446     0.78617     0.59057     0.00000   Uiso        1.00
   N665           N     0.38685     0.60257     0.73496     0.00000   Uiso        1.00
   N666           N     0.52058     0.73367     0.50579     0.00000   Uiso        1.00
   N667           N     0.43973     0.75077     0.60964     0.00000   Uiso        1.00
   N668           N     0.47422     0.64141     0.60266     0.00000   Uiso        1.00
   H669           H     0.16545     0.51450     0.94228     0.00000   Uiso        1.00
   C670           C     0.07460     0.51990     0.92316     0.00000   Uiso        1.00
   N671           N     0.04882     0.56968     0.90692     0.00000   Uiso        1.00
   C672           C     0.11683     0.57620     0.97483     0.00000   Uiso        1.00
   C673           C     0.16130     0.54888     0.94520     0.00000   Uiso        1.00
   C674           C     0.11108     0.44478     0.10254     0.00000   Uiso        1.00
   N675           N     0.17830     0.44715     0.11159     0.00000   Uiso        1.00
   C676           C     0.05709     0.58814     0.85659     0.00000   Uiso        1.00
   N677           N     0.20148     0.56524     0.91856     0.00000   Uiso        1.00
   C678           C     0.14632     0.46772     0.08591     0.00000   Uiso        1.00
   N679           N     0.07531     0.48948     0.97228     0.00000   Uiso        1.00
   N680           N     0.07291     0.45534     0.08635     0.00000   Uiso        1.00
   H681           H     0.37845     0.72598     0.82556     0.00000   Uiso        1.00
   H682           H     0.29356     0.35857     0.91092     0.00000   Uiso        1.00
   N683           N     0.07241     0.35695     0.88497     0.00000   Uiso        1.00
   H684           H     0.25830     0.51111     0.87286     0.00000   Uiso        1.00
   H685           H     0.48842     0.67722     0.88725     0.00000   Uiso        1.00
   C686           C     0.48520     0.94520     0.69142     0.00000   Uiso        1.00
   N687           N     0.41253     0.99776     0.73718     0.00000   Uiso        1.00
   C688           C     0.47755     0.76685     0.78125     0.00000   Uiso        1.00
   C689           C     0.47398     0.70281     0.85552     0.00000   Uiso        1.00
   C690           C     0.44614     0.95115     0.73671     0.00000   Uiso        1.00
   N691           N     0.49848     0.73582     0.81805     0.00000   Uiso        1.00
   N692           N     0.49322     0.80519     0.73771     0.00000   Uiso        1.00
   H693           H     0.52104     0.98207     0.28581     0.00000   Uiso        1.00
   C694           C     0.33585     0.98856     0.64788     0.00000   Uiso        1.00
   C695           C     0.35732     0.93790     0.50409     0.00000   Uiso        1.00
   N696           N     0.30756     0.94568     0.52996     0.00000   Uiso        1.00
   C697           C     0.28913     0.92158     0.52229     0.00000   Uiso        1.00
   N698           N     0.35041     0.97477     0.60666     0.00000   Uiso        1.00
   N699           N     0.38768     0.95769     0.50294     0.00000   Uiso        1.00
   H700           H     0.34057     0.64661     0.79099     0.00000   Uiso        1.00
  Zn701          Zn     0.18167     0.82856     0.89834     0.00000   Uiso        1.00
   H702           H     0.13893     0.84598     0.81077     0.00000   Uiso        1.00
   H703           H     0.21286     0.71193     0.89621     0.00000   Uiso        1.00
   H704           H     0.35415     0.67695     0.93800     0.00000   Uiso        1.00
   C705           C     0.15882     0.94496     0.86883     0.00000   Uiso        1.00
   N706           N     0.20444     0.99766     0.84315     0.00000   Uiso        1.00
   C707           C     0.10910     0.80036     0.88996     0.00000   Uiso        1.00
   C708           C     0.11435     0.82287     0.83836     0.00000   Uiso        1.00
   C709           C     0.25770     0.76116     0.83390     0.00000   Uiso        1.00
   C710           C     0.24579     0.71629     0.86166     0.00000   Uiso        1.00
   C711           C     0.24828     0.76651     0.96594     0.00000   Uiso        1.00
   C712           C     0.32264     0.70260     0.95867     0.00000   Uiso        1.00
   C713           C     0.20414     0.95105     0.85634     0.00000   Uiso        1.00
   N714           N     0.08834     0.81606     0.82147     0.00000   Uiso        1.00
   N715           N     0.27609     0.67600     0.84555     0.00000   Uiso        1.00
   N716           N     0.28476     0.73552     0.93912     0.00000   Uiso        1.00
   N717           N     0.14487     0.90386     0.88333     0.00000   Uiso        1.00
   N718           N     0.12975     0.79885     0.91991     0.00000   Uiso        1.00
   N719           N     0.23674     0.80861     0.83935     0.00000   Uiso        1.00
   N720           N     0.20476     0.80502     0.95566     0.00000   Uiso        1.00
   H721           H     0.25069     0.57103     0.54099     0.00000   Uiso        1.00
  Zn722          Zn     0.36566     0.37946     0.71566     0.00000   Uiso        1.00
   H723           H     0.27695     0.49182     0.67299     0.00000   Uiso        1.00
   H724           H     0.36424     0.46631     0.74641     0.00000   Uiso        1.00
   C725           C     0.35596     0.48886     0.64251     0.00000   Uiso        1.00
   C726           C     0.30426     0.51224     0.64813     0.00000   Uiso        1.00
   C727           C     0.30092     0.43602     0.79061     0.00000   Uiso        1.00
   C728           C     0.32927     0.46433     0.77894     0.00000   Uiso        1.00
   N729           N     0.28692     0.56187     0.62216     0.00000   Uiso        1.00
   N730           N     0.31326     0.49063     0.80901     0.00000   Uiso        1.00
   N731           N     0.35109     0.35620     0.67787     0.00000   Uiso        1.00
   N732           N     0.38639     0.43996     0.66297     0.00000   Uiso        1.00
   N733           N     0.30616     0.40411     0.76977     0.00000   Uiso        1.00
   H734           H     0.01021     0.92568     0.78384     0.00000   Uiso        1.00
   H735           H     0.01547     0.96930     0.19595     0.00000   Uiso        1.00
   N736           N     0.07400     0.97446     0.05934     0.00000   Uiso        1.00
   H737           H     0.09589     0.83864     0.27309     0.00000   Uiso        1.00
   H738           H     0.51823     0.50023     0.68535     0.00000   Uiso        1.00
   C739           C     0.48550     0.98937     0.86933     0.00000   Uiso        1.00
   H740           H     0.52038     0.58272     0.20330     0.00000   Uiso        1.00
  Zn741          Zn     0.36589     0.82637     0.08346     0.00000   Uiso        1.00
   H742           H     0.27868     0.84769     0.19463     0.00000   Uiso        1.00
   N743           N     0.31049     0.99654     0.94666     0.00000   Uiso        1.00
   C744           C     0.35748     0.80076     0.19176     0.00000   Uiso        1.00
   C745           C     0.30588     0.82373     0.21521     0.00000   Uiso        1.00
   C746           C     0.30132     0.76012     0.13952     0.00000   Uiso        1.00
   N747           N     0.33140     0.72082     0.16620     0.00000   Uiso        1.00
   C748           C     0.32393     0.94986     0.98021     0.00000   Uiso        1.00
   N749           N     0.28841     0.81614     0.26517     0.00000   Uiso        1.00
   C750           C     0.31648     0.67956     0.19265     0.00000   Uiso        1.00
   N751           N     0.35065     0.90246     0.05979     0.00000   Uiso        1.00
   N752           N     0.38789     0.79981     0.14260     0.00000   Uiso        1.00
   N753           N     0.30626     0.80759     0.10788     0.00000   Uiso        1.00
  Zn754          Zn     0.18087     0.38109     0.53107     0.00000   Uiso        1.00
   C755           C     0.10665     0.48875     0.50474     0.00000   Uiso        1.00
   N756           N     0.11310     0.50462     0.53182     0.00000   Uiso        1.00
   C757           C     0.25725     0.43538     0.46318     0.00000   Uiso        1.00
   N758           N     0.24045     0.46061     0.42345     0.00000   Uiso        1.00
   C759           C     0.08992     0.55502     0.52329     0.00000   Uiso        1.00
   C760           C     0.26968     0.48771     0.38228     0.00000   Uiso        1.00
   N761           N     0.14465     0.35602     0.60661     0.00000   Uiso        1.00
   N762           N     0.12566     0.43964     0.50425     0.00000   Uiso        1.00
   N763           N     0.23709     0.40304     0.51037     0.00000   Uiso        1.00
   H764           H     0.25236     0.92299     0.27376     0.00000   Uiso        1.00
   H765           H     0.07221     0.41290     0.60433     0.00000   Uiso        1.00
   C766           C     0.09460     0.37918     0.62693     0.00000   Uiso        1.00
   H767           H     0.36841     0.90008     0.11688     0.00000   Uiso        1.00
   C768           C     0.35720     0.92269     0.08313     0.00000   Uiso        1.00
   H769           H     0.07203     0.90180     0.11641     0.00000   Uiso        1.00
   C770           C     0.09436     0.92432     0.08252     0.00000   Uiso        1.00
   H771           H     0.36921     0.41315     0.60523     0.00000   Uiso        1.00
   C772           C     0.35771     0.37956     0.62768     0.00000   Uiso        1.00
   H773           H     0.07211     0.90165     0.90166     0.00000   Uiso        1.00
   C774           C     0.09461     0.92416     0.89030     0.00000   Uiso        1.00
   H775           H     0.36801     0.90255     0.60403     0.00000   Uiso        1.00
   C776           C     0.35678     0.92473     0.62681     0.00000   Uiso        1.00
   H777           H     0.06980     0.41435     0.90233     0.00000   Uiso        1.00
   C778           C     0.09262     0.38066     0.89105     0.00000   Uiso        1.00
   H779           H     0.46487     0.80671     0.50836     0.00000   Uiso        1.00
   C780           C     0.49837     0.78431     0.48565     0.00000   Uiso        1.00
   H781           H     0.46346     0.50905     0.50931     0.00000   Uiso        1.00
   C782           C     0.49711     0.52041     0.48679     0.00000   Uiso        1.00
   H783           H     0.46489     0.80548     0.21140     0.00000   Uiso        1.00
   C784           C     0.49855     0.78292     0.22278     0.00000   Uiso        1.00
   H785           H     0.46922     0.94708     0.11227     0.00000   Uiso        1.00
   C786           C     0.43703     0.93746     0.14493     0.00000   Uiso        1.00
   H787           H     0.11687     0.76038     0.11216     0.00000   Uiso        1.00
   C788           C     0.10759     0.76956     0.14469     0.00000   Uiso        1.00
   H789           H     0.46825     0.40949     0.46290     0.00000   Uiso        1.00
   C790           C     0.43599     0.44207     0.47214     0.00000   Uiso        1.00
   H791           H     0.46849     0.76056     0.65038     0.00000   Uiso        1.00
   C792           C     0.43622     0.76985     0.64082     0.00000   Uiso        1.00
   H793           H     0.11607     0.41022     1.00132     0.00000   Uiso        1.00
   C794           C     0.10677     0.44269     0.96889     0.00000   Uiso        1.00
   H795           H     0.46683     0.94839     0.46220     0.00000   Uiso        1.00
   C796           C     0.43451     0.93876     0.47176     0.00000   Uiso        1.00
   H797           H     0.11972     0.75948     0.99920     0.00000   Uiso        1.00
   C798           C     0.10970     0.76923     0.96705     0.00000   Uiso        1.00
   H799           H     0.46583     0.41086     0.65199     0.00000   Uiso        1.00
   C800           C     0.43335     0.44302     0.64241     0.00000   Uiso        1.00
   H801           H     0.46676     0.75909     0.11342     0.00000   Uiso        1.00
   C802           C     0.43444     0.76885     0.14573     0.00000   Uiso        1.00
   H803           H     0.11854     0.41108     0.46144     0.00000   Uiso        1.00
   C804           C     0.10882     0.44340     0.47117     0.00000   Uiso        1.00
   H805           H     0.04275     0.35825     0.79381     0.00000   Uiso        1.00
   C806           C     0.00417     0.38519     0.80023     0.00000   Uiso        1.00
   H807           H     0.26122     0.87173     0.06225     0.00000   Uiso        1.00
   C808           C     0.26754     0.83310     0.08913     0.00000   Uiso        1.00
   H809           H     0.26242     0.35961     0.57528     0.00000   Uiso        1.00
   C810           C     0.26797     0.38613     0.53649     0.00000   Uiso        1.00
   H811           H     0.26263     0.87305     0.79422     0.00000   Uiso        1.00
   C812           C     0.26801     0.83448     0.80040     0.00000   Uiso        1.00
   H813           H     0.26025     0.35978     0.79535     0.00000   Uiso        1.00
   C814           C     0.26672     0.38662     0.80067     0.00000   Uiso        1.00
   H815           H     0.51974     0.83495     0.31739     0.00000   Uiso        1.00
   C816           C     0.49282     0.87355     0.31180     0.00000   Uiso        1.00
   H817           H     0.51822     0.61714     0.53772     0.00000   Uiso        1.00
   C818           C     0.49164     0.61078     0.57646     0.00000   Uiso        1.00
   H819           H     0.51894     0.61440     0.31892     0.00000   Uiso        1.00
   C820           C     0.49193     0.60895     0.31282     0.00000   Uiso        1.00
   H821           H     0.00423     0.61756     0.31807     0.00000   Uiso        1.00
   C822           C     0.04292     0.61120     0.31250     0.00000   Uiso        1.00
   H823           H     0.46090     0.85732     0.99328     0.00000   Uiso        1.00
   C824           C     0.45924     0.82520     0.99181     0.00000   Uiso        1.00
   H825           H     0.46002     0.97578     0.99459     0.00000   Uiso        1.00
   H826           H     0.14589     0.85788     0.99463     0.00000   Uiso        1.00
   C827           C     0.18102     0.82560     0.99287     0.00000   Uiso        1.00
   H828           H     0.02794     0.97645     0.99469     0.00000   Uiso        1.00
   H829           H     0.45874     0.97635     0.56091     0.00000   Uiso        1.00
   H830           H     0.46065     0.85813     0.67856     0.00000   Uiso        1.00
   C831           C     0.45931     0.82595     0.71380     0.00000   Uiso        1.00
   H832           H     0.02018     0.41673     0.11827     0.00000   Uiso        1.00
   C833           C     0.05208     0.41847     0.12009     0.00000   Uiso        1.00
   H834           H     0.02061     0.73146     0.11892     0.00000   Uiso        1.00
   C835           C     0.05268     0.69616     0.12056     0.00000   Uiso        1.00
   H836           H     0.01892     0.41806     0.43312     0.00000   Uiso        1.00
   C837           C     0.05131     0.41958     0.39808     0.00000   Uiso        1.00
  Zn838          Zn     0.99902     0.37890     0.71434     0.00000   Uiso        1.00
   H839           H     0.88184     0.46799     0.74503     0.00000   Uiso        1.00
   C840           C     0.97044     0.48790     0.64150     0.00000   Uiso        1.00
   C841           C     0.99240     0.51197     0.64716     0.00000   Uiso        1.00
   C842           C     0.93091     0.43569     0.79010     0.00000   Uiso        1.00
   C843           C     0.88608     0.46485     0.77822     0.00000   Uiso        1.00
   N844           N     0.98498     0.56185     0.62157     0.00000   Uiso        1.00
   N845           N     0.84570     0.49049     0.80890     0.00000   Uiso        1.00
   N846           N     0.96950     0.43863     0.66179     0.00000   Uiso        1.00
   N847           N     0.97825     0.40403     0.76883     0.00000   Uiso        1.00
  Zn848          Zn     0.54934     0.82974     0.89799     0.00000   Uiso        1.00
   H849           H     0.63722     0.71188     0.89613     0.00000   Uiso        1.00
   C850           C     0.65673     0.80158     0.89203     0.00000   Uiso        1.00
   N851           N     0.67295     0.82725     0.84222     0.00000   Uiso        1.00
   C852           C     0.60498     0.76099     0.83424     0.00000   Uiso        1.00
   C853           C     0.63450     0.71631     0.86150     0.00000   Uiso        1.00
   C854           C     0.72320     0.81941     0.82382     0.00000   Uiso        1.00
   N855           N     0.66129     0.67637     0.84478     0.00000   Uiso        1.00
   N856           N     0.52706     0.90482     0.88273     0.00000   Uiso        1.00
   N857           N     0.60773     0.80053     0.92238     0.00000   Uiso        1.00
   N858           N     0.57213     0.80778     0.84077     0.00000   Uiso        1.00
   C859           C     0.97187     0.93717     0.89246     0.00000   Uiso        1.00
   N860           N     0.99821     0.94452     0.84281     0.00000   Uiso        1.00
   C861           C     0.98964     0.92146     0.82403     0.00000   Uiso        1.00
   N862           N     0.97151     0.95592     0.92317     0.00000   Uiso        1.00
   H863           H     0.65999     0.96704     0.55055     0.00000   Uiso        1.00
   C864           C     0.65697     0.93786     0.50389     0.00000   Uiso        1.00
   C865           C     0.68053     0.94323     0.52659     0.00000   Uiso        1.00
   N866           N     0.73054     0.91848     0.51880     0.00000   Uiso        1.00
   N867           N     0.52759     0.97524     0.60717     0.00000   Uiso        1.00
   N868           N     0.60773     0.95746     0.50321     0.00000   Uiso        1.00
   H869           H     0.68196     0.64792     0.78915     0.00000   Uiso        1.00
   H870           H     0.73952     0.84186     0.62660     0.00000   Uiso        1.00
   H871           H     0.81625     0.50911     0.87383     0.00000   Uiso        1.00
   C872           C     0.93377     0.39204     0.24298     0.00000   Uiso        1.00
   N873           N     0.88122     0.46435     0.26931     0.00000   Uiso        1.00
   C874           C     0.92783     0.43081     0.25558     0.00000   Uiso        1.00
   H875           H     0.89484     0.35860     0.91073     0.00000   Uiso        1.00
   C876           C     0.56151     0.76383     0.42114     0.00000   Uiso        1.00
   N877           N     0.63409     0.71141     0.37514     0.00000   Uiso        1.00
   C878           C     0.57099     0.94209     0.33156     0.00000   Uiso        1.00
   C879           C     0.60013     0.75791     0.37565     0.00000   Uiso        1.00
   C880           C     0.55446     0.97825     0.29011     0.00000   Uiso        1.00
   N881           N     0.55442     0.90387     0.37492     0.00000   Uiso        1.00
   H882           H     0.90854     0.60031     0.91775     0.00000   Uiso        1.00
   H883           H     0.83402     0.51526     0.94244     0.00000   Uiso        1.00
   C884           C     0.88707     0.54226     0.09548     0.00000   Uiso        1.00
   N885           N     0.84180     0.56751     0.16839     0.00000   Uiso        1.00
   C886           C     0.93770     0.52096     0.92192     0.00000   Uiso        1.00
   C887           C     0.93271     0.57253     0.89784     0.00000   Uiso        1.00
   C888           C     0.78875     0.57761     0.97406     0.00000   Uiso        1.00
   C889           C     0.80097     0.54976     0.94503     0.00000   Uiso        1.00
   C890           C     0.79679     0.44470     0.10402     0.00000   Uiso        1.00
   N891           N     0.71899     0.44471     0.11378     0.00000   Uiso        1.00
   C892           C     0.84189     0.55449     0.13466     0.00000   Uiso        1.00
   N893           N     0.95859     0.58925     0.84806     0.00000   Uiso        1.00
   N894           N     0.77099     0.56579     0.91865     0.00000   Uiso        1.00
   C895           C     0.75509     0.46655     0.08790     0.00000   Uiso        1.00
   N896           N     0.91706     0.49111     0.97116     0.00000   Uiso        1.00
   N897           N     0.83974     0.45669     0.08760     0.00000   Uiso        1.00
   H898           H     0.79646     0.86878     0.48453     0.00000   Uiso        1.00
  Zn899          Zn     0.68312     0.69586     0.58202     0.00000   Uiso        1.00
   H900           H     0.76976     0.73791     0.56611     0.00000   Uiso        1.00
   H901           H     0.68520     0.66489     0.69916     0.00000   Uiso        1.00
   C902           C     0.71175     0.71869     0.46617     0.00000   Uiso        1.00
   N903           N     0.73712     0.67293     0.41373     0.00000   Uiso        1.00
   C904           C     0.69025     0.76859     0.61081     0.00000   Uiso        1.00
   C905           C     0.74195     0.76299     0.58868     0.00000   Uiso        1.00
   C906           C     0.74693     0.61947     0.65024     0.00000   Uiso        1.00
   C907           C     0.71951     0.63169     0.69490     0.00000   Uiso        1.00
   C908           C     0.61431     0.62812     0.64476     0.00000   Uiso        1.00
   N909           N     0.61448     0.54996     0.71243     0.00000   Uiso        1.00
   C910           C     0.72407     0.67333     0.46027     0.00000   Uiso        1.00
   N911           N     0.75876     0.78926     0.59524     0.00000   Uiso        1.00
   N912           N     0.73576     0.60143     0.73512     0.00000   Uiso        1.00
   C913           C     0.63638     0.58604     0.68043     0.00000   Uiso        1.00
   N914           N     0.69737     0.73276     0.50716     0.00000   Uiso        1.00
   N915           N     0.66032     0.74787     0.61234     0.00000   Uiso        1.00
   N916           N     0.74115     0.64031     0.60292     0.00000   Uiso        1.00
   N917           N     0.62613     0.67130     0.60645     0.00000   Uiso        1.00
  Zn918          Zn     0.86642     0.88067     0.21577     0.00000   Uiso        1.00
   C919           C     0.88889     0.76372     0.24415     0.00000   Uiso        1.00
   N920           N     0.84300     0.71121     0.26994     0.00000   Uiso        1.00
   C921           C     0.94100     0.90612     0.22248     0.00000   Uiso        1.00
   N922           N     0.93384     0.87958     0.27204     0.00000   Uiso        1.00
   C923           C     0.78947     0.94779     0.27885     0.00000   Uiso        1.00
   N924           N     0.80604     0.98769     0.24780     0.00000   Uiso        1.00
   C925           C     0.79926     0.94268     0.14665     0.00000   Uiso        1.00
   C926           C     0.84353     0.75781     0.25649     0.00000   Uiso        1.00
   C927           C     0.95713     0.88791     0.29078     0.00000   Uiso        1.00
   C928           C     0.75785     0.97886     0.16842     0.00000   Uiso        1.00
   N929           N     0.90289     0.80483     0.22951     0.00000   Uiso        1.00
   N930           N     0.92198     0.90671     0.19184     0.00000   Uiso        1.00
   N931           N     0.81009     0.90068     0.27328     0.00000   Uiso        1.00
   N932           N     0.84269     0.90466     0.15803     0.00000   Uiso        1.00
   C933           C     0.71147     0.39207     0.42119     0.00000   Uiso        1.00
   N934           N     0.73711     0.46475     0.37506     0.00000   Uiso        1.00
   C935           C     0.61404     0.39987     0.33159     0.00000   Uiso        1.00
   N936           N     0.61511     0.40915     0.25342     0.00000   Uiso        1.00
   C937           C     0.72398     0.43078     0.37571     0.00000   Uiso        1.00
   C938           C     0.63566     0.38278     0.29059     0.00000   Uiso        1.00
   N939           N     0.62523     0.38318     0.37515     0.00000   Uiso        1.00
   C940           C     0.93377     0.71924     0.09423     0.00000   Uiso        1.00
   N941           N     0.88124     0.67315     0.16652     0.00000   Uiso        1.00
   C942           C     0.92784     0.67380     0.13297     0.00000   Uiso        1.00
   C943           C     0.56056     0.54164     0.46651     0.00000   Uiso        1.00
   N944           N     0.63334     0.56717     0.41430     0.00000   Uiso        1.00
   C945           C     0.56856     0.44490     0.64508     0.00000   Uiso        1.00
   N946           N     0.57857     0.44589     0.71248     0.00000   Uiso        1.00
   C947           C     0.59940     0.55399     0.46078     0.00000   Uiso        1.00
   C948           C     0.55198     0.46665     0.68129     0.00000   Uiso        1.00
   N949           N     0.55167     0.45620     0.60714     0.00000   Uiso        1.00
   C950           C     0.56206     0.71853     0.24408     0.00000   Uiso        1.00
   N951           N     0.63481     0.67255     0.26967     0.00000   Uiso        1.00
   C952           C     0.56999     0.62871     0.14704     0.00000   Uiso        1.00
   N953           N     0.57968     0.55043     0.14803     0.00000   Uiso        1.00
   C954           C     0.60087     0.67307     0.25660     0.00000   Uiso        1.00
   C955           C     0.55353     0.58719     0.16907     0.00000   Uiso        1.00
   N956           N     0.55320     0.67228     0.15824     0.00000   Uiso        1.00
   H957           H     0.95223     0.62689     0.57016     0.00000   Uiso        1.00
   C958           C     0.93331     0.54133     0.42237     0.00000   Uiso        1.00
   N959           N     0.88070     0.56702     0.37666     0.00000   Uiso        1.00
   C960           C     0.92729     0.55385     0.37702     0.00000   Uiso        1.00
   N961           N     0.97440     0.52686     0.43632     0.00000   Uiso        1.00
   H962           H     0.79065     0.53731     0.76414     0.00000   Uiso        1.00
   C963           C     0.71134     0.76412     0.09308     0.00000   Uiso        1.00
   N964           N     0.73665     0.71197     0.16598     0.00000   Uiso        1.00
   C965           C     0.68943     0.90717     0.92000     0.00000   Uiso        1.00
   N966           N     0.73887     0.88045     0.90372     0.00000   Uiso        1.00
   C967           C     0.74704     0.94701     0.97450     0.00000   Uiso        1.00
   N968           N     0.71579     0.98687     0.94931     0.00000   Uiso        1.00
   C969           C     0.61489     0.94270     0.10127     0.00000   Uiso        1.00
   C970           C     0.72354     0.75843     0.13200     0.00000   Uiso        1.00
   C971           C     0.75705     0.88898     0.85336     0.00000   Uiso        1.00
   C972           C     0.63630     0.97922     0.08462     0.00000   Uiso        1.00
   N973           N     0.65933     0.90762     0.96916     0.00000   Uiso        1.00
   N974           N     0.62637     0.90464     0.08442     0.00000   Uiso        1.00
   H975           H     0.70736     0.62091     0.89790     0.00000   Uiso        1.00
   C976           C     0.88917     0.39165     0.46625     0.00000   Uiso        1.00
   N977           N     0.84316     0.46409     0.41374     0.00000   Uiso        1.00
   C978           C     0.79905     0.40012     0.64546     0.00000   Uiso        1.00
   N979           N     0.72039     0.40978     0.71257     0.00000   Uiso        1.00
   C980           C     0.84377     0.43047     0.46031     0.00000   Uiso        1.00
   C981           C     0.75776     0.38330     0.68141     0.00000   Uiso        1.00
   N982           N     0.84295     0.38315     0.60781     0.00000   Uiso        1.00
   C983           C     0.93286     0.39036     0.42178     0.00000   Uiso        1.00
   C984           C     0.88714     0.45884     0.37387     0.00000   Uiso        1.00
   N985           N     0.93312     0.42323     0.37484     0.00000   Uiso        1.00
   H986           H     0.65760     0.71409     0.28227     0.00000   Uiso        1.00
   C987           C     0.56122     0.76230     0.24557     0.00000   Uiso        1.00
   C988           C     0.62988     0.71659     0.27040     0.00000   Uiso        1.00
   C989           C     0.57157     0.94116     0.14592     0.00000   Uiso        1.00
   N990           N     0.59437     0.76261     0.25896     0.00000   Uiso        1.00
   N991           N     0.54987     0.97200     0.17301     0.00000   Uiso        1.00
   N992           N     0.55681     0.90234     0.15606     0.00000   Uiso        1.00
   H993           H     0.52733     0.72717     0.90914     0.00000   Uiso        1.00
  Zn994          Zn     0.86672     0.51181     0.58270     0.00000   Uiso        1.00
   H995           H     0.69244     0.47305     0.73310     0.00000   Uiso        1.00
   C996           C     0.88912     0.54246     0.46641     0.00000   Uiso        1.00
   C997           C     0.84101     0.56772     0.42082     0.00000   Uiso        1.00
   C998           C     0.94100     0.51808     0.60880     0.00000   Uiso        1.00
   N999           N     0.93355     0.56772     0.58236     0.00000   Uiso        1.00
   C1000          C     0.79085     0.57540     0.65013     0.00000   Uiso        1.00
   N1001          N     0.80805     0.54505     0.68958     0.00000   Uiso        1.00
   C1002          C     0.79899     0.44478     0.64427     0.00000   Uiso        1.00
   C1003          C     0.72426     0.45222     0.70774     0.00000   Uiso        1.00
   N1004          N     0.84217     0.55597     0.46683     0.00000   Uiso        1.00
   C1005          C     0.95655     0.58668     0.59081     0.00000   Uiso        1.00
   C1006          C     0.77862     0.56029     0.73062     0.00000   Uiso        1.00
   N1007          N     0.76198     0.47196     0.67481     0.00000   Uiso        1.00
   N1008          N     0.90350     0.52806     0.50695     0.00000   Uiso        1.00
   N1009          N     0.92224     0.48725     0.60937     0.00000   Uiso        1.00
   N1010          N     0.81135     0.56994     0.60304     0.00000   Uiso        1.00
   N1011          N     0.84292     0.45464     0.60624     0.00000   Uiso        1.00
   H1012          H     0.79704     0.86815     0.83760     0.00000   Uiso        1.00
   H1013          H     0.74946     0.63499     0.18878     0.00000   Uiso        1.00
   H1014          H     0.76679     0.74136     0.91991     0.00000   Uiso        1.00
   H1015          H     0.64222     0.52346     0.09124     0.00000   Uiso        1.00
   C1016          C     0.71303     0.71962     0.09215     0.00000   Uiso        1.00
   C1017          C     0.73769     0.67204     0.16094     0.00000   Uiso        1.00
   C1018          C     0.68795     0.77026     0.92298     0.00000   Uiso        1.00
   C1019          C     0.73956     0.76503     0.89938     0.00000   Uiso        1.00
   C1020          C     0.74510     0.62185     0.97351     0.00000   Uiso        1.00
   N1021          N     0.71503     0.63894     0.94696     0.00000   Uiso        1.00
   C1022          C     0.61444     0.62900     0.10344     0.00000   Uiso        1.00
   C1023          C     0.62172     0.55482     0.10622     0.00000   Uiso        1.00
   N1024          N     0.72651     0.67279     0.12534     0.00000   Uiso        1.00
   N1025          N     0.75696     0.78982     0.84937     0.00000   Uiso        1.00
   C1026          C     0.73012     0.60900     0.92068     0.00000   Uiso        1.00
   N1027          N     0.64148     0.59248     0.08213     0.00000   Uiso        1.00
   N1028          N     0.65766     0.75067     0.97224     0.00000   Uiso        1.00
   N1029          N     0.62448     0.67264     0.08823     0.00000   Uiso        1.00
   H1030          H     0.90854     0.86285     0.91899     0.00000   Uiso        1.00
   H1031          H     0.83543     0.99658     0.94298     0.00000   Uiso        1.00
   C1032          C     0.88931     0.76297     0.09297     0.00000   Uiso        1.00
   C1033          C     0.84137     0.71713     0.16122     0.00000   Uiso        1.00
   C1034          C     0.93907     0.90783     0.92278     0.00000   Uiso        1.00
   C1035          C     0.93327     0.88582     0.89887     0.00000   Uiso        1.00
   C1036          C     0.79113     0.94705     0.97411     0.00000   Uiso        1.00
   C1037          C     0.80264     0.99211     0.94553     0.00000   Uiso        1.00
   C1038          C     0.79962     0.94143     0.10310     0.00000   Uiso        1.00
   N1039          N     0.84236     0.76316     0.12574     0.00000   Uiso        1.00
   N1040          N     0.95883     0.89305     0.84902     0.00000   Uiso        1.00
   N1041          N     0.76331     0.97233     0.08152     0.00000   Uiso        1.00
   N1042          N     0.91885     0.90886     0.97202     0.00000   Uiso        1.00
   N1043          N     0.84319     0.90283     0.08808     0.00000   Uiso        1.00
   H1044          H     0.74961     0.48779     0.41647     0.00000   Uiso        1.00
   H1045          H     0.64175     0.38932     0.73300     0.00000   Uiso        1.00
   C1046          C     0.71295     0.39129     0.46494     0.00000   Uiso        1.00
   C1047          C     0.73780     0.45994     0.41908     0.00000   Uiso        1.00
   C1048          C     0.61319     0.40155     0.64364     0.00000   Uiso        1.00
   C1049          C     0.62077     0.40424     0.70761     0.00000   Uiso        1.00
   N1050          N     0.72632     0.42452     0.46515     0.00000   Uiso        1.00
   N1051          N     0.64027     0.38005     0.67443     0.00000   Uiso        1.00
   N1052          N     0.62330     0.38659     0.60496     0.00000   Uiso        1.00
   C1053          C     0.93274     0.71935     0.24584     0.00000   Uiso        1.00
   C1054          C     0.88700     0.67137     0.27113     0.00000   Uiso        1.00
   N1055          N     0.93301     0.67242     0.25962     0.00000   Uiso        1.00
   N1056          N     0.97335     0.73364     0.23158     0.00000   Uiso        1.00
   H1057          H     0.65619     0.57983     0.33734     0.00000   Uiso        1.00
   H1058          H     0.55937     0.47265     0.22550     0.00000   Uiso        1.00
   C1059          C     0.55969     0.54322     0.42203     0.00000   Uiso        1.00
   C1060          C     0.62838     0.56803     0.37440     0.00000   Uiso        1.00
   C1061          C     0.57080     0.44465     0.33147     0.00000   Uiso        1.00
   C1062          C     0.57390     0.45183     0.25719     0.00000   Uiso        1.00
   N1063          N     0.59290     0.55667     0.37520     0.00000   Uiso        1.00
   N1064          N     0.54983     0.47181     0.29467     0.00000   Uiso        1.00
   N1065          N     0.55555     0.45483     0.37504     0.00000   Uiso        1.00
   H1066          H     0.95323     0.86706     0.33088     0.00000   Uiso        1.00
   H1067          H     0.65718     0.63452     0.41688     0.00000   Uiso        1.00
   H1068          H     0.55576     0.52498     0.73486     0.00000   Uiso        1.00
   C1069          C     0.56098     0.71950     0.46508     0.00000   Uiso        1.00
   C1070          C     0.62945     0.67165     0.41931     0.00000   Uiso        1.00
   C1071          C     0.56957     0.62980     0.64451     0.00000   Uiso        1.00
   C1072          C     0.57153     0.55576     0.70877     0.00000   Uiso        1.00
   N1073          N     0.59426     0.67268     0.46542     0.00000   Uiso        1.00
   N1074          N     0.54708     0.59426     0.67607     0.00000   Uiso        1.00
   N1075          N     0.55441     0.67372     0.60621     0.00000   Uiso        1.00
   H1076          H     0.88376     0.58021     0.19060     0.00000   Uiso        1.00
   C1077          C     0.93108     0.54363     0.09431     0.00000   Uiso        1.00
   C1078          C     0.88598     0.56832     0.16303     0.00000   Uiso        1.00
   N1079          N     0.93182     0.55687     0.12731     0.00000   Uiso        1.00
  Zn1080         Zn     0.68334     0.87833     0.39896     0.00000   Uiso        1.00
   H1081          H     0.68327     0.99677     0.36777     0.00000   Uiso        1.00
   C1082          C     0.71309     0.76260     0.42190     0.00000   Uiso        1.00
   C1083          C     0.73786     0.71704     0.37397     0.00000   Uiso        1.00
   C1084          C     0.68798     0.90655     0.47303     0.00000   Uiso        1.00
   N1085          N     0.73781     0.88093     0.46514     0.00000   Uiso        1.00
   C1086          C     0.74578     0.94771     0.32300     0.00000   Uiso        1.00
   C1087          C     0.71790     0.99253     0.33486     0.00000   Uiso        1.00
   C1088          C     0.61517     0.94116     0.33218     0.00000   Uiso        1.00
   N1089          N     0.72636     0.76301     0.37503     0.00000   Uiso        1.00
   C1090          C     0.75614     0.88883     0.48914     0.00000   Uiso        1.00
   N1091          N     0.64178     0.97247     0.29612     0.00000   Uiso        1.00
   N1092          N     0.69902     0.80315     0.43613     0.00000   Uiso        1.00
   N1093          N     0.65774     0.90754     0.45323     0.00000   Uiso        1.00
   N1094          N     0.74038     0.90041     0.34399     0.00000   Uiso        1.00
   N1095          N     0.62533     0.90257     0.37573     0.00000   Uiso        1.00
   H1096          H     0.80417     0.48651     0.28284     0.00000   Uiso        1.00
   H1097          H     0.69351     0.38643     0.17535     0.00000   Uiso        1.00
   C1098          C     0.88929     0.39083     0.24496     0.00000   Uiso        1.00
   C1099          C     0.84134     0.45909     0.27048     0.00000   Uiso        1.00
   C1100          C     0.79822     0.40018     0.14750     0.00000   Uiso        1.00
   C1101          C     0.72439     0.40205     0.15493     0.00000   Uiso        1.00
   N1102          N     0.84233     0.42364     0.25890     0.00000   Uiso        1.00
   N1103          N     0.76264     0.37777     0.17395     0.00000   Uiso        1.00
   N1104          N     0.84197     0.38527     0.15727     0.00000   Uiso        1.00
  Zn1105         Zn     0.99676     0.38157     0.89868     0.00000   Uiso        1.00
   C1106          C     0.97039     0.48897     0.89175     0.00000   Uiso        1.00
   N1107          N     0.99713     0.50458     0.84221     0.00000   Uiso        1.00
   C1108          C     0.93078     0.43465     0.83460     0.00000   Uiso        1.00
   N1109          N     0.89095     0.45984     0.86586     0.00000   Uiso        1.00
   C1110          C     0.98911     0.55489     0.82322     0.00000   Uiso        1.00
   C1111          C     0.84992     0.48702     0.85049     0.00000   Uiso        1.00
   N1112          N     0.96958     0.43998     0.92250     0.00000   Uiso        1.00
   N1113          N     0.97781     0.40219     0.84028     0.00000   Uiso        1.00
  Zn1114         Zn     0.55107     0.82854     0.71363     0.00000   Uiso        1.00
   C1115          C     0.65825     0.80193     0.63956     0.00000   Uiso        1.00
   N1116          N     0.67398     0.82899     0.64618     0.00000   Uiso        1.00
   C1117          C     0.60548     0.76163     0.78969     0.00000   Uiso        1.00
   N1118          N     0.63234     0.72247     0.77198     0.00000   Uiso        1.00
   C1119          C     0.72435     0.82060     0.62305     0.00000   Uiso        1.00
   C1120          C     0.65903     0.68126     0.80148     0.00000   Uiso        1.00
   N1121          N     0.52559     0.90408     0.67747     0.00000   Uiso        1.00
   N1122          N     0.60918     0.80136     0.65852     0.00000   Uiso        1.00
   N1123          N     0.57342     0.80883     0.76931     0.00000   Uiso        1.00
   H1124          H     0.72307     0.79025     0.13635     0.00000   Uiso        1.00
   H1125          H     0.60509     0.63726     0.25647     0.00000   Uiso        1.00
   H1126          H     0.67122     0.58061     0.68345     0.00000   Uiso        1.00
   H1127          H     0.60425     0.78960     0.33979     0.00000   Uiso        1.00
   H1128          H     0.75386     0.98283     0.20210     0.00000   Uiso        1.00
   H1129          H     0.80597     0.55413     0.13941     0.00000   Uiso        1.00
   C1130          C     0.97044     0.93882     0.19208     0.00000   Uiso        1.00
   C1131          C     0.99254     0.94453     0.21598     0.00000   Uiso        1.00
   N1132          N     0.98545     0.91881     0.26578     0.00000   Uiso        1.00
   N1133          N     0.96930     0.95902     0.14288     0.00000   Uiso        1.00
   H1134          H     0.95969     0.43525     0.25495     0.00000   Uiso        1.00
   H1135          H     0.66147     0.97085     0.80970     0.00000   Uiso        1.00
   C1136          C     0.65860     0.94030     0.88871     0.00000   Uiso        1.00
   C1137          C     0.68190     0.94598     0.83700     0.00000   Uiso        1.00
   N1138          N     0.73155     0.92008     0.81959     0.00000   Uiso        1.00
   N1139          N     0.52591     0.97558     0.88400     0.00000   Uiso        1.00
   N1140          N     0.60972     0.96071     0.91921     0.00000   Uiso        1.00
   H1141          H     0.72375     0.43482     0.34002     0.00000   Uiso        1.00
   H1142          H     0.73881     0.83949     0.78350     0.00000   Uiso        1.00
   H1143          H     0.60369     0.55356     0.49262     0.00000   Uiso        1.00
   H1144          H     0.58244     0.90284     0.90266     0.00000   Uiso        1.00
   C1145          C     0.54885     0.92529     0.89118     0.00000   Uiso        1.00
   H1146          H     0.58270     0.90172     0.60515     0.00000   Uiso        1.00
   C1147          C     0.54902     0.92439     0.62750     0.00000   Uiso        1.00
   H1148          H     0.67923     0.80548     0.50927     0.00000   Uiso        1.00
   C1149          C     0.69055     0.78298     0.48676     0.00000   Uiso        1.00
   H1150          H     0.97536     0.80707     0.21152     0.00000   Uiso        1.00
   C1151          C     0.95299     0.78447     0.22284     0.00000   Uiso        1.00
   H1152          H     0.97668     0.50823     0.50914     0.00000   Uiso        1.00
   C1153          C     0.95412     0.51971     0.48662     0.00000   Uiso        1.00
   H1154          H     0.93075     0.40837     0.65140     0.00000   Uiso        1.00
   C1155          C     0.94004     0.44098     0.64169     0.00000   Uiso        1.00
   H1156          H     0.57862     0.76010     1.00173     0.00000   Uiso        1.00
   C1157          C     0.61098     0.76953     0.96926     0.00000   Uiso        1.00
   H1158          H     0.92957     0.94753     1.00208     0.00000   Uiso        1.00
   C1159          C     0.93915     0.93824     0.96952     0.00000   Uiso        1.00
   H1160          H     0.57844     0.94806     0.46283     0.00000   Uiso        1.00
   C1161          C     0.61083     0.93860     0.47230     0.00000   Uiso        1.00
   H1162          H     0.92725     0.41176     1.00133     0.00000   Uiso        1.00
   C1163          C     0.93709     0.44390     0.96876     0.00000   Uiso        1.00
   H1164          H     0.58081     0.75864     0.65103     0.00000   Uiso        1.00
   C1165          C     0.61303     0.76843     0.64146     0.00000   Uiso        1.00
   H1166          H     0.93026     0.94848     0.11301     0.00000   Uiso        1.00
   C1167          C     0.93971     0.93892     0.14546     0.00000   Uiso        1.00
   H1168          H     0.58075     0.94980     0.99860     0.00000   Uiso        1.00
   C1169          C     0.61287     0.94023     0.96610     0.00000   Uiso        1.00
   H1170          H     0.52767     0.87286     0.79597     0.00000   Uiso        1.00
   C1171          C     0.55470     0.83432     0.80123     0.00000   Uiso        1.00
   H1172          H     0.78641     0.61444     0.53839     0.00000   Uiso        1.00
   C1173          C     0.78035     0.60906     0.57693     0.00000   Uiso        1.00
   H1174          H     0.78494     0.83559     0.31961     0.00000   Uiso        1.00
   C1175          C     0.77928     0.87433     0.31307     0.00000   Uiso        1.00
   H1176          H     0.58641     0.84967     0.43420     0.00000   Uiso        1.00
   C1177          C     0.58830     0.88194     0.39906     0.00000   Uiso        1.00
   H1178          H     0.89956     0.41978     0.11872     0.00000   Uiso        1.00
   C1179          C     0.86456     0.42035     0.12074     0.00000   Uiso        1.00
   H1180          H     0.58857     0.73162     0.55311     0.00000   Uiso        1.00
   C1181          C     0.58946     0.69630     0.58515     0.00000   Uiso        1.00
   H1182          H     0.90180     0.85014     0.12152     0.00000   Uiso        1.00
   C1183          C     0.86670     0.88245     0.12227     0.00000   Uiso        1.00
   H1184          H     0.58850     0.41552     0.43396     0.00000   Uiso        1.00
   C1185          C     0.58943     0.41742     0.39885     0.00000   Uiso        1.00
   H1186          H     0.58377     0.41979     0.55248     0.00000   Uiso        1.00
   C1187          C     0.58580     0.42060     0.58477     0.00000   Uiso        1.00
   H1188          H     0.58510     0.73149     0.12130     0.00000   Uiso        1.00
   C1189          C     0.58714     0.69628     0.12230     0.00000   Uiso        1.00
   H1190          H     0.59010     0.84979     0.11659     0.00000   Uiso        1.00
   C1191          C     0.59088     0.88215     0.11856     0.00000   Uiso        1.00
   H1192          H     0.90239     0.41495     0.55424     0.00000   Uiso        1.00
   C1193          C     0.86689     0.41714     0.58607     0.00000   Uiso        1.00
   H1194          H     0.29756     0.22137     0.69500     0.00000   Uiso        1.00
   H1195          H     0.32429     0.27203     0.77272     0.00000   Uiso        1.00
   H1196          H     0.88460     0.48643     0.33673     0.00000   Uiso        1.00
   H1197          H     0.80382     0.57984     0.41839     0.00000   Uiso        1.00
   H1198          H     0.80418     0.71455     0.18861     0.00000   Uiso        1.00
   H1199          H     0.88450     0.63416     0.28340     0.00000   Uiso        1.00
   H1200          H     0.74974     0.71465     0.33680     0.00000   Uiso        1.00


