data_image0
_cell_length_a       32.2441
_cell_length_b       32.2441
_cell_length_c       32.2441
_cell_angle_alpha    60
_cell_angle_beta     60
_cell_angle_gamma    60

_symmetry_space_group_name_H-M    P 1
_symmetry_int_tables_number       1

loop_
  _symmetry_equiv_pos_as_xyz
  'x, y, z'

loop_
  _atom_site_label
  _atom_site_occupancy
  _atom_site_fract_x
  _atom_site_fract_y
  _atom_site_fract_z
  _atom_site_thermal_displace_type
  _atom_site_B_iso_or_equiv
  _atom_site_type_symbol
  Zn1      1.0000 0.52593  0.34299  0.15657  Biso   1.000  Zn
  Zn2      1.0000 0.34299  0.52593  0.97451  Biso   1.000  Zn
  Zn3      1.0000 0.15657  0.97451  0.52593  Biso   1.000  Zn
  Zn4      1.0000 0.97451  0.15657  0.34299  Biso   1.000  Zn
  Zn5      1.0000 0.52593  0.15657  0.97451  Biso   1.000  Zn
  Zn6      1.0000 0.34299  0.97451  0.15657  Biso   1.000  Zn
  Zn7      1.0000 0.15657  0.52593  0.34299  Biso   1.000  Zn
  Zn8      1.0000 0.97451  0.34299  0.52593  Biso   1.000  Zn
  Zn9      1.0000 0.52593  0.97451  0.34299  Biso   1.000  Zn
  Zn10     1.0000 0.34299  0.15657  0.52593  Biso   1.000  Zn
  Zn11     1.0000 0.15657  0.34299  0.97451  Biso   1.000  Zn
  Zn12     1.0000 0.97451  0.52593  0.15657  Biso   1.000  Zn
  Zn13     1.0000 0.65701  0.47407  0.84343  Biso   1.000  Zn
  Zn14     1.0000 0.47407  0.65701  0.02549  Biso   1.000  Zn
  Zn15     1.0000 0.02549  0.84343  0.47407  Biso   1.000  Zn
  Zn16     1.0000 0.84343  0.02549  0.65701  Biso   1.000  Zn
  Zn17     1.0000 0.84343  0.47407  0.02549  Biso   1.000  Zn
  Zn18     1.0000 0.02549  0.65701  0.84343  Biso   1.000  Zn
  Zn19     1.0000 0.47407  0.84343  0.65701  Biso   1.000  Zn
  Zn20     1.0000 0.65701  0.02549  0.47407  Biso   1.000  Zn
  Zn21     1.0000 0.02549  0.47407  0.65701  Biso   1.000  Zn
  Zn22     1.0000 0.84343  0.65701  0.47407  Biso   1.000  Zn
  Zn23     1.0000 0.65701  0.84343  0.02549  Biso   1.000  Zn
  Zn24     1.0000 0.47407  0.02549  0.84343  Biso   1.000  Zn
  Zn25     1.0000 0.47407  0.65701  0.84343  Biso   1.000  Zn
  Zn26     1.0000 0.65701  0.47407  0.02549  Biso   1.000  Zn
  Zn27     1.0000 0.84343  0.02549  0.47407  Biso   1.000  Zn
  Zn28     1.0000 0.02549  0.84343  0.65701  Biso   1.000  Zn
  Zn29     1.0000 0.47407  0.84343  0.02549  Biso   1.000  Zn
  Zn30     1.0000 0.65701  0.02549  0.84343  Biso   1.000  Zn
  Zn31     1.0000 0.84343  0.47407  0.65701  Biso   1.000  Zn
  Zn32     1.0000 0.02549  0.65701  0.47407  Biso   1.000  Zn
  Zn33     1.0000 0.47407  0.02549  0.65701  Biso   1.000  Zn
  Zn34     1.0000 0.65701  0.84343  0.47407  Biso   1.000  Zn
  Zn35     1.0000 0.84343  0.65701  0.02549  Biso   1.000  Zn
  Zn36     1.0000 0.02549  0.47407  0.84343  Biso   1.000  Zn
  Zn37     1.0000 0.34299  0.52593  0.15657  Biso   1.000  Zn
  Zn38     1.0000 0.52593  0.34299  0.97451  Biso   1.000  Zn
  Zn39     1.0000 0.97451  0.15657  0.52593  Biso   1.000  Zn
  Zn40     1.0000 0.15657  0.97451  0.34299  Biso   1.000  Zn
  Zn41     1.0000 0.15657  0.52593  0.97451  Biso   1.000  Zn
  Zn42     1.0000 0.97451  0.34299  0.15657  Biso   1.000  Zn
  Zn43     1.0000 0.52593  0.15657  0.34299  Biso   1.000  Zn
  Zn44     1.0000 0.34299  0.97451  0.52593  Biso   1.000  Zn
  Zn45     1.0000 0.97451  0.52593  0.34299  Biso   1.000  Zn
  Zn46     1.0000 0.15657  0.34299  0.52593  Biso   1.000  Zn
  Zn47     1.0000 0.34299  0.15657  0.97451  Biso   1.000  Zn
  Zn48     1.0000 0.52593  0.97451  0.15657  Biso   1.000  Zn
  H1       1.0000 0.42970  0.30070  0.20630  Biso   1.000  H
  H2       1.0000 0.36850  0.28110  0.21230  Biso   1.000  H
  H3       1.0000 0.64070  0.26230  0.11390  Biso   1.000  H
  H4       1.0000 0.71940  0.23260  0.06840  Biso   1.000  H
  H5       1.0000 0.49960  0.35740  0.26260  Biso   1.000  H
  H6       1.0000 0.46290  0.38890  0.32690  Biso   1.000  H
  H7       1.0000 0.61210  0.33110  0.18930  Biso   1.000  H
  H8       1.0000 0.65620  0.30940  0.23640  Biso   1.000  H
  H9       1.0000 0.30070  0.42970  0.06330  Biso   1.000  H
  H10      1.0000 0.28110  0.36850  0.13810  Biso   1.000  H
  H11      1.0000 0.26230  0.64070  0.98310  Biso   1.000  H
  H12      1.0000 0.23260  0.71940  0.97960  Biso   1.000  H
  H13      1.0000 0.35740  0.49960  0.88040  Biso   1.000  H
  H14      1.0000 0.38890  0.46290  0.82130  Biso   1.000  H
  H15      1.0000 0.33110  0.61210  0.86750  Biso   1.000  H
  H16      1.0000 0.30940  0.65620  0.79800  Biso   1.000  H
  H17      1.0000 0.20630  0.06330  0.42970  Biso   1.000  H
  H18      1.0000 0.21230  0.13810  0.36850  Biso   1.000  H
  H19      1.0000 0.11390  0.98310  0.64070  Biso   1.000  H
  H20      1.0000 0.06840  0.97960  0.71940  Biso   1.000  H
  H21      1.0000 0.26260  0.88040  0.49960  Biso   1.000  H
  H22      1.0000 0.32690  0.82130  0.46290  Biso   1.000  H
  H23      1.0000 0.18930  0.86750  0.61210  Biso   1.000  H
  H24      1.0000 0.23640  0.79800  0.65620  Biso   1.000  H
  H25      1.0000 0.06330  0.20630  0.30070  Biso   1.000  H
  H26      1.0000 0.13810  0.21230  0.28110  Biso   1.000  H
  H27      1.0000 0.98310  0.11390  0.26230  Biso   1.000  H
  H28      1.0000 0.97960  0.06840  0.23260  Biso   1.000  H
  H29      1.0000 0.88040  0.26260  0.35740  Biso   1.000  H
  H30      1.0000 0.82130  0.32690  0.38890  Biso   1.000  H
  H31      1.0000 0.86750  0.18930  0.33110  Biso   1.000  H
  H32      1.0000 0.79800  0.23640  0.30940  Biso   1.000  H
  H33      1.0000 0.42970  0.20630  0.06330  Biso   1.000  H
  H34      1.0000 0.36850  0.21230  0.13810  Biso   1.000  H
  H35      1.0000 0.64070  0.11390  0.98310  Biso   1.000  H
  H36      1.0000 0.71940  0.06840  0.97960  Biso   1.000  H
  H37      1.0000 0.49960  0.26260  0.88040  Biso   1.000  H
  H38      1.0000 0.46290  0.32690  0.82130  Biso   1.000  H
  H39      1.0000 0.61210  0.18930  0.86750  Biso   1.000  H
  H40      1.0000 0.65620  0.23640  0.79800  Biso   1.000  H
  H41      1.0000 0.30070  0.06330  0.20630  Biso   1.000  H
  H42      1.0000 0.28110  0.13810  0.21230  Biso   1.000  H
  H43      1.0000 0.26230  0.98310  0.11390  Biso   1.000  H
  H44      1.0000 0.23260  0.97960  0.06840  Biso   1.000  H
  H45      1.0000 0.35740  0.88040  0.26260  Biso   1.000  H
  H46      1.0000 0.38890  0.82130  0.32690  Biso   1.000  H
  H47      1.0000 0.33110  0.86750  0.18930  Biso   1.000  H
  H48      1.0000 0.30940  0.79800  0.23640  Biso   1.000  H
  H49      1.0000 0.20630  0.42970  0.30070  Biso   1.000  H
  H50      1.0000 0.21230  0.36850  0.28110  Biso   1.000  H
  H51      1.0000 0.11390  0.64070  0.26230  Biso   1.000  H
  H52      1.0000 0.06840  0.71940  0.23260  Biso   1.000  H
  H53      1.0000 0.26260  0.49960  0.35740  Biso   1.000  H
  H54      1.0000 0.32690  0.46290  0.38890  Biso   1.000  H
  H55      1.0000 0.18930  0.61210  0.33110  Biso   1.000  H
  H56      1.0000 0.23640  0.65620  0.30940  Biso   1.000  H
  H57      1.0000 0.06330  0.30070  0.42970  Biso   1.000  H
  H58      1.0000 0.13810  0.28110  0.36850  Biso   1.000  H
  H59      1.0000 0.98310  0.26230  0.64070  Biso   1.000  H
  H60      1.0000 0.97960  0.23260  0.71940  Biso   1.000  H
  H61      1.0000 0.88040  0.35740  0.49960  Biso   1.000  H
  H62      1.0000 0.82130  0.38890  0.46290  Biso   1.000  H
  H63      1.0000 0.86750  0.33110  0.61210  Biso   1.000  H
  H64      1.0000 0.79800  0.30940  0.65620  Biso   1.000  H
  H65      1.0000 0.42970  0.06330  0.30070  Biso   1.000  H
  H66      1.0000 0.36850  0.13810  0.28110  Biso   1.000  H
  H67      1.0000 0.64070  0.98310  0.26230  Biso   1.000  H
  H68      1.0000 0.71940  0.97960  0.23260  Biso   1.000  H
  H69      1.0000 0.49960  0.88040  0.35740  Biso   1.000  H
  H70      1.0000 0.46290  0.82130  0.38890  Biso   1.000  H
  H71      1.0000 0.61210  0.86750  0.33110  Biso   1.000  H
  H72      1.0000 0.65620  0.79800  0.30940  Biso   1.000  H
  H73      1.0000 0.30070  0.20630  0.42970  Biso   1.000  H
  H74      1.0000 0.28110  0.21230  0.36850  Biso   1.000  H
  H75      1.0000 0.26230  0.11390  0.64070  Biso   1.000  H
  H76      1.0000 0.23260  0.06840  0.71940  Biso   1.000  H
  H77      1.0000 0.35740  0.26260  0.49960  Biso   1.000  H
  H78      1.0000 0.38890  0.32690  0.46290  Biso   1.000  H
  H79      1.0000 0.33110  0.18930  0.61210  Biso   1.000  H
  H80      1.0000 0.30940  0.23640  0.65620  Biso   1.000  H
  H81      1.0000 0.20630  0.30070  0.06330  Biso   1.000  H
  H82      1.0000 0.21230  0.28110  0.13810  Biso   1.000  H
  H83      1.0000 0.11390  0.26230  0.98310  Biso   1.000  H
  H84      1.0000 0.06840  0.23260  0.97960  Biso   1.000  H
  H85      1.0000 0.26260  0.35740  0.88040  Biso   1.000  H
  H86      1.0000 0.32690  0.38890  0.82130  Biso   1.000  H
  H87      1.0000 0.18930  0.33110  0.86750  Biso   1.000  H
  H88      1.0000 0.23640  0.30940  0.79800  Biso   1.000  H
  H89      1.0000 0.06330  0.42970  0.20630  Biso   1.000  H
  H90      1.0000 0.13810  0.36850  0.21230  Biso   1.000  H
  H91      1.0000 0.98310  0.64070  0.11390  Biso   1.000  H
  H92      1.0000 0.97960  0.71940  0.06840  Biso   1.000  H
  H93      1.0000 0.88040  0.49960  0.26260  Biso   1.000  H
  H94      1.0000 0.82130  0.46290  0.32690  Biso   1.000  H
  H95      1.0000 0.86750  0.61210  0.18930  Biso   1.000  H
  H96      1.0000 0.79800  0.65620  0.23640  Biso   1.000  H
  H97      1.0000 0.69930  0.57030  0.79370  Biso   1.000  H
  H98      1.0000 0.71890  0.63150  0.78770  Biso   1.000  H
  H99      1.0000 0.73770  0.35930  0.88610  Biso   1.000  H
  H100     1.0000 0.76740  0.28060  0.93160  Biso   1.000  H
  H101     1.0000 0.64260  0.50040  0.73740  Biso   1.000  H
  H102     1.0000 0.61110  0.53710  0.67310  Biso   1.000  H
  H103     1.0000 0.66890  0.38790  0.81070  Biso   1.000  H
  H104     1.0000 0.69060  0.34380  0.76360  Biso   1.000  H
  H105     1.0000 0.57030  0.69930  0.93670  Biso   1.000  H
  H106     1.0000 0.63150  0.71890  0.86190  Biso   1.000  H
  H107     1.0000 0.35930  0.73770  0.01690  Biso   1.000  H
  H108     1.0000 0.28060  0.76740  0.02040  Biso   1.000  H
  H109     1.0000 0.50040  0.64260  0.11960  Biso   1.000  H
  H110     1.0000 0.53710  0.61110  0.17870  Biso   1.000  H
  H111     1.0000 0.38790  0.66890  0.13250  Biso   1.000  H
  H112     1.0000 0.34380  0.69060  0.20200  Biso   1.000  H
  H113     1.0000 0.93670  0.79370  0.57030  Biso   1.000  H
  H114     1.0000 0.86190  0.78770  0.63150  Biso   1.000  H
  H115     1.0000 0.01690  0.88610  0.35930  Biso   1.000  H
  H116     1.0000 0.02040  0.93160  0.28060  Biso   1.000  H
  H117     1.0000 0.11960  0.73740  0.50040  Biso   1.000  H
  H118     1.0000 0.17870  0.67310  0.53710  Biso   1.000  H
  H119     1.0000 0.13250  0.81070  0.38790  Biso   1.000  H
  H120     1.0000 0.20200  0.76360  0.34380  Biso   1.000  H
  H121     1.0000 0.79370  0.93670  0.69930  Biso   1.000  H
  H122     1.0000 0.78770  0.86190  0.71890  Biso   1.000  H
  H123     1.0000 0.88610  0.01690  0.73770  Biso   1.000  H
  H124     1.0000 0.93160  0.02040  0.76740  Biso   1.000  H
  H125     1.0000 0.73740  0.11960  0.64260  Biso   1.000  H
  H126     1.0000 0.67310  0.17870  0.61110  Biso   1.000  H
  H127     1.0000 0.81070  0.13250  0.66890  Biso   1.000  H
  H128     1.0000 0.76360  0.20200  0.69060  Biso   1.000  H
  H129     1.0000 0.79370  0.57030  0.93670  Biso   1.000  H
  H130     1.0000 0.78770  0.63150  0.86190  Biso   1.000  H
  H131     1.0000 0.88610  0.35930  0.01690  Biso   1.000  H
  H132     1.0000 0.93160  0.28060  0.02040  Biso   1.000  H
  H133     1.0000 0.73740  0.50040  0.11960  Biso   1.000  H
  H134     1.0000 0.67310  0.53710  0.17870  Biso   1.000  H
  H135     1.0000 0.81070  0.38790  0.13250  Biso   1.000  H
  H136     1.0000 0.76360  0.34380  0.20200  Biso   1.000  H
  H137     1.0000 0.93670  0.69930  0.79370  Biso   1.000  H
  H138     1.0000 0.86190  0.71890  0.78770  Biso   1.000  H
  H139     1.0000 0.01690  0.73770  0.88610  Biso   1.000  H
  H140     1.0000 0.02040  0.76740  0.93160  Biso   1.000  H
  H141     1.0000 0.11960  0.64260  0.73740  Biso   1.000  H
  H142     1.0000 0.17870  0.61110  0.67310  Biso   1.000  H
  H143     1.0000 0.13250  0.66890  0.81070  Biso   1.000  H
  H144     1.0000 0.20200  0.69060  0.76360  Biso   1.000  H
  H145     1.0000 0.57030  0.79370  0.69930  Biso   1.000  H
  H146     1.0000 0.63150  0.78770  0.71890  Biso   1.000  H
  H147     1.0000 0.35930  0.88610  0.73770  Biso   1.000  H
  H148     1.0000 0.28060  0.93160  0.76740  Biso   1.000  H
  H149     1.0000 0.50040  0.73740  0.64260  Biso   1.000  H
  H150     1.0000 0.53710  0.67310  0.61110  Biso   1.000  H
  H151     1.0000 0.38790  0.81070  0.66890  Biso   1.000  H
  H152     1.0000 0.34380  0.76360  0.69060  Biso   1.000  H
  H153     1.0000 0.69930  0.93670  0.57030  Biso   1.000  H
  H154     1.0000 0.71890  0.86190  0.63150  Biso   1.000  H
  H155     1.0000 0.73770  0.01690  0.35930  Biso   1.000  H
  H156     1.0000 0.76740  0.02040  0.28060  Biso   1.000  H
  H157     1.0000 0.64260  0.11960  0.50040  Biso   1.000  H
  H158     1.0000 0.61110  0.17870  0.53710  Biso   1.000  H
  H159     1.0000 0.66890  0.13250  0.38790  Biso   1.000  H
  H160     1.0000 0.69060  0.20200  0.34380  Biso   1.000  H
  H161     1.0000 0.93670  0.57030  0.69930  Biso   1.000  H
  H162     1.0000 0.86190  0.63150  0.71890  Biso   1.000  H
  H163     1.0000 0.01690  0.35930  0.73770  Biso   1.000  H
  H164     1.0000 0.02040  0.28060  0.76740  Biso   1.000  H
  H165     1.0000 0.11960  0.50040  0.64260  Biso   1.000  H
  H166     1.0000 0.17870  0.53710  0.61110  Biso   1.000  H
  H167     1.0000 0.13250  0.38790  0.66890  Biso   1.000  H
  H168     1.0000 0.20200  0.34380  0.69060  Biso   1.000  H
  H169     1.0000 0.79370  0.69930  0.57030  Biso   1.000  H
  H170     1.0000 0.78770  0.71890  0.63150  Biso   1.000  H
  H171     1.0000 0.88610  0.73770  0.35930  Biso   1.000  H
  H172     1.0000 0.93160  0.76740  0.28060  Biso   1.000  H
  H173     1.0000 0.73740  0.64260  0.50040  Biso   1.000  H
  H174     1.0000 0.67310  0.61110  0.53710  Biso   1.000  H
  H175     1.0000 0.81070  0.66890  0.38790  Biso   1.000  H
  H176     1.0000 0.76360  0.69060  0.34380  Biso   1.000  H
  H177     1.0000 0.69930  0.79370  0.93670  Biso   1.000  H
  H178     1.0000 0.71890  0.78770  0.86190  Biso   1.000  H
  H179     1.0000 0.73770  0.88610  0.01690  Biso   1.000  H
  H180     1.0000 0.76740  0.93160  0.02040  Biso   1.000  H
  H181     1.0000 0.64260  0.73740  0.11960  Biso   1.000  H
  H182     1.0000 0.61110  0.67310  0.17870  Biso   1.000  H
  H183     1.0000 0.66890  0.81070  0.13250  Biso   1.000  H
  H184     1.0000 0.69060  0.76360  0.20200  Biso   1.000  H
  H185     1.0000 0.57030  0.93670  0.79370  Biso   1.000  H
  H186     1.0000 0.63150  0.86190  0.78770  Biso   1.000  H
  H187     1.0000 0.35930  0.01690  0.88610  Biso   1.000  H
  H188     1.0000 0.28060  0.02040  0.93160  Biso   1.000  H
  H189     1.0000 0.50040  0.11960  0.73740  Biso   1.000  H
  H190     1.0000 0.53710  0.17870  0.67310  Biso   1.000  H
  H191     1.0000 0.38790  0.13250  0.81070  Biso   1.000  H
  H192     1.0000 0.34380  0.20200  0.76360  Biso   1.000  H
  H193     1.0000 0.57030  0.69930  0.79370  Biso   1.000  H
  H194     1.0000 0.63150  0.71890  0.78770  Biso   1.000  H
  H195     1.0000 0.35930  0.73770  0.88610  Biso   1.000  H
  H196     1.0000 0.28060  0.76740  0.93160  Biso   1.000  H
  H197     1.0000 0.50040  0.64260  0.73740  Biso   1.000  H
  H198     1.0000 0.53710  0.61110  0.67310  Biso   1.000  H
  H199     1.0000 0.38790  0.66890  0.81070  Biso   1.000  H
  H200     1.0000 0.34380  0.69060  0.76360  Biso   1.000  H
  H201     1.0000 0.69930  0.57030  0.93670  Biso   1.000  H
  H202     1.0000 0.71890  0.63150  0.86190  Biso   1.000  H
  H203     1.0000 0.73770  0.35930  0.01690  Biso   1.000  H
  H204     1.0000 0.76740  0.28060  0.02040  Biso   1.000  H
  H205     1.0000 0.64260  0.50040  0.11960  Biso   1.000  H
  H206     1.0000 0.61110  0.53710  0.17870  Biso   1.000  H
  H207     1.0000 0.66890  0.38790  0.13250  Biso   1.000  H
  H208     1.0000 0.69060  0.34380  0.20200  Biso   1.000  H
  H209     1.0000 0.79370  0.93670  0.57030  Biso   1.000  H
  H210     1.0000 0.78770  0.86190  0.63150  Biso   1.000  H
  H211     1.0000 0.88610  0.01690  0.35930  Biso   1.000  H
  H212     1.0000 0.93160  0.02040  0.28060  Biso   1.000  H
  H213     1.0000 0.73740  0.11960  0.50040  Biso   1.000  H
  H214     1.0000 0.67310  0.17870  0.53710  Biso   1.000  H
  H215     1.0000 0.81070  0.13250  0.38790  Biso   1.000  H
  H216     1.0000 0.76360  0.20200  0.34380  Biso   1.000  H
  H217     1.0000 0.93670  0.79370  0.69930  Biso   1.000  H
  H218     1.0000 0.86190  0.78770  0.71890  Biso   1.000  H
  H219     1.0000 0.01690  0.88610  0.73770  Biso   1.000  H
  H220     1.0000 0.02040  0.93160  0.76740  Biso   1.000  H
  H221     1.0000 0.11960  0.73740  0.64260  Biso   1.000  H
  H222     1.0000 0.17870  0.67310  0.61110  Biso   1.000  H
  H223     1.0000 0.13250  0.81070  0.66890  Biso   1.000  H
  H224     1.0000 0.20200  0.76360  0.69060  Biso   1.000  H
  H225     1.0000 0.57030  0.79370  0.93670  Biso   1.000  H
  H226     1.0000 0.63150  0.78770  0.86190  Biso   1.000  H
  H227     1.0000 0.35930  0.88610  0.01690  Biso   1.000  H
  H228     1.0000 0.28060  0.93160  0.02040  Biso   1.000  H
  H229     1.0000 0.50040  0.73740  0.11960  Biso   1.000  H
  H230     1.0000 0.53710  0.67310  0.17870  Biso   1.000  H
  H231     1.0000 0.38790  0.81070  0.13250  Biso   1.000  H
  H232     1.0000 0.34380  0.76360  0.20200  Biso   1.000  H
  H233     1.0000 0.69930  0.93670  0.79370  Biso   1.000  H
  H234     1.0000 0.71890  0.86190  0.78770  Biso   1.000  H
  H235     1.0000 0.73770  0.01690  0.88610  Biso   1.000  H
  H236     1.0000 0.76740  0.02040  0.93160  Biso   1.000  H
  H237     1.0000 0.64260  0.11960  0.73740  Biso   1.000  H
  H238     1.0000 0.61110  0.17870  0.67310  Biso   1.000  H
  H239     1.0000 0.66890  0.13250  0.81070  Biso   1.000  H
  H240     1.0000 0.69060  0.20200  0.76360  Biso   1.000  H
  H241     1.0000 0.79370  0.57030  0.69930  Biso   1.000  H
  H242     1.0000 0.78770  0.63150  0.71890  Biso   1.000  H
  H243     1.0000 0.88610  0.35930  0.73770  Biso   1.000  H
  H244     1.0000 0.93160  0.28060  0.76740  Biso   1.000  H
  H245     1.0000 0.73740  0.50040  0.64260  Biso   1.000  H
  H246     1.0000 0.67310  0.53710  0.61110  Biso   1.000  H
  H247     1.0000 0.81070  0.38790  0.66890  Biso   1.000  H
  H248     1.0000 0.76360  0.34380  0.69060  Biso   1.000  H
  H249     1.0000 0.93670  0.69930  0.57030  Biso   1.000  H
  H250     1.0000 0.86190  0.71890  0.63150  Biso   1.000  H
  H251     1.0000 0.01690  0.73770  0.35930  Biso   1.000  H
  H252     1.0000 0.02040  0.76740  0.28060  Biso   1.000  H
  H253     1.0000 0.11960  0.64260  0.50040  Biso   1.000  H
  H254     1.0000 0.17870  0.61110  0.53710  Biso   1.000  H
  H255     1.0000 0.13250  0.66890  0.38790  Biso   1.000  H
  H256     1.0000 0.20200  0.69060  0.34380  Biso   1.000  H
  H257     1.0000 0.57030  0.93670  0.69930  Biso   1.000  H
  H258     1.0000 0.63150  0.86190  0.71890  Biso   1.000  H
  H259     1.0000 0.35930  0.01690  0.73770  Biso   1.000  H
  H260     1.0000 0.28060  0.02040  0.76740  Biso   1.000  H
  H261     1.0000 0.50040  0.11960  0.64260  Biso   1.000  H
  H262     1.0000 0.53710  0.17870  0.61110  Biso   1.000  H
  H263     1.0000 0.38790  0.13250  0.66890  Biso   1.000  H
  H264     1.0000 0.34380  0.20200  0.69060  Biso   1.000  H
  H265     1.0000 0.69930  0.79370  0.57030  Biso   1.000  H
  H266     1.0000 0.71890  0.78770  0.63150  Biso   1.000  H
  H267     1.0000 0.73770  0.88610  0.35930  Biso   1.000  H
  H268     1.0000 0.76740  0.93160  0.28060  Biso   1.000  H
  H269     1.0000 0.64260  0.73740  0.50040  Biso   1.000  H
  H270     1.0000 0.61110  0.67310  0.53710  Biso   1.000  H
  H271     1.0000 0.66890  0.81070  0.38790  Biso   1.000  H
  H272     1.0000 0.69060  0.76360  0.34380  Biso   1.000  H
  H273     1.0000 0.79370  0.69930  0.93670  Biso   1.000  H
  H274     1.0000 0.78770  0.71890  0.86190  Biso   1.000  H
  H275     1.0000 0.88610  0.73770  0.01690  Biso   1.000  H
  H276     1.0000 0.93160  0.76740  0.02040  Biso   1.000  H
  H277     1.0000 0.73740  0.64260  0.11960  Biso   1.000  H
  H278     1.0000 0.67310  0.61110  0.17870  Biso   1.000  H
  H279     1.0000 0.81070  0.66890  0.13250  Biso   1.000  H
  H280     1.0000 0.76360  0.69060  0.20200  Biso   1.000  H
  H281     1.0000 0.93670  0.57030  0.79370  Biso   1.000  H
  H282     1.0000 0.86190  0.63150  0.78770  Biso   1.000  H
  H283     1.0000 0.01690  0.35930  0.88610  Biso   1.000  H
  H284     1.0000 0.02040  0.28060  0.93160  Biso   1.000  H
  H285     1.0000 0.11960  0.50040  0.73740  Biso   1.000  H
  H286     1.0000 0.17870  0.53710  0.67310  Biso   1.000  H
  H287     1.0000 0.13250  0.38790  0.81070  Biso   1.000  H
  H288     1.0000 0.20200  0.34380  0.76360  Biso   1.000  H
  H289     1.0000 0.30070  0.42970  0.20630  Biso   1.000  H
  H290     1.0000 0.28110  0.36850  0.21230  Biso   1.000  H
  H291     1.0000 0.26230  0.64070  0.11390  Biso   1.000  H
  H292     1.0000 0.23260  0.71940  0.06840  Biso   1.000  H
  H293     1.0000 0.35740  0.49960  0.26260  Biso   1.000  H
  H294     1.0000 0.38890  0.46290  0.32690  Biso   1.000  H
  H295     1.0000 0.33110  0.61210  0.18930  Biso   1.000  H
  H296     1.0000 0.30940  0.65620  0.23640  Biso   1.000  H
  H297     1.0000 0.42970  0.30070  0.06330  Biso   1.000  H
  H298     1.0000 0.36850  0.28110  0.13810  Biso   1.000  H
  H299     1.0000 0.64070  0.26230  0.98310  Biso   1.000  H
  H300     1.0000 0.71940  0.23260  0.97960  Biso   1.000  H
  H301     1.0000 0.49960  0.35740  0.88040  Biso   1.000  H
  H302     1.0000 0.46290  0.38890  0.82130  Biso   1.000  H
  H303     1.0000 0.61210  0.33110  0.86750  Biso   1.000  H
  H304     1.0000 0.65620  0.30940  0.79800  Biso   1.000  H
  H305     1.0000 0.06330  0.20630  0.42970  Biso   1.000  H
  H306     1.0000 0.13810  0.21230  0.36850  Biso   1.000  H
  H307     1.0000 0.98310  0.11390  0.64070  Biso   1.000  H
  H308     1.0000 0.97960  0.06840  0.71940  Biso   1.000  H
  H309     1.0000 0.88040  0.26260  0.49960  Biso   1.000  H
  H310     1.0000 0.82130  0.32690  0.46290  Biso   1.000  H
  H311     1.0000 0.86750  0.18930  0.61210  Biso   1.000  H
  H312     1.0000 0.79800  0.23640  0.65620  Biso   1.000  H
  H313     1.0000 0.20630  0.06330  0.30070  Biso   1.000  H
  H314     1.0000 0.21230  0.13810  0.28110  Biso   1.000  H
  H315     1.0000 0.11390  0.98310  0.26230  Biso   1.000  H
  H316     1.0000 0.06840  0.97960  0.23260  Biso   1.000  H
  H317     1.0000 0.26260  0.88040  0.35740  Biso   1.000  H
  H318     1.0000 0.32690  0.82130  0.38890  Biso   1.000  H
  H319     1.0000 0.18930  0.86750  0.33110  Biso   1.000  H
  H320     1.0000 0.23640  0.79800  0.30940  Biso   1.000  H
  H321     1.0000 0.20630  0.42970  0.06330  Biso   1.000  H
  H322     1.0000 0.21230  0.36850  0.13810  Biso   1.000  H
  H323     1.0000 0.11390  0.64070  0.98310  Biso   1.000  H
  H324     1.0000 0.06840  0.71940  0.97960  Biso   1.000  H
  H325     1.0000 0.26260  0.49960  0.88040  Biso   1.000  H
  H326     1.0000 0.32690  0.46290  0.82130  Biso   1.000  H
  H327     1.0000 0.18930  0.61210  0.86750  Biso   1.000  H
  H328     1.0000 0.23640  0.65620  0.79800  Biso   1.000  H
  H329     1.0000 0.06330  0.30070  0.20630  Biso   1.000  H
  H330     1.0000 0.13810  0.28110  0.21230  Biso   1.000  H
  H331     1.0000 0.98310  0.26230  0.11390  Biso   1.000  H
  H332     1.0000 0.97960  0.23260  0.06840  Biso   1.000  H
  H333     1.0000 0.88040  0.35740  0.26260  Biso   1.000  H
  H334     1.0000 0.82130  0.38890  0.32690  Biso   1.000  H
  H335     1.0000 0.86750  0.33110  0.18930  Biso   1.000  H
  H336     1.0000 0.79800  0.30940  0.23640  Biso   1.000  H
  H337     1.0000 0.42970  0.20630  0.30070  Biso   1.000  H
  H338     1.0000 0.36850  0.21230  0.28110  Biso   1.000  H
  H339     1.0000 0.64070  0.11390  0.26230  Biso   1.000  H
  H340     1.0000 0.71940  0.06840  0.23260  Biso   1.000  H
  H341     1.0000 0.49960  0.26260  0.35740  Biso   1.000  H
  H342     1.0000 0.46290  0.32690  0.38890  Biso   1.000  H
  H343     1.0000 0.61210  0.18930  0.33110  Biso   1.000  H
  H344     1.0000 0.65620  0.23640  0.30940  Biso   1.000  H
  H345     1.0000 0.30070  0.06330  0.42970  Biso   1.000  H
  H346     1.0000 0.28110  0.13810  0.36850  Biso   1.000  H
  H347     1.0000 0.26230  0.98310  0.64070  Biso   1.000  H
  H348     1.0000 0.23260  0.97960  0.71940  Biso   1.000  H
  H349     1.0000 0.35740  0.88040  0.49960  Biso   1.000  H
  H350     1.0000 0.38890  0.82130  0.46290  Biso   1.000  H
  H351     1.0000 0.33110  0.86750  0.61210  Biso   1.000  H
  H352     1.0000 0.30940  0.79800  0.65620  Biso   1.000  H
  H353     1.0000 0.06330  0.42970  0.30070  Biso   1.000  H
  H354     1.0000 0.13810  0.36850  0.28110  Biso   1.000  H
  H355     1.0000 0.98310  0.64070  0.26230  Biso   1.000  H
  H356     1.0000 0.97960  0.71940  0.23260  Biso   1.000  H
  H357     1.0000 0.88040  0.49960  0.35740  Biso   1.000  H
  H358     1.0000 0.82130  0.46290  0.38890  Biso   1.000  H
  H359     1.0000 0.86750  0.61210  0.33110  Biso   1.000  H
  H360     1.0000 0.79800  0.65620  0.30940  Biso   1.000  H
  H361     1.0000 0.20630  0.30070  0.42970  Biso   1.000  H
  H362     1.0000 0.21230  0.28110  0.36850  Biso   1.000  H
  H363     1.0000 0.11390  0.26230  0.64070  Biso   1.000  H
  H364     1.0000 0.06840  0.23260  0.71940  Biso   1.000  H
  H365     1.0000 0.26260  0.35740  0.49960  Biso   1.000  H
  H366     1.0000 0.32690  0.38890  0.46290  Biso   1.000  H
  H367     1.0000 0.18930  0.33110  0.61210  Biso   1.000  H
  H368     1.0000 0.23640  0.30940  0.65620  Biso   1.000  H
  H369     1.0000 0.30070  0.20630  0.06330  Biso   1.000  H
  H370     1.0000 0.28110  0.21230  0.13810  Biso   1.000  H
  H371     1.0000 0.26230  0.11390  0.98310  Biso   1.000  H
  H372     1.0000 0.23260  0.06840  0.97960  Biso   1.000  H
  H373     1.0000 0.35740  0.26260  0.88040  Biso   1.000  H
  H374     1.0000 0.38890  0.32690  0.82130  Biso   1.000  H
  H375     1.0000 0.33110  0.18930  0.86750  Biso   1.000  H
  H376     1.0000 0.30940  0.23640  0.79800  Biso   1.000  H
  H377     1.0000 0.42970  0.06330  0.20630  Biso   1.000  H
  H378     1.0000 0.36850  0.13810  0.21230  Biso   1.000  H
  H379     1.0000 0.64070  0.98310  0.11390  Biso   1.000  H
  H380     1.0000 0.71940  0.97960  0.06840  Biso   1.000  H
  H381     1.0000 0.49960  0.88040  0.26260  Biso   1.000  H
  H382     1.0000 0.46290  0.82130  0.32690  Biso   1.000  H
  H383     1.0000 0.61210  0.86750  0.18930  Biso   1.000  H
  H384     1.0000 0.65620  0.79800  0.23640  Biso   1.000  H
  H385     1.0000 0.56090  0.43910  0.09170  Biso   1.000  H
  H386     1.0000 0.43910  0.56090  0.90830  Biso   1.000  H
  H387     1.0000 0.09170  0.90830  0.56090  Biso   1.000  H
  H388     1.0000 0.90830  0.09170  0.43910  Biso   1.000  H
  H389     1.0000 0.56090  0.09170  0.90830  Biso   1.000  H
  H390     1.0000 0.43910  0.90830  0.09170  Biso   1.000  H
  H391     1.0000 0.09170  0.56090  0.43910  Biso   1.000  H
  H392     1.0000 0.90830  0.43910  0.56090  Biso   1.000  H
  H393     1.0000 0.56090  0.90830  0.43910  Biso   1.000  H
  H394     1.0000 0.43910  0.09170  0.56090  Biso   1.000  H
  H395     1.0000 0.09170  0.43910  0.90830  Biso   1.000  H
  H396     1.0000 0.90830  0.56090  0.09170  Biso   1.000  H
  H397     1.0000 0.56090  0.43910  0.90830  Biso   1.000  H
  H398     1.0000 0.43910  0.56090  0.09170  Biso   1.000  H
  H399     1.0000 0.09170  0.90830  0.43910  Biso   1.000  H
  H400     1.0000 0.90830  0.09170  0.56090  Biso   1.000  H
  H401     1.0000 0.90830  0.43910  0.09170  Biso   1.000  H
  H402     1.0000 0.09170  0.56090  0.90830  Biso   1.000  H
  H403     1.0000 0.43910  0.90830  0.56090  Biso   1.000  H
  H404     1.0000 0.56090  0.09170  0.43910  Biso   1.000  H
  H405     1.0000 0.09170  0.43910  0.56090  Biso   1.000  H
  H406     1.0000 0.90830  0.56090  0.43910  Biso   1.000  H
  H407     1.0000 0.56090  0.90830  0.09170  Biso   1.000  H
  H408     1.0000 0.43910  0.09170  0.90830  Biso   1.000  H
  H409     1.0000 0.43540  0.43540  0.12960  Biso   1.000  H
  H410     1.0000 0.43540  0.43540  0.99960  Biso   1.000  H
  H411     1.0000 0.12960  0.99960  0.43540  Biso   1.000  H
  H412     1.0000 0.99960  0.12960  0.43540  Biso   1.000  H
  H413     1.0000 0.43540  0.12960  0.99960  Biso   1.000  H
  H414     1.0000 0.43540  0.99960  0.12960  Biso   1.000  H
  H415     1.0000 0.12960  0.43540  0.43540  Biso   1.000  H
  H416     1.0000 0.99960  0.43540  0.43540  Biso   1.000  H
  H417     1.0000 0.43540  0.99960  0.43540  Biso   1.000  H
  H418     1.0000 0.43540  0.12960  0.43540  Biso   1.000  H
  H419     1.0000 0.12960  0.43540  0.99960  Biso   1.000  H
  H420     1.0000 0.99960  0.43540  0.12960  Biso   1.000  H
  H421     1.0000 0.56460  0.56460  0.87040  Biso   1.000  H
  H422     1.0000 0.56460  0.56460  0.00040  Biso   1.000  H
  H423     1.0000 0.00040  0.87040  0.56460  Biso   1.000  H
  H424     1.0000 0.87040  0.00040  0.56460  Biso   1.000  H
  H425     1.0000 0.87040  0.56460  0.00040  Biso   1.000  H
  H426     1.0000 0.00040  0.56460  0.87040  Biso   1.000  H
  H427     1.0000 0.56460  0.87040  0.56460  Biso   1.000  H
  H428     1.0000 0.56460  0.00040  0.56460  Biso   1.000  H
  H429     1.0000 0.00040  0.56460  0.56460  Biso   1.000  H
  H430     1.0000 0.87040  0.56460  0.56460  Biso   1.000  H
  H431     1.0000 0.56460  0.87040  0.00040  Biso   1.000  H
  H432     1.0000 0.56460  0.00040  0.87040  Biso   1.000  H
  H433     1.0000 0.55390  0.34750  0.04930  Biso   1.000  H
  H434     1.0000 0.34750  0.55390  0.04930  Biso   1.000  H
  H435     1.0000 0.04930  0.04930  0.55390  Biso   1.000  H
  H436     1.0000 0.04930  0.04930  0.34750  Biso   1.000  H
  H437     1.0000 0.55390  0.04930  0.04930  Biso   1.000  H
  H438     1.0000 0.34750  0.04930  0.04930  Biso   1.000  H
  H439     1.0000 0.04930  0.55390  0.34750  Biso   1.000  H
  H440     1.0000 0.04930  0.34750  0.55390  Biso   1.000  H
  H441     1.0000 0.55390  0.04930  0.34750  Biso   1.000  H
  H442     1.0000 0.34750  0.04930  0.55390  Biso   1.000  H
  H443     1.0000 0.04930  0.34750  0.04930  Biso   1.000  H
  H444     1.0000 0.04930  0.55390  0.04930  Biso   1.000  H
  H445     1.0000 0.65250  0.44610  0.95070  Biso   1.000  H
  H446     1.0000 0.44610  0.65250  0.95070  Biso   1.000  H
  H447     1.0000 0.95070  0.95070  0.44610  Biso   1.000  H
  H448     1.0000 0.95070  0.95070  0.65250  Biso   1.000  H
  H449     1.0000 0.95070  0.44610  0.95070  Biso   1.000  H
  H450     1.0000 0.95070  0.65250  0.95070  Biso   1.000  H
  H451     1.0000 0.44610  0.95070  0.65250  Biso   1.000  H
  H452     1.0000 0.65250  0.95070  0.44610  Biso   1.000  H
  H453     1.0000 0.95070  0.44610  0.65250  Biso   1.000  H
  H454     1.0000 0.95070  0.65250  0.44610  Biso   1.000  H
  H455     1.0000 0.65250  0.95070  0.95070  Biso   1.000  H
  H456     1.0000 0.44610  0.95070  0.95070  Biso   1.000  H
  H457     1.0000 0.50640  0.24060  0.24060  Biso   1.000  H
  H458     1.0000 0.24060  0.50640  0.01240  Biso   1.000  H
  H459     1.0000 0.24060  0.01240  0.50640  Biso   1.000  H
  H460     1.0000 0.01240  0.24060  0.24060  Biso   1.000  H
  H461     1.0000 0.50640  0.24060  0.01240  Biso   1.000  H
  H462     1.0000 0.24060  0.01240  0.24060  Biso   1.000  H
  H463     1.0000 0.24060  0.50640  0.24060  Biso   1.000  H
  H464     1.0000 0.01240  0.24060  0.50640  Biso   1.000  H
  H465     1.0000 0.50640  0.01240  0.24060  Biso   1.000  H
  H466     1.0000 0.24060  0.24060  0.50640  Biso   1.000  H
  H467     1.0000 0.24060  0.24060  0.01240  Biso   1.000  H
  H468     1.0000 0.01240  0.50640  0.24060  Biso   1.000  H
  H469     1.0000 0.75940  0.49360  0.75940  Biso   1.000  H
  H470     1.0000 0.49360  0.75940  0.98760  Biso   1.000  H
  H471     1.0000 0.98760  0.75940  0.49360  Biso   1.000  H
  H472     1.0000 0.75940  0.98760  0.75940  Biso   1.000  H
  H473     1.0000 0.75940  0.49360  0.98760  Biso   1.000  H
  H474     1.0000 0.98760  0.75940  0.75940  Biso   1.000  H
  H475     1.0000 0.49360  0.75940  0.75940  Biso   1.000  H
  H476     1.0000 0.75940  0.98760  0.49360  Biso   1.000  H
  H477     1.0000 0.98760  0.49360  0.75940  Biso   1.000  H
  H478     1.0000 0.75940  0.75940  0.49360  Biso   1.000  H
  H479     1.0000 0.75940  0.75940  0.98760  Biso   1.000  H
  H480     1.0000 0.49360  0.98760  0.75940  Biso   1.000  H
  C1       1.0000 0.46390  0.31530  0.13230  Biso   1.000  C
  C2       1.0000 0.42900  0.30160  0.17740  Biso   1.000  C
  C3       1.0000 0.39340  0.28960  0.18100  Biso   1.000  C
  C4       1.0000 0.63520  0.33420  0.08760  Biso   1.000  C
  C5       1.0000 0.65920  0.28440  0.09160  Biso   1.000  C
  C6       1.0000 0.70580  0.26640  0.06640  Biso   1.000  C
  C7       1.0000 0.45340  0.41080  0.22380  Biso   1.000  C
  C8       1.0000 0.47150  0.38690  0.26230  Biso   1.000  C
  C9       1.0000 0.44940  0.40500  0.30080  Biso   1.000  C
  C10      1.0000 0.58070  0.27570  0.23370  Biso   1.000  C
  C11      1.0000 0.61080  0.30300  0.21900  Biso   1.000  C
  C12      1.0000 0.63730  0.28990  0.24590  Biso   1.000  C
  C13      1.0000 0.31530  0.46390  0.08850  Biso   1.000  C
  C14      1.0000 0.30160  0.42900  0.09200  Biso   1.000  C
  C15      1.0000 0.28960  0.39340  0.13600  Biso   1.000  C
  C16      1.0000 0.33420  0.63520  0.94300  Biso   1.000  C
  C17      1.0000 0.28440  0.65920  0.96480  Biso   1.000  C
  C18      1.0000 0.26640  0.70580  0.96140  Biso   1.000  C
  C19      1.0000 0.41080  0.45340  0.91200  Biso   1.000  C
  C20      1.0000 0.38690  0.47150  0.87930  Biso   1.000  C
  C21      1.0000 0.40500  0.44940  0.84480  Biso   1.000  C
  C22      1.0000 0.27570  0.58070  0.90990  Biso   1.000  C
  C23      1.0000 0.30300  0.61080  0.86720  Biso   1.000  C
  C24      1.0000 0.28990  0.63730  0.82690  Biso   1.000  C
  C25      1.0000 0.13230  0.08850  0.46390  Biso   1.000  C
  C26      1.0000 0.17740  0.09200  0.42900  Biso   1.000  C
  C27      1.0000 0.18100  0.13600  0.39340  Biso   1.000  C
  C28      1.0000 0.08760  0.94300  0.63520  Biso   1.000  C
  C29      1.0000 0.09160  0.96480  0.65920  Biso   1.000  C
  C30      1.0000 0.06640  0.96140  0.70580  Biso   1.000  C
  C31      1.0000 0.22380  0.91200  0.45340  Biso   1.000  C
  C32      1.0000 0.26230  0.87930  0.47150  Biso   1.000  C
  C33      1.0000 0.30080  0.84480  0.44940  Biso   1.000  C
  C34      1.0000 0.23370  0.90990  0.58070  Biso   1.000  C
  C35      1.0000 0.21900  0.86720  0.61080  Biso   1.000  C
  C36      1.0000 0.24590  0.82690  0.63730  Biso   1.000  C
  C37      1.0000 0.08850  0.13230  0.31530  Biso   1.000  C
  C38      1.0000 0.09200  0.17740  0.30160  Biso   1.000  C
  C39      1.0000 0.13600  0.18100  0.28960  Biso   1.000  C
  C40      1.0000 0.94300  0.08760  0.33420  Biso   1.000  C
  C41      1.0000 0.96480  0.09160  0.28440  Biso   1.000  C
  C42      1.0000 0.96140  0.06640  0.26640  Biso   1.000  C
  C43      1.0000 0.91200  0.22380  0.41080  Biso   1.000  C
  C44      1.0000 0.87930  0.26230  0.38690  Biso   1.000  C
  C45      1.0000 0.84480  0.30080  0.40500  Biso   1.000  C
  C46      1.0000 0.90990  0.23370  0.27570  Biso   1.000  C
  C47      1.0000 0.86720  0.21900  0.30300  Biso   1.000  C
  C48      1.0000 0.82690  0.24590  0.28990  Biso   1.000  C
  C49      1.0000 0.46390  0.13230  0.08850  Biso   1.000  C
  C50      1.0000 0.42900  0.17740  0.09200  Biso   1.000  C
  C51      1.0000 0.39340  0.18100  0.13600  Biso   1.000  C
  C52      1.0000 0.63520  0.08760  0.94300  Biso   1.000  C
  C53      1.0000 0.65920  0.09160  0.96480  Biso   1.000  C
  C54      1.0000 0.70580  0.06640  0.96140  Biso   1.000  C
  C55      1.0000 0.45340  0.22380  0.91200  Biso   1.000  C
  C56      1.0000 0.47150  0.26230  0.87930  Biso   1.000  C
  C57      1.0000 0.44940  0.30080  0.84480  Biso   1.000  C
  C58      1.0000 0.58070  0.23370  0.90990  Biso   1.000  C
  C59      1.0000 0.61080  0.21900  0.86720  Biso   1.000  C
  C60      1.0000 0.63730  0.24590  0.82690  Biso   1.000  C
  C61      1.0000 0.31530  0.08850  0.13230  Biso   1.000  C
  C62      1.0000 0.30160  0.09200  0.17740  Biso   1.000  C
  C63      1.0000 0.28960  0.13600  0.18100  Biso   1.000  C
  C64      1.0000 0.33420  0.94300  0.08760  Biso   1.000  C
  C65      1.0000 0.28440  0.96480  0.09160  Biso   1.000  C
  C66      1.0000 0.26640  0.96140  0.06640  Biso   1.000  C
  C67      1.0000 0.41080  0.91200  0.22380  Biso   1.000  C
  C68      1.0000 0.38690  0.87930  0.26230  Biso   1.000  C
  C69      1.0000 0.40500  0.84480  0.30080  Biso   1.000  C
  C70      1.0000 0.27570  0.90990  0.23370  Biso   1.000  C
  C71      1.0000 0.30300  0.86720  0.21900  Biso   1.000  C
  C72      1.0000 0.28990  0.82690  0.24590  Biso   1.000  C
  C73      1.0000 0.13230  0.46390  0.31530  Biso   1.000  C
  C74      1.0000 0.17740  0.42900  0.30160  Biso   1.000  C
  C75      1.0000 0.18100  0.39340  0.28960  Biso   1.000  C
  C76      1.0000 0.08760  0.63520  0.33420  Biso   1.000  C
  C77      1.0000 0.09160  0.65920  0.28440  Biso   1.000  C
  C78      1.0000 0.06640  0.70580  0.26640  Biso   1.000  C
  C79      1.0000 0.22380  0.45340  0.41080  Biso   1.000  C
  C80      1.0000 0.26230  0.47150  0.38690  Biso   1.000  C
  C81      1.0000 0.30080  0.44940  0.40500  Biso   1.000  C
  C82      1.0000 0.23370  0.58070  0.27570  Biso   1.000  C
  C83      1.0000 0.21900  0.61080  0.30300  Biso   1.000  C
  C84      1.0000 0.24590  0.63730  0.28990  Biso   1.000  C
  C85      1.0000 0.08850  0.31530  0.46390  Biso   1.000  C
  C86      1.0000 0.09200  0.30160  0.42900  Biso   1.000  C
  C87      1.0000 0.13600  0.28960  0.39340  Biso   1.000  C
  C88      1.0000 0.94300  0.33420  0.63520  Biso   1.000  C
  C89      1.0000 0.96480  0.28440  0.65920  Biso   1.000  C
  C90      1.0000 0.96140  0.26640  0.70580  Biso   1.000  C
  C91      1.0000 0.91200  0.41080  0.45340  Biso   1.000  C
  C92      1.0000 0.87930  0.38690  0.47150  Biso   1.000  C
  C93      1.0000 0.84480  0.40500  0.44940  Biso   1.000  C
  C94      1.0000 0.90990  0.27570  0.58070  Biso   1.000  C
  C95      1.0000 0.86720  0.30300  0.61080  Biso   1.000  C
  C96      1.0000 0.82690  0.28990  0.63730  Biso   1.000  C
  C97      1.0000 0.46390  0.08850  0.31530  Biso   1.000  C
  C98      1.0000 0.42900  0.09200  0.30160  Biso   1.000  C
  C99      1.0000 0.39340  0.13600  0.28960  Biso   1.000  C
  C100     1.0000 0.63520  0.94300  0.33420  Biso   1.000  C
  C101     1.0000 0.65920  0.96480  0.28440  Biso   1.000  C
  C102     1.0000 0.70580  0.96140  0.26640  Biso   1.000  C
  C103     1.0000 0.45340  0.91200  0.41080  Biso   1.000  C
  C104     1.0000 0.47150  0.87930  0.38690  Biso   1.000  C
  C105     1.0000 0.44940  0.84480  0.40500  Biso   1.000  C
  C106     1.0000 0.58070  0.90990  0.27570  Biso   1.000  C
  C107     1.0000 0.61080  0.86720  0.30300  Biso   1.000  C
  C108     1.0000 0.63730  0.82690  0.28990  Biso   1.000  C
  C109     1.0000 0.31530  0.13230  0.46390  Biso   1.000  C
  C110     1.0000 0.30160  0.17740  0.42900  Biso   1.000  C
  C111     1.0000 0.28960  0.18100  0.39340  Biso   1.000  C
  C112     1.0000 0.33420  0.08760  0.63520  Biso   1.000  C
  C113     1.0000 0.28440  0.09160  0.65920  Biso   1.000  C
  C114     1.0000 0.26640  0.06640  0.70580  Biso   1.000  C
  C115     1.0000 0.41080  0.22380  0.45340  Biso   1.000  C
  C116     1.0000 0.38690  0.26230  0.47150  Biso   1.000  C
  C117     1.0000 0.40500  0.30080  0.44940  Biso   1.000  C
  C118     1.0000 0.27570  0.23370  0.58070  Biso   1.000  C
  C119     1.0000 0.30300  0.21900  0.61080  Biso   1.000  C
  C120     1.0000 0.28990  0.24590  0.63730  Biso   1.000  C
  C121     1.0000 0.13230  0.31530  0.08850  Biso   1.000  C
  C122     1.0000 0.17740  0.30160  0.09200  Biso   1.000  C
  C123     1.0000 0.18100  0.28960  0.13600  Biso   1.000  C
  C124     1.0000 0.08760  0.33420  0.94300  Biso   1.000  C
  C125     1.0000 0.09160  0.28440  0.96480  Biso   1.000  C
  C126     1.0000 0.06640  0.26640  0.96140  Biso   1.000  C
  C127     1.0000 0.22380  0.41080  0.91200  Biso   1.000  C
  C128     1.0000 0.26230  0.38690  0.87930  Biso   1.000  C
  C129     1.0000 0.30080  0.40500  0.84480  Biso   1.000  C
  C130     1.0000 0.23370  0.27570  0.90990  Biso   1.000  C
  C131     1.0000 0.21900  0.30300  0.86720  Biso   1.000  C
  C132     1.0000 0.24590  0.28990  0.82690  Biso   1.000  C
  C133     1.0000 0.08850  0.46390  0.13230  Biso   1.000  C
  C134     1.0000 0.09200  0.42900  0.17740  Biso   1.000  C
  C135     1.0000 0.13600  0.39340  0.18100  Biso   1.000  C
  C136     1.0000 0.94300  0.63520  0.08760  Biso   1.000  C
  C137     1.0000 0.96480  0.65920  0.09160  Biso   1.000  C
  C138     1.0000 0.96140  0.70580  0.06640  Biso   1.000  C
  C139     1.0000 0.91200  0.45340  0.22380  Biso   1.000  C
  C140     1.0000 0.87930  0.47150  0.26230  Biso   1.000  C
  C141     1.0000 0.84480  0.44940  0.30080  Biso   1.000  C
  C142     1.0000 0.90990  0.58070  0.23370  Biso   1.000  C
  C143     1.0000 0.86720  0.61080  0.21900  Biso   1.000  C
  C144     1.0000 0.82690  0.63730  0.24590  Biso   1.000  C
  C145     1.0000 0.68470  0.53610  0.86770  Biso   1.000  C
  C146     1.0000 0.69840  0.57100  0.82260  Biso   1.000  C
  C147     1.0000 0.71040  0.60660  0.81900  Biso   1.000  C
  C148     1.0000 0.66580  0.36480  0.91240  Biso   1.000  C
  C149     1.0000 0.71560  0.34080  0.90840  Biso   1.000  C
  C150     1.0000 0.73360  0.29420  0.93360  Biso   1.000  C
  C151     1.0000 0.58920  0.54660  0.77620  Biso   1.000  C
  C152     1.0000 0.61310  0.52850  0.73770  Biso   1.000  C
  C153     1.0000 0.59500  0.55060  0.69920  Biso   1.000  C
  C154     1.0000 0.72430  0.41930  0.76630  Biso   1.000  C
  C155     1.0000 0.69700  0.38920  0.78100  Biso   1.000  C
  C156     1.0000 0.71010  0.36270  0.75410  Biso   1.000  C
  C157     1.0000 0.53610  0.68470  0.91150  Biso   1.000  C
  C158     1.0000 0.57100  0.69840  0.90800  Biso   1.000  C
  C159     1.0000 0.60660  0.71040  0.86400  Biso   1.000  C
  C160     1.0000 0.36480  0.66580  0.05700  Biso   1.000  C
  C161     1.0000 0.34080  0.71560  0.03520  Biso   1.000  C
  C162     1.0000 0.29420  0.73360  0.03860  Biso   1.000  C
  C163     1.0000 0.54660  0.58920  0.08800  Biso   1.000  C
  C164     1.0000 0.52850  0.61310  0.12070  Biso   1.000  C
  C165     1.0000 0.55060  0.59500  0.15520  Biso   1.000  C
  C166     1.0000 0.41930  0.72430  0.09010  Biso   1.000  C
  C167     1.0000 0.38920  0.69700  0.13280  Biso   1.000  C
  C168     1.0000 0.36270  0.71010  0.17310  Biso   1.000  C
  C169     1.0000 0.91150  0.86770  0.53610  Biso   1.000  C
  C170     1.0000 0.90800  0.82260  0.57100  Biso   1.000  C
  C171     1.0000 0.86400  0.81900  0.60660  Biso   1.000  C
  C172     1.0000 0.05700  0.91240  0.36480  Biso   1.000  C
  C173     1.0000 0.03520  0.90840  0.34080  Biso   1.000  C
  C174     1.0000 0.03860  0.93360  0.29420  Biso   1.000  C
  C175     1.0000 0.08800  0.77620  0.54660  Biso   1.000  C
  C176     1.0000 0.12070  0.73770  0.52850  Biso   1.000  C
  C177     1.0000 0.15520  0.69920  0.55060  Biso   1.000  C
  C178     1.0000 0.09010  0.76630  0.41930  Biso   1.000  C
  C179     1.0000 0.13280  0.78100  0.38920  Biso   1.000  C
  C180     1.0000 0.17310  0.75410  0.36270  Biso   1.000  C
  C181     1.0000 0.86770  0.91150  0.68470  Biso   1.000  C
  C182     1.0000 0.82260  0.90800  0.69840  Biso   1.000  C
  C183     1.0000 0.81900  0.86400  0.71040  Biso   1.000  C
  C184     1.0000 0.91240  0.05700  0.66580  Biso   1.000  C
  C185     1.0000 0.90840  0.03520  0.71560  Biso   1.000  C
  C186     1.0000 0.93360  0.03860  0.73360  Biso   1.000  C
  C187     1.0000 0.77620  0.08800  0.58920  Biso   1.000  C
  C188     1.0000 0.73770  0.12070  0.61310  Biso   1.000  C
  C189     1.0000 0.69920  0.15520  0.59500  Biso   1.000  C
  C190     1.0000 0.76630  0.09010  0.72430  Biso   1.000  C
  C191     1.0000 0.78100  0.13280  0.69700  Biso   1.000  C
  C192     1.0000 0.75410  0.17310  0.71010  Biso   1.000  C
  C193     1.0000 0.86770  0.53610  0.91150  Biso   1.000  C
  C194     1.0000 0.82260  0.57100  0.90800  Biso   1.000  C
  C195     1.0000 0.81900  0.60660  0.86400  Biso   1.000  C
  C196     1.0000 0.91240  0.36480  0.05700  Biso   1.000  C
  C197     1.0000 0.90840  0.34080  0.03520  Biso   1.000  C
  C198     1.0000 0.93360  0.29420  0.03860  Biso   1.000  C
  C199     1.0000 0.77620  0.54660  0.08800  Biso   1.000  C
  C200     1.0000 0.73770  0.52850  0.12070  Biso   1.000  C
  C201     1.0000 0.69920  0.55060  0.15520  Biso   1.000  C
  C202     1.0000 0.76630  0.41930  0.09010  Biso   1.000  C
  C203     1.0000 0.78100  0.38920  0.13280  Biso   1.000  C
  C204     1.0000 0.75410  0.36270  0.17310  Biso   1.000  C
  C205     1.0000 0.91150  0.68470  0.86770  Biso   1.000  C
  C206     1.0000 0.90800  0.69840  0.82260  Biso   1.000  C
  C207     1.0000 0.86400  0.71040  0.81900  Biso   1.000  C
  C208     1.0000 0.05700  0.66580  0.91240  Biso   1.000  C
  C209     1.0000 0.03520  0.71560  0.90840  Biso   1.000  C
  C210     1.0000 0.03860  0.73360  0.93360  Biso   1.000  C
  C211     1.0000 0.08800  0.58920  0.77620  Biso   1.000  C
  C212     1.0000 0.12070  0.61310  0.73770  Biso   1.000  C
  C213     1.0000 0.15520  0.59500  0.69920  Biso   1.000  C
  C214     1.0000 0.09010  0.72430  0.76630  Biso   1.000  C
  C215     1.0000 0.13280  0.69700  0.78100  Biso   1.000  C
  C216     1.0000 0.17310  0.71010  0.75410  Biso   1.000  C
  C217     1.0000 0.53610  0.86770  0.68470  Biso   1.000  C
  C218     1.0000 0.57100  0.82260  0.69840  Biso   1.000  C
  C219     1.0000 0.60660  0.81900  0.71040  Biso   1.000  C
  C220     1.0000 0.36480  0.91240  0.66580  Biso   1.000  C
  C221     1.0000 0.34080  0.90840  0.71560  Biso   1.000  C
  C222     1.0000 0.29420  0.93360  0.73360  Biso   1.000  C
  C223     1.0000 0.54660  0.77620  0.58920  Biso   1.000  C
  C224     1.0000 0.52850  0.73770  0.61310  Biso   1.000  C
  C225     1.0000 0.55060  0.69920  0.59500  Biso   1.000  C
  C226     1.0000 0.41930  0.76630  0.72430  Biso   1.000  C
  C227     1.0000 0.38920  0.78100  0.69700  Biso   1.000  C
  C228     1.0000 0.36270  0.75410  0.71010  Biso   1.000  C
  C229     1.0000 0.68470  0.91150  0.53610  Biso   1.000  C
  C230     1.0000 0.69840  0.90800  0.57100  Biso   1.000  C
  C231     1.0000 0.71040  0.86400  0.60660  Biso   1.000  C
  C232     1.0000 0.66580  0.05700  0.36480  Biso   1.000  C
  C233     1.0000 0.71560  0.03520  0.34080  Biso   1.000  C
  C234     1.0000 0.73360  0.03860  0.29420  Biso   1.000  C
  C235     1.0000 0.58920  0.08800  0.54660  Biso   1.000  C
  C236     1.0000 0.61310  0.12070  0.52850  Biso   1.000  C
  C237     1.0000 0.59500  0.15520  0.55060  Biso   1.000  C
  C238     1.0000 0.72430  0.09010  0.41930  Biso   1.000  C
  C239     1.0000 0.69700  0.13280  0.38920  Biso   1.000  C
  C240     1.0000 0.71010  0.17310  0.36270  Biso   1.000  C
  C241     1.0000 0.91150  0.53610  0.68470  Biso   1.000  C
  C242     1.0000 0.90800  0.57100  0.69840  Biso   1.000  C
  C243     1.0000 0.86400  0.60660  0.71040  Biso   1.000  C
  C244     1.0000 0.05700  0.36480  0.66580  Biso   1.000  C
  C245     1.0000 0.03520  0.34080  0.71560  Biso   1.000  C
  C246     1.0000 0.03860  0.29420  0.73360  Biso   1.000  C
  C247     1.0000 0.08800  0.54660  0.58920  Biso   1.000  C
  C248     1.0000 0.12070  0.52850  0.61310  Biso   1.000  C
  C249     1.0000 0.15520  0.55060  0.59500  Biso   1.000  C
  C250     1.0000 0.09010  0.41930  0.72430  Biso   1.000  C
  C251     1.0000 0.13280  0.38920  0.69700  Biso   1.000  C
  C252     1.0000 0.17310  0.36270  0.71010  Biso   1.000  C
  C253     1.0000 0.86770  0.68470  0.53610  Biso   1.000  C
  C254     1.0000 0.82260  0.69840  0.57100  Biso   1.000  C
  C255     1.0000 0.81900  0.71040  0.60660  Biso   1.000  C
  C256     1.0000 0.91240  0.66580  0.36480  Biso   1.000  C
  C257     1.0000 0.90840  0.71560  0.34080  Biso   1.000  C
  C258     1.0000 0.93360  0.73360  0.29420  Biso   1.000  C
  C259     1.0000 0.77620  0.58920  0.54660  Biso   1.000  C
  C260     1.0000 0.73770  0.61310  0.52850  Biso   1.000  C
  C261     1.0000 0.69920  0.59500  0.55060  Biso   1.000  C
  C262     1.0000 0.76630  0.72430  0.41930  Biso   1.000  C
  C263     1.0000 0.78100  0.69700  0.38920  Biso   1.000  C
  C264     1.0000 0.75410  0.71010  0.36270  Biso   1.000  C
  C265     1.0000 0.68470  0.86770  0.91150  Biso   1.000  C
  C266     1.0000 0.69840  0.82260  0.90800  Biso   1.000  C
  C267     1.0000 0.71040  0.81900  0.86400  Biso   1.000  C
  C268     1.0000 0.66580  0.91240  0.05700  Biso   1.000  C
  C269     1.0000 0.71560  0.90840  0.03520  Biso   1.000  C
  C270     1.0000 0.73360  0.93360  0.03860  Biso   1.000  C
  C271     1.0000 0.58920  0.77620  0.08800  Biso   1.000  C
  C272     1.0000 0.61310  0.73770  0.12070  Biso   1.000  C
  C273     1.0000 0.59500  0.69920  0.15520  Biso   1.000  C
  C274     1.0000 0.72430  0.76630  0.09010  Biso   1.000  C
  C275     1.0000 0.69700  0.78100  0.13280  Biso   1.000  C
  C276     1.0000 0.71010  0.75410  0.17310  Biso   1.000  C
  C277     1.0000 0.53610  0.91150  0.86770  Biso   1.000  C
  C278     1.0000 0.57100  0.90800  0.82260  Biso   1.000  C
  C279     1.0000 0.60660  0.86400  0.81900  Biso   1.000  C
  C280     1.0000 0.36480  0.05700  0.91240  Biso   1.000  C
  C281     1.0000 0.34080  0.03520  0.90840  Biso   1.000  C
  C282     1.0000 0.29420  0.03860  0.93360  Biso   1.000  C
  C283     1.0000 0.54660  0.08800  0.77620  Biso   1.000  C
  C284     1.0000 0.52850  0.12070  0.73770  Biso   1.000  C
  C285     1.0000 0.55060  0.15520  0.69920  Biso   1.000  C
  C286     1.0000 0.41930  0.09010  0.76630  Biso   1.000  C
  C287     1.0000 0.38920  0.13280  0.78100  Biso   1.000  C
  C288     1.0000 0.36270  0.17310  0.75410  Biso   1.000  C
  C289     1.0000 0.53610  0.68470  0.86770  Biso   1.000  C
  C290     1.0000 0.57100  0.69840  0.82260  Biso   1.000  C
  C291     1.0000 0.60660  0.71040  0.81900  Biso   1.000  C
  C292     1.0000 0.36480  0.66580  0.91240  Biso   1.000  C
  C293     1.0000 0.34080  0.71560  0.90840  Biso   1.000  C
  C294     1.0000 0.29420  0.73360  0.93360  Biso   1.000  C
  C295     1.0000 0.54660  0.58920  0.77620  Biso   1.000  C
  C296     1.0000 0.52850  0.61310  0.73770  Biso   1.000  C
  C297     1.0000 0.55060  0.59500  0.69920  Biso   1.000  C
  C298     1.0000 0.41930  0.72430  0.76630  Biso   1.000  C
  C299     1.0000 0.38920  0.69700  0.78100  Biso   1.000  C
  C300     1.0000 0.36270  0.71010  0.75410  Biso   1.000  C
  C301     1.0000 0.68470  0.53610  0.91150  Biso   1.000  C
  C302     1.0000 0.69840  0.57100  0.90800  Biso   1.000  C
  C303     1.0000 0.71040  0.60660  0.86400  Biso   1.000  C
  C304     1.0000 0.66580  0.36480  0.05700  Biso   1.000  C
  C305     1.0000 0.71560  0.34080  0.03520  Biso   1.000  C
  C306     1.0000 0.73360  0.29420  0.03860  Biso   1.000  C
  C307     1.0000 0.58920  0.54660  0.08800  Biso   1.000  C
  C308     1.0000 0.61310  0.52850  0.12070  Biso   1.000  C
  C309     1.0000 0.59500  0.55060  0.15520  Biso   1.000  C
  C310     1.0000 0.72430  0.41930  0.09010  Biso   1.000  C
  C311     1.0000 0.69700  0.38920  0.13280  Biso   1.000  C
  C312     1.0000 0.71010  0.36270  0.17310  Biso   1.000  C
  C313     1.0000 0.86770  0.91150  0.53610  Biso   1.000  C
  C314     1.0000 0.82260  0.90800  0.57100  Biso   1.000  C
  C315     1.0000 0.81900  0.86400  0.60660  Biso   1.000  C
  C316     1.0000 0.91240  0.05700  0.36480  Biso   1.000  C
  C317     1.0000 0.90840  0.03520  0.34080  Biso   1.000  C
  C318     1.0000 0.93360  0.03860  0.29420  Biso   1.000  C
  C319     1.0000 0.77620  0.08800  0.54660  Biso   1.000  C
  C320     1.0000 0.73770  0.12070  0.52850  Biso   1.000  C
  C321     1.0000 0.69920  0.15520  0.55060  Biso   1.000  C
  C322     1.0000 0.76630  0.09010  0.41930  Biso   1.000  C
  C323     1.0000 0.78100  0.13280  0.38920  Biso   1.000  C
  C324     1.0000 0.75410  0.17310  0.36270  Biso   1.000  C
  C325     1.0000 0.91150  0.86770  0.68470  Biso   1.000  C
  C326     1.0000 0.90800  0.82260  0.69840  Biso   1.000  C
  C327     1.0000 0.86400  0.81900  0.71040  Biso   1.000  C
  C328     1.0000 0.05700  0.91240  0.66580  Biso   1.000  C
  C329     1.0000 0.03520  0.90840  0.71560  Biso   1.000  C
  C330     1.0000 0.03860  0.93360  0.73360  Biso   1.000  C
  C331     1.0000 0.08800  0.77620  0.58920  Biso   1.000  C
  C332     1.0000 0.12070  0.73770  0.61310  Biso   1.000  C
  C333     1.0000 0.15520  0.69920  0.59500  Biso   1.000  C
  C334     1.0000 0.09010  0.76630  0.72430  Biso   1.000  C
  C335     1.0000 0.13280  0.78100  0.69700  Biso   1.000  C
  C336     1.0000 0.17310  0.75410  0.71010  Biso   1.000  C
  C337     1.0000 0.53610  0.86770  0.91150  Biso   1.000  C
  C338     1.0000 0.57100  0.82260  0.90800  Biso   1.000  C
  C339     1.0000 0.60660  0.81900  0.86400  Biso   1.000  C
  C340     1.0000 0.36480  0.91240  0.05700  Biso   1.000  C
  C341     1.0000 0.34080  0.90840  0.03520  Biso   1.000  C
  C342     1.0000 0.29420  0.93360  0.03860  Biso   1.000  C
  C343     1.0000 0.54660  0.77620  0.08800  Biso   1.000  C
  C344     1.0000 0.52850  0.73770  0.12070  Biso   1.000  C
  C345     1.0000 0.55060  0.69920  0.15520  Biso   1.000  C
  C346     1.0000 0.41930  0.76630  0.09010  Biso   1.000  C
  C347     1.0000 0.38920  0.78100  0.13280  Biso   1.000  C
  C348     1.0000 0.36270  0.75410  0.17310  Biso   1.000  C
  C349     1.0000 0.68470  0.91150  0.86770  Biso   1.000  C
  C350     1.0000 0.69840  0.90800  0.82260  Biso   1.000  C
  C351     1.0000 0.71040  0.86400  0.81900  Biso   1.000  C
  C352     1.0000 0.66580  0.05700  0.91240  Biso   1.000  C
  C353     1.0000 0.71560  0.03520  0.90840  Biso   1.000  C
  C354     1.0000 0.73360  0.03860  0.93360  Biso   1.000  C
  C355     1.0000 0.58920  0.08800  0.77620  Biso   1.000  C
  C356     1.0000 0.61310  0.12070  0.73770  Biso   1.000  C
  C357     1.0000 0.59500  0.15520  0.69920  Biso   1.000  C
  C358     1.0000 0.72430  0.09010  0.76630  Biso   1.000  C
  C359     1.0000 0.69700  0.13280  0.78100  Biso   1.000  C
  C360     1.0000 0.71010  0.17310  0.75410  Biso   1.000  C
  C361     1.0000 0.86770  0.53610  0.68470  Biso   1.000  C
  C362     1.0000 0.82260  0.57100  0.69840  Biso   1.000  C
  C363     1.0000 0.81900  0.60660  0.71040  Biso   1.000  C
  C364     1.0000 0.91240  0.36480  0.66580  Biso   1.000  C
  C365     1.0000 0.90840  0.34080  0.71560  Biso   1.000  C
  C366     1.0000 0.93360  0.29420  0.73360  Biso   1.000  C
  C367     1.0000 0.77620  0.54660  0.58920  Biso   1.000  C
  C368     1.0000 0.73770  0.52850  0.61310  Biso   1.000  C
  C369     1.0000 0.69920  0.55060  0.59500  Biso   1.000  C
  C370     1.0000 0.76630  0.41930  0.72430  Biso   1.000  C
  C371     1.0000 0.78100  0.38920  0.69700  Biso   1.000  C
  C372     1.0000 0.75410  0.36270  0.71010  Biso   1.000  C
  C373     1.0000 0.91150  0.68470  0.53610  Biso   1.000  C
  C374     1.0000 0.90800  0.69840  0.57100  Biso   1.000  C
  C375     1.0000 0.86400  0.71040  0.60660  Biso   1.000  C
  C376     1.0000 0.05700  0.66580  0.36480  Biso   1.000  C
  C377     1.0000 0.03520  0.71560  0.34080  Biso   1.000  C
  C378     1.0000 0.03860  0.73360  0.29420  Biso   1.000  C
  C379     1.0000 0.08800  0.58920  0.54660  Biso   1.000  C
  C380     1.0000 0.12070  0.61310  0.52850  Biso   1.000  C
  C381     1.0000 0.15520  0.59500  0.55060  Biso   1.000  C
  C382     1.0000 0.09010  0.72430  0.41930  Biso   1.000  C
  C383     1.0000 0.13280  0.69700  0.38920  Biso   1.000  C
  C384     1.0000 0.17310  0.71010  0.36270  Biso   1.000  C
  C385     1.0000 0.53610  0.91150  0.68470  Biso   1.000  C
  C386     1.0000 0.57100  0.90800  0.69840  Biso   1.000  C
  C387     1.0000 0.60660  0.86400  0.71040  Biso   1.000  C
  C388     1.0000 0.36480  0.05700  0.66580  Biso   1.000  C
  C389     1.0000 0.34080  0.03520  0.71560  Biso   1.000  C
  C390     1.0000 0.29420  0.03860  0.73360  Biso   1.000  C
  C391     1.0000 0.54660  0.08800  0.58920  Biso   1.000  C
  C392     1.0000 0.52850  0.12070  0.61310  Biso   1.000  C
  C393     1.0000 0.55060  0.15520  0.59500  Biso   1.000  C
  C394     1.0000 0.41930  0.09010  0.72430  Biso   1.000  C
  C395     1.0000 0.38920  0.13280  0.69700  Biso   1.000  C
  C396     1.0000 0.36270  0.17310  0.71010  Biso   1.000  C
  C397     1.0000 0.68470  0.86770  0.53610  Biso   1.000  C
  C398     1.0000 0.69840  0.82260  0.57100  Biso   1.000  C
  C399     1.0000 0.71040  0.81900  0.60660  Biso   1.000  C
  C400     1.0000 0.66580  0.91240  0.36480  Biso   1.000  C
  C401     1.0000 0.71560  0.90840  0.34080  Biso   1.000  C
  C402     1.0000 0.73360  0.93360  0.29420  Biso   1.000  C
  C403     1.0000 0.58920  0.77620  0.54660  Biso   1.000  C
  C404     1.0000 0.61310  0.73770  0.52850  Biso   1.000  C
  C405     1.0000 0.59500  0.69920  0.55060  Biso   1.000  C
  C406     1.0000 0.72430  0.76630  0.41930  Biso   1.000  C
  C407     1.0000 0.69700  0.78100  0.38920  Biso   1.000  C
  C408     1.0000 0.71010  0.75410  0.36270  Biso   1.000  C
  C409     1.0000 0.86770  0.68470  0.91150  Biso   1.000  C
  C410     1.0000 0.82260  0.69840  0.90800  Biso   1.000  C
  C411     1.0000 0.81900  0.71040  0.86400  Biso   1.000  C
  C412     1.0000 0.91240  0.66580  0.05700  Biso   1.000  C
  C413     1.0000 0.90840  0.71560  0.03520  Biso   1.000  C
  C414     1.0000 0.93360  0.73360  0.03860  Biso   1.000  C
  C415     1.0000 0.77620  0.58920  0.08800  Biso   1.000  C
  C416     1.0000 0.73770  0.61310  0.12070  Biso   1.000  C
  C417     1.0000 0.69920  0.59500  0.15520  Biso   1.000  C
  C418     1.0000 0.76630  0.72430  0.09010  Biso   1.000  C
  C419     1.0000 0.78100  0.69700  0.13280  Biso   1.000  C
  C420     1.0000 0.75410  0.71010  0.17310  Biso   1.000  C
  C421     1.0000 0.91150  0.53610  0.86770  Biso   1.000  C
  C422     1.0000 0.90800  0.57100  0.82260  Biso   1.000  C
  C423     1.0000 0.86400  0.60660  0.81900  Biso   1.000  C
  C424     1.0000 0.05700  0.36480  0.91240  Biso   1.000  C
  C425     1.0000 0.03520  0.34080  0.90840  Biso   1.000  C
  C426     1.0000 0.03860  0.29420  0.93360  Biso   1.000  C
  C427     1.0000 0.08800  0.54660  0.77620  Biso   1.000  C
  C428     1.0000 0.12070  0.52850  0.73770  Biso   1.000  C
  C429     1.0000 0.15520  0.55060  0.69920  Biso   1.000  C
  C430     1.0000 0.09010  0.41930  0.76630  Biso   1.000  C
  C431     1.0000 0.13280  0.38920  0.78100  Biso   1.000  C
  C432     1.0000 0.17310  0.36270  0.75410  Biso   1.000  C
  C433     1.0000 0.31530  0.46390  0.13230  Biso   1.000  C
  C434     1.0000 0.30160  0.42900  0.17740  Biso   1.000  C
  C435     1.0000 0.28960  0.39340  0.18100  Biso   1.000  C
  C436     1.0000 0.33420  0.63520  0.08760  Biso   1.000  C
  C437     1.0000 0.28440  0.65920  0.09160  Biso   1.000  C
  C438     1.0000 0.26640  0.70580  0.06640  Biso   1.000  C
  C439     1.0000 0.41080  0.45340  0.22380  Biso   1.000  C
  C440     1.0000 0.38690  0.47150  0.26230  Biso   1.000  C
  C441     1.0000 0.40500  0.44940  0.30080  Biso   1.000  C
  C442     1.0000 0.27570  0.58070  0.23370  Biso   1.000  C
  C443     1.0000 0.30300  0.61080  0.21900  Biso   1.000  C
  C444     1.0000 0.28990  0.63730  0.24590  Biso   1.000  C
  C445     1.0000 0.46390  0.31530  0.08850  Biso   1.000  C
  C446     1.0000 0.42900  0.30160  0.09200  Biso   1.000  C
  C447     1.0000 0.39340  0.28960  0.13600  Biso   1.000  C
  C448     1.0000 0.63520  0.33420  0.94300  Biso   1.000  C
  C449     1.0000 0.65920  0.28440  0.96480  Biso   1.000  C
  C450     1.0000 0.70580  0.26640  0.96140  Biso   1.000  C
  C451     1.0000 0.45340  0.41080  0.91200  Biso   1.000  C
  C452     1.0000 0.47150  0.38690  0.87930  Biso   1.000  C
  C453     1.0000 0.44940  0.40500  0.84480  Biso   1.000  C
  C454     1.0000 0.58070  0.27570  0.90990  Biso   1.000  C
  C455     1.0000 0.61080  0.30300  0.86720  Biso   1.000  C
  C456     1.0000 0.63730  0.28990  0.82690  Biso   1.000  C
  C457     1.0000 0.08850  0.13230  0.46390  Biso   1.000  C
  C458     1.0000 0.09200  0.17740  0.42900  Biso   1.000  C
  C459     1.0000 0.13600  0.18100  0.39340  Biso   1.000  C
  C460     1.0000 0.94300  0.08760  0.63520  Biso   1.000  C
  C461     1.0000 0.96480  0.09160  0.65920  Biso   1.000  C
  C462     1.0000 0.96140  0.06640  0.70580  Biso   1.000  C
  C463     1.0000 0.91200  0.22380  0.45340  Biso   1.000  C
  C464     1.0000 0.87930  0.26230  0.47150  Biso   1.000  C
  C465     1.0000 0.84480  0.30080  0.44940  Biso   1.000  C
  C466     1.0000 0.90990  0.23370  0.58070  Biso   1.000  C
  C467     1.0000 0.86720  0.21900  0.61080  Biso   1.000  C
  C468     1.0000 0.82690  0.24590  0.63730  Biso   1.000  C
  C469     1.0000 0.13230  0.08850  0.31530  Biso   1.000  C
  C470     1.0000 0.17740  0.09200  0.30160  Biso   1.000  C
  C471     1.0000 0.18100  0.13600  0.28960  Biso   1.000  C
  C472     1.0000 0.08760  0.94300  0.33420  Biso   1.000  C
  C473     1.0000 0.09160  0.96480  0.28440  Biso   1.000  C
  C474     1.0000 0.06640  0.96140  0.26640  Biso   1.000  C
  C475     1.0000 0.22380  0.91200  0.41080  Biso   1.000  C
  C476     1.0000 0.26230  0.87930  0.38690  Biso   1.000  C
  C477     1.0000 0.30080  0.84480  0.40500  Biso   1.000  C
  C478     1.0000 0.23370  0.90990  0.27570  Biso   1.000  C
  C479     1.0000 0.21900  0.86720  0.30300  Biso   1.000  C
  C480     1.0000 0.24590  0.82690  0.28990  Biso   1.000  C
  C481     1.0000 0.13230  0.46390  0.08850  Biso   1.000  C
  C482     1.0000 0.17740  0.42900  0.09200  Biso   1.000  C
  C483     1.0000 0.18100  0.39340  0.13600  Biso   1.000  C
  C484     1.0000 0.08760  0.63520  0.94300  Biso   1.000  C
  C485     1.0000 0.09160  0.65920  0.96480  Biso   1.000  C
  C486     1.0000 0.06640  0.70580  0.96140  Biso   1.000  C
  C487     1.0000 0.22380  0.45340  0.91200  Biso   1.000  C
  C488     1.0000 0.26230  0.47150  0.87930  Biso   1.000  C
  C489     1.0000 0.30080  0.44940  0.84480  Biso   1.000  C
  C490     1.0000 0.23370  0.58070  0.90990  Biso   1.000  C
  C491     1.0000 0.21900  0.61080  0.86720  Biso   1.000  C
  C492     1.0000 0.24590  0.63730  0.82690  Biso   1.000  C
  C493     1.0000 0.08850  0.31530  0.13230  Biso   1.000  C
  C494     1.0000 0.09200  0.30160  0.17740  Biso   1.000  C
  C495     1.0000 0.13600  0.28960  0.18100  Biso   1.000  C
  C496     1.0000 0.94300  0.33420  0.08760  Biso   1.000  C
  C497     1.0000 0.96480  0.28440  0.09160  Biso   1.000  C
  C498     1.0000 0.96140  0.26640  0.06640  Biso   1.000  C
  C499     1.0000 0.91200  0.41080  0.22380  Biso   1.000  C
  C500     1.0000 0.87930  0.38690  0.26230  Biso   1.000  C
  C501     1.0000 0.84480  0.40500  0.30080  Biso   1.000  C
  C502     1.0000 0.90990  0.27570  0.23370  Biso   1.000  C
  C503     1.0000 0.86720  0.30300  0.21900  Biso   1.000  C
  C504     1.0000 0.82690  0.28990  0.24590  Biso   1.000  C
  C505     1.0000 0.46390  0.13230  0.31530  Biso   1.000  C
  C506     1.0000 0.42900  0.17740  0.30160  Biso   1.000  C
  C507     1.0000 0.39340  0.18100  0.28960  Biso   1.000  C
  C508     1.0000 0.63520  0.08760  0.33420  Biso   1.000  C
  C509     1.0000 0.65920  0.09160  0.28440  Biso   1.000  C
  C510     1.0000 0.70580  0.06640  0.26640  Biso   1.000  C
  C511     1.0000 0.45340  0.22380  0.41080  Biso   1.000  C
  C512     1.0000 0.47150  0.26230  0.38690  Biso   1.000  C
  C513     1.0000 0.44940  0.30080  0.40500  Biso   1.000  C
  C514     1.0000 0.58070  0.23370  0.27570  Biso   1.000  C
  C515     1.0000 0.61080  0.21900  0.30300  Biso   1.000  C
  C516     1.0000 0.63730  0.24590  0.28990  Biso   1.000  C
  C517     1.0000 0.31530  0.08850  0.46390  Biso   1.000  C
  C518     1.0000 0.30160  0.09200  0.42900  Biso   1.000  C
  C519     1.0000 0.28960  0.13600  0.39340  Biso   1.000  C
  C520     1.0000 0.33420  0.94300  0.63520  Biso   1.000  C
  C521     1.0000 0.28440  0.96480  0.65920  Biso   1.000  C
  C522     1.0000 0.26640  0.96140  0.70580  Biso   1.000  C
  C523     1.0000 0.41080  0.91200  0.45340  Biso   1.000  C
  C524     1.0000 0.38690  0.87930  0.47150  Biso   1.000  C
  C525     1.0000 0.40500  0.84480  0.44940  Biso   1.000  C
  C526     1.0000 0.27570  0.90990  0.58070  Biso   1.000  C
  C527     1.0000 0.30300  0.86720  0.61080  Biso   1.000  C
  C528     1.0000 0.28990  0.82690  0.63730  Biso   1.000  C
  C529     1.0000 0.08850  0.46390  0.31530  Biso   1.000  C
  C530     1.0000 0.09200  0.42900  0.30160  Biso   1.000  C
  C531     1.0000 0.13600  0.39340  0.28960  Biso   1.000  C
  C532     1.0000 0.94300  0.63520  0.33420  Biso   1.000  C
  C533     1.0000 0.96480  0.65920  0.28440  Biso   1.000  C
  C534     1.0000 0.96140  0.70580  0.26640  Biso   1.000  C
  C535     1.0000 0.91200  0.45340  0.41080  Biso   1.000  C
  C536     1.0000 0.87930  0.47150  0.38690  Biso   1.000  C
  C537     1.0000 0.84480  0.44940  0.40500  Biso   1.000  C
  C538     1.0000 0.90990  0.58070  0.27570  Biso   1.000  C
  C539     1.0000 0.86720  0.61080  0.30300  Biso   1.000  C
  C540     1.0000 0.82690  0.63730  0.28990  Biso   1.000  C
  C541     1.0000 0.13230  0.31530  0.46390  Biso   1.000  C
  C542     1.0000 0.17740  0.30160  0.42900  Biso   1.000  C
  C543     1.0000 0.18100  0.28960  0.39340  Biso   1.000  C
  C544     1.0000 0.08760  0.33420  0.63520  Biso   1.000  C
  C545     1.0000 0.09160  0.28440  0.65920  Biso   1.000  C
  C546     1.0000 0.06640  0.26640  0.70580  Biso   1.000  C
  C547     1.0000 0.22380  0.41080  0.45340  Biso   1.000  C
  C548     1.0000 0.26230  0.38690  0.47150  Biso   1.000  C
  C549     1.0000 0.30080  0.40500  0.44940  Biso   1.000  C
  C550     1.0000 0.23370  0.27570  0.58070  Biso   1.000  C
  C551     1.0000 0.21900  0.30300  0.61080  Biso   1.000  C
  C552     1.0000 0.24590  0.28990  0.63730  Biso   1.000  C
  C553     1.0000 0.31530  0.13230  0.08850  Biso   1.000  C
  C554     1.0000 0.30160  0.17740  0.09200  Biso   1.000  C
  C555     1.0000 0.28960  0.18100  0.13600  Biso   1.000  C
  C556     1.0000 0.33420  0.08760  0.94300  Biso   1.000  C
  C557     1.0000 0.28440  0.09160  0.96480  Biso   1.000  C
  C558     1.0000 0.26640  0.06640  0.96140  Biso   1.000  C
  C559     1.0000 0.41080  0.22380  0.91200  Biso   1.000  C
  C560     1.0000 0.38690  0.26230  0.87930  Biso   1.000  C
  C561     1.0000 0.40500  0.30080  0.84480  Biso   1.000  C
  C562     1.0000 0.27570  0.23370  0.90990  Biso   1.000  C
  C563     1.0000 0.30300  0.21900  0.86720  Biso   1.000  C
  C564     1.0000 0.28990  0.24590  0.82690  Biso   1.000  C
  C565     1.0000 0.46390  0.08850  0.13230  Biso   1.000  C
  C566     1.0000 0.42900  0.09200  0.17740  Biso   1.000  C
  C567     1.0000 0.39340  0.13600  0.18100  Biso   1.000  C
  C568     1.0000 0.63520  0.94300  0.08760  Biso   1.000  C
  C569     1.0000 0.65920  0.96480  0.09160  Biso   1.000  C
  C570     1.0000 0.70580  0.96140  0.06640  Biso   1.000  C
  C571     1.0000 0.45340  0.91200  0.22380  Biso   1.000  C
  C572     1.0000 0.47150  0.87930  0.26230  Biso   1.000  C
  C573     1.0000 0.44940  0.84480  0.30080  Biso   1.000  C
  C574     1.0000 0.58070  0.90990  0.23370  Biso   1.000  C
  C575     1.0000 0.61080  0.86720  0.21900  Biso   1.000  C
  C576     1.0000 0.63730  0.82690  0.24590  Biso   1.000  C
  C577     1.0000 0.58920  0.41080  0.08580  Biso   1.000  C
  C578     1.0000 0.41080  0.58920  0.91420  Biso   1.000  C
  C579     1.0000 0.08580  0.91420  0.58920  Biso   1.000  C
  C580     1.0000 0.91420  0.08580  0.41080  Biso   1.000  C
  C581     1.0000 0.58920  0.08580  0.91420  Biso   1.000  C
  C582     1.0000 0.41080  0.91420  0.08580  Biso   1.000  C
  C583     1.0000 0.08580  0.58920  0.41080  Biso   1.000  C
  C584     1.0000 0.91420  0.41080  0.58920  Biso   1.000  C
  C585     1.0000 0.58920  0.91420  0.41080  Biso   1.000  C
  C586     1.0000 0.41080  0.08580  0.58920  Biso   1.000  C
  C587     1.0000 0.08580  0.41080  0.91420  Biso   1.000  C
  C588     1.0000 0.91420  0.58920  0.08580  Biso   1.000  C
  C589     1.0000 0.58920  0.41080  0.91420  Biso   1.000  C
  C590     1.0000 0.41080  0.58920  0.08580  Biso   1.000  C
  C591     1.0000 0.08580  0.91420  0.41080  Biso   1.000  C
  C592     1.0000 0.91420  0.08580  0.58920  Biso   1.000  C
  C593     1.0000 0.91420  0.41080  0.08580  Biso   1.000  C
  C594     1.0000 0.08580  0.58920  0.91420  Biso   1.000  C
  C595     1.0000 0.41080  0.91420  0.58920  Biso   1.000  C
  C596     1.0000 0.58920  0.08580  0.41080  Biso   1.000  C
  C597     1.0000 0.08580  0.41080  0.58920  Biso   1.000  C
  C598     1.0000 0.91420  0.58920  0.41080  Biso   1.000  C
  C599     1.0000 0.58920  0.91420  0.08580  Biso   1.000  C
  C600     1.0000 0.41080  0.08580  0.91420  Biso   1.000  C
  C601     1.0000 0.43440  0.43440  0.15940  Biso   1.000  C
  C602     1.0000 0.43440  0.43440  0.97180  Biso   1.000  C
  C603     1.0000 0.15940  0.97180  0.43440  Biso   1.000  C
  C604     1.0000 0.97180  0.15940  0.43440  Biso   1.000  C
  C605     1.0000 0.43440  0.15940  0.97180  Biso   1.000  C
  C606     1.0000 0.43440  0.97180  0.15940  Biso   1.000  C
  C607     1.0000 0.15940  0.43440  0.43440  Biso   1.000  C
  C608     1.0000 0.97180  0.43440  0.43440  Biso   1.000  C
  C609     1.0000 0.43440  0.97180  0.43440  Biso   1.000  C
  C610     1.0000 0.43440  0.15940  0.43440  Biso   1.000  C
  C611     1.0000 0.15940  0.43440  0.97180  Biso   1.000  C
  C612     1.0000 0.97180  0.43440  0.15940  Biso   1.000  C
  C613     1.0000 0.56560  0.56560  0.84060  Biso   1.000  C
  C614     1.0000 0.56560  0.56560  0.02820  Biso   1.000  C
  C615     1.0000 0.02820  0.84060  0.56560  Biso   1.000  C
  C616     1.0000 0.84060  0.02820  0.56560  Biso   1.000  C
  C617     1.0000 0.84060  0.56560  0.02820  Biso   1.000  C
  C618     1.0000 0.02820  0.56560  0.84060  Biso   1.000  C
  C619     1.0000 0.56560  0.84060  0.56560  Biso   1.000  C
  C620     1.0000 0.56560  0.02820  0.56560  Biso   1.000  C
  C621     1.0000 0.02820  0.56560  0.56560  Biso   1.000  C
  C622     1.0000 0.84060  0.56560  0.56560  Biso   1.000  C
  C623     1.0000 0.56560  0.84060  0.02820  Biso   1.000  C
  C624     1.0000 0.56560  0.02820  0.84060  Biso   1.000  C
  C625     1.0000 0.52530  0.33730  0.06870  Biso   1.000  C
  C626     1.0000 0.33730  0.52530  0.06870  Biso   1.000  C
  C627     1.0000 0.06870  0.06870  0.52530  Biso   1.000  C
  C628     1.0000 0.06870  0.06870  0.33730  Biso   1.000  C
  C629     1.0000 0.52530  0.06870  0.06870  Biso   1.000  C
  C630     1.0000 0.33730  0.06870  0.06870  Biso   1.000  C
  C631     1.0000 0.06870  0.52530  0.33730  Biso   1.000  C
  C632     1.0000 0.06870  0.33730  0.52530  Biso   1.000  C
  C633     1.0000 0.52530  0.06870  0.33730  Biso   1.000  C
  C634     1.0000 0.33730  0.06870  0.52530  Biso   1.000  C
  C635     1.0000 0.06870  0.33730  0.06870  Biso   1.000  C
  C636     1.0000 0.06870  0.52530  0.06870  Biso   1.000  C
  C637     1.0000 0.66270  0.47470  0.93130  Biso   1.000  C
  C638     1.0000 0.47470  0.66270  0.93130  Biso   1.000  C
  C639     1.0000 0.93130  0.93130  0.47470  Biso   1.000  C
  C640     1.0000 0.93130  0.93130  0.66270  Biso   1.000  C
  C641     1.0000 0.93130  0.47470  0.93130  Biso   1.000  C
  C642     1.0000 0.93130  0.66270  0.93130  Biso   1.000  C
  C643     1.0000 0.47470  0.93130  0.66270  Biso   1.000  C
  C644     1.0000 0.66270  0.93130  0.47470  Biso   1.000  C
  C645     1.0000 0.93130  0.47470  0.66270  Biso   1.000  C
  C646     1.0000 0.93130  0.66270  0.47470  Biso   1.000  C
  C647     1.0000 0.66270  0.93130  0.93130  Biso   1.000  C
  C648     1.0000 0.47470  0.93130  0.93130  Biso   1.000  C
  C649     1.0000 0.53070  0.24470  0.24470  Biso   1.000  C
  C650     1.0000 0.24470  0.53070  0.97990  Biso   1.000  C
  C651     1.0000 0.24470  0.97990  0.53070  Biso   1.000  C
  C652     1.0000 0.97990  0.24470  0.24470  Biso   1.000  C
  C653     1.0000 0.53070  0.24470  0.97990  Biso   1.000  C
  C654     1.0000 0.24470  0.97990  0.24470  Biso   1.000  C
  C655     1.0000 0.24470  0.53070  0.24470  Biso   1.000  C
  C656     1.0000 0.97990  0.24470  0.53070  Biso   1.000  C
  C657     1.0000 0.53070  0.97990  0.24470  Biso   1.000  C
  C658     1.0000 0.24470  0.24470  0.53070  Biso   1.000  C
  C659     1.0000 0.24470  0.24470  0.97990  Biso   1.000  C
  C660     1.0000 0.97990  0.53070  0.24470  Biso   1.000  C
  C661     1.0000 0.75530  0.46930  0.75530  Biso   1.000  C
  C662     1.0000 0.46930  0.75530  0.02010  Biso   1.000  C
  C663     1.0000 0.02010  0.75530  0.46930  Biso   1.000  C
  C664     1.0000 0.75530  0.02010  0.75530  Biso   1.000  C
  C665     1.0000 0.75530  0.46930  0.02010  Biso   1.000  C
  C666     1.0000 0.02010  0.75530  0.75530  Biso   1.000  C
  C667     1.0000 0.46930  0.75530  0.75530  Biso   1.000  C
  C668     1.0000 0.75530  0.02010  0.46930  Biso   1.000  C
  C669     1.0000 0.02010  0.46930  0.75530  Biso   1.000  C
  C670     1.0000 0.75530  0.75530  0.46930  Biso   1.000  C
  C671     1.0000 0.75530  0.75530  0.02010  Biso   1.000  C
  C672     1.0000 0.46930  0.02010  0.75530  Biso   1.000  C
  N1       1.0000 0.50416  0.32984  0.11764  Biso   1.000  N
  N2       1.0000 0.58663  0.36371  0.10595  Biso   1.000  N
  N3       1.0000 0.46914  0.39820  0.18136  Biso   1.000  N
  N4       1.0000 0.54845  0.28225  0.21297  Biso   1.000  N
  N5       1.0000 0.32984  0.50416  0.04836  Biso   1.000  N
  N6       1.0000 0.36371  0.58663  0.94371  Biso   1.000  N
  N7       1.0000 0.39820  0.46914  0.95130  Biso   1.000  N
  N8       1.0000 0.28225  0.54845  0.95633  Biso   1.000  N
  N9       1.0000 0.11764  0.04836  0.50416  Biso   1.000  N
  N10      1.0000 0.10595  0.94371  0.58663  Biso   1.000  N
  N11      1.0000 0.18136  0.95130  0.46914  Biso   1.000  N
  N12      1.0000 0.21297  0.95633  0.54845  Biso   1.000  N
  N13      1.0000 0.04836  0.11764  0.32984  Biso   1.000  N
  N14      1.0000 0.94371  0.10595  0.36371  Biso   1.000  N
  N15      1.0000 0.95130  0.18136  0.39820  Biso   1.000  N
  N16      1.0000 0.95633  0.21297  0.28225  Biso   1.000  N
  N17      1.0000 0.50416  0.11764  0.04836  Biso   1.000  N
  N18      1.0000 0.58663  0.10595  0.94371  Biso   1.000  N
  N19      1.0000 0.46914  0.18136  0.95130  Biso   1.000  N
  N20      1.0000 0.54845  0.21297  0.95633  Biso   1.000  N
  N21      1.0000 0.32984  0.04836  0.11764  Biso   1.000  N
  N22      1.0000 0.36371  0.94371  0.10595  Biso   1.000  N
  N23      1.0000 0.39820  0.95130  0.18136  Biso   1.000  N
  N24      1.0000 0.28225  0.95633  0.21297  Biso   1.000  N
  N25      1.0000 0.11764  0.50416  0.32984  Biso   1.000  N
  N26      1.0000 0.10595  0.58663  0.36371  Biso   1.000  N
  N27      1.0000 0.18136  0.46914  0.39820  Biso   1.000  N
  N28      1.0000 0.21297  0.54845  0.28225  Biso   1.000  N
  N29      1.0000 0.04836  0.32984  0.50416  Biso   1.000  N
  N30      1.0000 0.94371  0.36371  0.58663  Biso   1.000  N
  N31      1.0000 0.95130  0.39820  0.46914  Biso   1.000  N
  N32      1.0000 0.95633  0.28225  0.54845  Biso   1.000  N
  N33      1.0000 0.50416  0.04836  0.32984  Biso   1.000  N
  N34      1.0000 0.58663  0.94371  0.36371  Biso   1.000  N
  N35      1.0000 0.46914  0.95130  0.39820  Biso   1.000  N
  N36      1.0000 0.54845  0.95633  0.28225  Biso   1.000  N
  N37      1.0000 0.32984  0.11764  0.50416  Biso   1.000  N
  N38      1.0000 0.36371  0.10595  0.58663  Biso   1.000  N
  N39      1.0000 0.39820  0.18136  0.46914  Biso   1.000  N
  N40      1.0000 0.28225  0.21297  0.54845  Biso   1.000  N
  N41      1.0000 0.11764  0.32984  0.04836  Biso   1.000  N
  N42      1.0000 0.10595  0.36371  0.94371  Biso   1.000  N
  N43      1.0000 0.18136  0.39820  0.95130  Biso   1.000  N
  N44      1.0000 0.21297  0.28225  0.95633  Biso   1.000  N
  N45      1.0000 0.04836  0.50416  0.11764  Biso   1.000  N
  N46      1.0000 0.94371  0.58663  0.10595  Biso   1.000  N
  N47      1.0000 0.95130  0.46914  0.18136  Biso   1.000  N
  N48      1.0000 0.95633  0.54845  0.21297  Biso   1.000  N
  N49      1.0000 0.67016  0.49584  0.88236  Biso   1.000  N
  N50      1.0000 0.63629  0.41337  0.89405  Biso   1.000  N
  N51      1.0000 0.60180  0.53086  0.81864  Biso   1.000  N
  N52      1.0000 0.71775  0.45155  0.78703  Biso   1.000  N
  N53      1.0000 0.49584  0.67016  0.95164  Biso   1.000  N
  N54      1.0000 0.41337  0.63629  0.05629  Biso   1.000  N
  N55      1.0000 0.53086  0.60180  0.04870  Biso   1.000  N
  N56      1.0000 0.45155  0.71775  0.04367  Biso   1.000  N
  N57      1.0000 0.95164  0.88236  0.49584  Biso   1.000  N
  N58      1.0000 0.05629  0.89405  0.41337  Biso   1.000  N
  N59      1.0000 0.04870  0.81864  0.53086  Biso   1.000  N
  N60      1.0000 0.04367  0.78703  0.45155  Biso   1.000  N
  N61      1.0000 0.88236  0.95164  0.67016  Biso   1.000  N
  N62      1.0000 0.89405  0.05629  0.63629  Biso   1.000  N
  N63      1.0000 0.81864  0.04870  0.60180  Biso   1.000  N
  N64      1.0000 0.78703  0.04367  0.71775  Biso   1.000  N
  N65      1.0000 0.88236  0.49584  0.95164  Biso   1.000  N
  N66      1.0000 0.89405  0.41337  0.05629  Biso   1.000  N
  N67      1.0000 0.81864  0.53086  0.04870  Biso   1.000  N
  N68      1.0000 0.78703  0.45155  0.04367  Biso   1.000  N
  N69      1.0000 0.95164  0.67016  0.88236  Biso   1.000  N
  N70      1.0000 0.05629  0.63629  0.89405  Biso   1.000  N
  N71      1.0000 0.04870  0.60180  0.81864  Biso   1.000  N
  N72      1.0000 0.04367  0.71775  0.78703  Biso   1.000  N
  N73      1.0000 0.49584  0.88236  0.67016  Biso   1.000  N
  N74      1.0000 0.41337  0.89405  0.63629  Biso   1.000  N
  N75      1.0000 0.53086  0.81864  0.60180  Biso   1.000  N
  N76      1.0000 0.45155  0.78703  0.71775  Biso   1.000  N
  N77      1.0000 0.67016  0.95164  0.49584  Biso   1.000  N
  N78      1.0000 0.63629  0.05629  0.41337  Biso   1.000  N
  N79      1.0000 0.60180  0.04870  0.53086  Biso   1.000  N
  N80      1.0000 0.71775  0.04367  0.45155  Biso   1.000  N
  N81      1.0000 0.95164  0.49584  0.67016  Biso   1.000  N
  N82      1.0000 0.05629  0.41337  0.63629  Biso   1.000  N
  N83      1.0000 0.04870  0.53086  0.60180  Biso   1.000  N
  N84      1.0000 0.04367  0.45155  0.71775  Biso   1.000  N
  N85      1.0000 0.88236  0.67016  0.49584  Biso   1.000  N
  N86      1.0000 0.89405  0.63629  0.41337  Biso   1.000  N
  N87      1.0000 0.81864  0.60180  0.53086  Biso   1.000  N
  N88      1.0000 0.78703  0.71775  0.45155  Biso   1.000  N
  N89      1.0000 0.67016  0.88236  0.95164  Biso   1.000  N
  N90      1.0000 0.63629  0.89405  0.05629  Biso   1.000  N
  N91      1.0000 0.60180  0.81864  0.04870  Biso   1.000  N
  N92      1.0000 0.71775  0.78703  0.04367  Biso   1.000  N
  N93      1.0000 0.49584  0.95164  0.88236  Biso   1.000  N
  N94      1.0000 0.41337  0.05629  0.89405  Biso   1.000  N
  N95      1.0000 0.53086  0.04870  0.81864  Biso   1.000  N
  N96      1.0000 0.45155  0.04367  0.78703  Biso   1.000  N
  N97      1.0000 0.49584  0.67016  0.88236  Biso   1.000  N
  N98      1.0000 0.41337  0.63629  0.89405  Biso   1.000  N
  N99      1.0000 0.53086  0.60180  0.81864  Biso   1.000  N
  N100     1.0000 0.45155  0.71775  0.78703  Biso   1.000  N
  N101     1.0000 0.67016  0.49584  0.95164  Biso   1.000  N
  N102     1.0000 0.63629  0.41337  0.05629  Biso   1.000  N
  N103     1.0000 0.60180  0.53086  0.04870  Biso   1.000  N
  N104     1.0000 0.71775  0.45155  0.04367  Biso   1.000  N
  N105     1.0000 0.88236  0.95164  0.49584  Biso   1.000  N
  N106     1.0000 0.89405  0.05629  0.41337  Biso   1.000  N
  N107     1.0000 0.81864  0.04870  0.53086  Biso   1.000  N
  N108     1.0000 0.78703  0.04367  0.45155  Biso   1.000  N
  N109     1.0000 0.95164  0.88236  0.67016  Biso   1.000  N
  N110     1.0000 0.05629  0.89405  0.63629  Biso   1.000  N
  N111     1.0000 0.04870  0.81864  0.60180  Biso   1.000  N
  N112     1.0000 0.04367  0.78703  0.71775  Biso   1.000  N
  N113     1.0000 0.49584  0.88236  0.95164  Biso   1.000  N
  N114     1.0000 0.41337  0.89405  0.05629  Biso   1.000  N
  N115     1.0000 0.53086  0.81864  0.04870  Biso   1.000  N
  N116     1.0000 0.45155  0.78703  0.04367  Biso   1.000  N
  N117     1.0000 0.67016  0.95164  0.88236  Biso   1.000  N
  N118     1.0000 0.63629  0.05629  0.89405  Biso   1.000  N
  N119     1.0000 0.60180  0.04870  0.81864  Biso   1.000  N
  N120     1.0000 0.71775  0.04367  0.78703  Biso   1.000  N
  N121     1.0000 0.88236  0.49584  0.67016  Biso   1.000  N
  N122     1.0000 0.89405  0.41337  0.63629  Biso   1.000  N
  N123     1.0000 0.81864  0.53086  0.60180  Biso   1.000  N
  N124     1.0000 0.78703  0.45155  0.71775  Biso   1.000  N
  N125     1.0000 0.95164  0.67016  0.49584  Biso   1.000  N
  N126     1.0000 0.05629  0.63629  0.41337  Biso   1.000  N
  N127     1.0000 0.04870  0.60180  0.53086  Biso   1.000  N
  N128     1.0000 0.04367  0.71775  0.45155  Biso   1.000  N
  N129     1.0000 0.49584  0.95164  0.67016  Biso   1.000  N
  N130     1.0000 0.41337  0.05629  0.63629  Biso   1.000  N
  N131     1.0000 0.53086  0.04870  0.60180  Biso   1.000  N
  N132     1.0000 0.45155  0.04367  0.71775  Biso   1.000  N
  N133     1.0000 0.67016  0.88236  0.49584  Biso   1.000  N
  N134     1.0000 0.63629  0.89405  0.41337  Biso   1.000  N
  N135     1.0000 0.60180  0.81864  0.53086  Biso   1.000  N
  N136     1.0000 0.71775  0.78703  0.45155  Biso   1.000  N
  N137     1.0000 0.88236  0.67016  0.95164  Biso   1.000  N
  N138     1.0000 0.89405  0.63629  0.05629  Biso   1.000  N
  N139     1.0000 0.81864  0.60180  0.04870  Biso   1.000  N
  N140     1.0000 0.78703  0.71775  0.04367  Biso   1.000  N
  N141     1.0000 0.95164  0.49584  0.88236  Biso   1.000  N
  N142     1.0000 0.05629  0.41337  0.89405  Biso   1.000  N
  N143     1.0000 0.04870  0.53086  0.81864  Biso   1.000  N
  N144     1.0000 0.04367  0.45155  0.78703  Biso   1.000  N
  N145     1.0000 0.32984  0.50416  0.11764  Biso   1.000  N
  N146     1.0000 0.36371  0.58663  0.10595  Biso   1.000  N
  N147     1.0000 0.39820  0.46914  0.18136  Biso   1.000  N
  N148     1.0000 0.28225  0.54845  0.21297  Biso   1.000  N
  N149     1.0000 0.50416  0.32984  0.04836  Biso   1.000  N
  N150     1.0000 0.58663  0.36371  0.94371  Biso   1.000  N
  N151     1.0000 0.46914  0.39820  0.95130  Biso   1.000  N
  N152     1.0000 0.54845  0.28225  0.95633  Biso   1.000  N
  N153     1.0000 0.04836  0.11764  0.50416  Biso   1.000  N
  N154     1.0000 0.94371  0.10595  0.58663  Biso   1.000  N
  N155     1.0000 0.95130  0.18136  0.46914  Biso   1.000  N
  N156     1.0000 0.95633  0.21297  0.54845  Biso   1.000  N
  N157     1.0000 0.11764  0.04836  0.32984  Biso   1.000  N
  N158     1.0000 0.10595  0.94371  0.36371  Biso   1.000  N
  N159     1.0000 0.18136  0.95130  0.39820  Biso   1.000  N
  N160     1.0000 0.21297  0.95633  0.28225  Biso   1.000  N
  N161     1.0000 0.11764  0.50416  0.04836  Biso   1.000  N
  N162     1.0000 0.10595  0.58663  0.94371  Biso   1.000  N
  N163     1.0000 0.18136  0.46914  0.95130  Biso   1.000  N
  N164     1.0000 0.21297  0.54845  0.95633  Biso   1.000  N
  N165     1.0000 0.04836  0.32984  0.11764  Biso   1.000  N
  N166     1.0000 0.94371  0.36371  0.10595  Biso   1.000  N
  N167     1.0000 0.95130  0.39820  0.18136  Biso   1.000  N
  N168     1.0000 0.95633  0.28225  0.21297  Biso   1.000  N
  N169     1.0000 0.50416  0.11764  0.32984  Biso   1.000  N
  N170     1.0000 0.58663  0.10595  0.36371  Biso   1.000  N
  N171     1.0000 0.46914  0.18136  0.39820  Biso   1.000  N
  N172     1.0000 0.54845  0.21297  0.28225  Biso   1.000  N
  N173     1.0000 0.32984  0.04836  0.50416  Biso   1.000  N
  N174     1.0000 0.36371  0.94371  0.58663  Biso   1.000  N
  N175     1.0000 0.39820  0.95130  0.46914  Biso   1.000  N
  N176     1.0000 0.28225  0.95633  0.54845  Biso   1.000  N
  N177     1.0000 0.04836  0.50416  0.32984  Biso   1.000  N
  N178     1.0000 0.94371  0.58663  0.36371  Biso   1.000  N
  N179     1.0000 0.95130  0.46914  0.39820  Biso   1.000  N
  N180     1.0000 0.95633  0.54845  0.28225  Biso   1.000  N
  N181     1.0000 0.11764  0.32984  0.50416  Biso   1.000  N
  N182     1.0000 0.10595  0.36371  0.58663  Biso   1.000  N
  N183     1.0000 0.18136  0.39820  0.46914  Biso   1.000  N
  N184     1.0000 0.21297  0.28225  0.54845  Biso   1.000  N
  N185     1.0000 0.32984  0.11764  0.04836  Biso   1.000  N
  N186     1.0000 0.36371  0.10595  0.94371  Biso   1.000  N
  N187     1.0000 0.39820  0.18136  0.95130  Biso   1.000  N
  N188     1.0000 0.28225  0.21297  0.95633  Biso   1.000  N
  N189     1.0000 0.50416  0.04836  0.11764  Biso   1.000  N
  N190     1.0000 0.58663  0.94371  0.10595  Biso   1.000  N
  N191     1.0000 0.46914  0.95130  0.18136  Biso   1.000  N
  N192     1.0000 0.54845  0.95633  0.21297  Biso   1.000  N
