data_image0
_cell_length_a       15.8667
_cell_length_b       15.8667
_cell_length_c       54.0817
_cell_angle_alpha    87.3769
_cell_angle_beta     84.1339
_cell_angle_gamma    119.712

_symmetry_space_group_name_H-M    P 1
_symmetry_int_tables_number       1

loop_
  _symmetry_equiv_pos_as_xyz
  'x, y, z'

loop_
  _atom_site_label
  _atom_site_occupancy
  _atom_site_fract_x
  _atom_site_fract_y
  _atom_site_fract_z
  _atom_site_thermal_displace_type
  _atom_site_B_iso_or_equiv
  _atom_site_type_symbol
  Cu1      1.0000 0.91534  0.68346  0.57696  Biso   1.000  Cu
  Cu2      1.0000 0.13958  0.26585  0.75729  Biso   1.000  Cu
  Cu3      1.0000 0.42700  0.18832  0.57326  Biso   1.000  Cu
  Cu4      1.0000 0.76042  0.49230  0.92304  Biso   1.000  Cu
  Cu5      1.0000 0.52314  0.89687  0.74271  Biso   1.000  Cu
  Cu6      1.0000 0.26158  0.00026  0.92674  Biso   1.000  Cu
  Cu7      1.0000 0.08466  0.31654  0.42304  Biso   1.000  Cu
  Cu8      1.0000 0.86042  0.73415  0.24271  Biso   1.000  Cu
  Cu9      1.0000 0.57300  0.81168  0.42674  Biso   1.000  Cu
  Cu10     1.0000 0.23958  0.50770  0.07696  Biso   1.000  Cu
  Cu11     1.0000 0.47686  0.10313  0.25729  Biso   1.000  Cu
  Cu12     1.0000 0.73842  0.99974  0.07326  Biso   1.000  Cu
  H1       1.0000 0.79400  0.63650  0.53030  Biso   1.000  H
  H2       1.0000 0.01690  0.87890  0.54160  Biso   1.000  H
  H3       1.0000 0.77140  0.70670  0.48510  Biso   1.000  H
  H4       1.0000 0.85330  0.81810  0.47580  Biso   1.000  H
  H5       1.0000 0.96600  0.75120  0.46980  Biso   1.000  H
  H6       1.0000 0.86730  0.64930  0.46960  Biso   1.000  H
  H7       1.0000 0.83280  0.73550  0.43530  Biso   1.000  H
  H8       1.0000 0.91410  0.70580  0.42770  Biso   1.000  H
  H9       1.0000 0.03900  0.86920  0.43340  Biso   1.000  H
  H10      1.0000 0.95530  0.89730  0.43820  Biso   1.000  H
  H11      1.0000 0.92050  0.87230  0.39740  Biso   1.000  H
  H12      1.0000 0.99450  0.83210  0.39240  Biso   1.000  H
  H13      1.0000 0.07920  0.98390  0.37330  Biso   1.000  H
  H14      1.0000 0.12350  0.99240  0.39890  Biso   1.000  H
  H15      1.0000 0.93350  0.16230  0.39100  Biso   1.000  H
  H16      1.0000 0.14010  0.14470  0.41900  Biso   1.000  H
  H17      1.0000 0.80980  0.45620  0.57700  Biso   1.000  H
  H18      1.0000 0.04770  0.64650  0.53260  Biso   1.000  H
  H19      1.0000 0.75090  0.31780  0.55610  Biso   1.000  H
  H20      1.0000 0.77370  0.34590  0.52620  Biso   1.000  H
  H21      1.0000 0.87050  0.27660  0.55510  Biso   1.000  H
  H22      1.0000 0.90650  0.31690  0.52560  Biso   1.000  H
  H23      1.0000 0.70830  0.16430  0.54700  Biso   1.000  H
  H24      1.0000 0.73490  0.21130  0.51820  Biso   1.000  H
  H25      1.0000 0.79380  0.09140  0.54120  Biso   1.000  H
  H26      1.0000 0.87100  0.17320  0.51960  Biso   1.000  H
  H27      1.0000 0.68040  0.02310  0.51190  Biso   1.000  H
  H28      1.0000 0.76050  0.10310  0.49040  Biso   1.000  H
  H29      1.0000 0.76390  0.94420  0.51410  Biso   1.000  H
  H30      1.0000 0.86080  0.03310  0.49830  Biso   1.000  H
  H31      1.0000 0.61360  0.89270  0.47930  Biso   1.000  H
  H32      1.0000 0.80440  0.90500  0.42620  Biso   1.000  H
  H33      1.0000 0.95440  0.51940  0.60780  Biso   1.000  H
  H34      1.0000 0.84100  0.67640  0.63320  Biso   1.000  H
  H35      1.0000 0.84620  0.52400  0.68620  Biso   1.000  H
  H36      1.0000 0.74950  0.51910  0.67840  Biso   1.000  H
  H37      1.0000 0.81440  0.63710  0.70450  Biso   1.000  H
  H38      1.0000 0.82070  0.68630  0.67760  Biso   1.000  H
  H39      1.0000 0.99520  0.74710  0.67110  Biso   1.000  H
  H40      1.0000 0.96130  0.79140  0.69350  Biso   1.000  H
  H41      1.0000 0.99880  0.63200  0.69980  Biso   1.000  H
  H42      1.0000 0.95530  0.66650  0.72260  Biso   1.000  H
  H43      1.0000 0.15490  0.78330  0.69480  Biso   1.000  H
  H44      1.0000 0.11120  0.83100  0.71420  Biso   1.000  H
  H45      1.0000 0.08380  0.70760  0.74640  Biso   1.000  H
  H46      1.0000 0.13540  0.66780  0.72700  Biso   1.000  H
  H47      1.0000 0.31130  0.73190  0.73200  Biso   1.000  H
  H48      1.0000 0.38060  0.98590  0.75670  Biso   1.000  H
  H49      1.0000 0.90880  0.19900  0.76360  Biso   1.000  H
  H50      1.0000 0.09250  0.29190  0.70120  Biso   1.000  H
  H51      1.0000 0.96860  0.31620  0.67340  Biso   1.000  H
  H52      1.0000 0.86400  0.28510  0.68850  Biso   1.000  H
  H53      1.0000 0.83280  0.11730  0.68670  Biso   1.000  H
  H54      1.0000 0.92300  0.16540  0.66480  Biso   1.000  H
  H55      1.0000 0.77500  0.09360  0.64720  Biso   1.000  H
  H56      1.0000 0.73940  0.15930  0.66170  Biso   1.000  H
  H57      1.0000 0.90400  0.22860  0.62400  Biso   1.000  H
  H58      1.0000 0.88690  0.30080  0.64090  Biso   1.000  H
  H59      1.0000 0.81880  0.29410  0.60370  Biso   1.000  H
  H60      1.0000 0.75360  0.17740  0.60900  Biso   1.000  H
  H61      1.0000 0.65640  0.18530  0.64230  Biso   1.000  H
  H62      1.0000 0.73080  0.30000  0.64280  Biso   1.000  H
  H63      1.0000 0.61840  0.39240  0.57740  Biso   1.000  H
  H64      1.0000 0.53340  0.14010  0.61310  Biso   1.000  H
  H65      1.0000 0.25140  0.96830  0.59670  Biso   1.000  H
  H66      1.0000 0.37680  0.20550  0.62990  Biso   1.000  H
  H67      1.0000 0.29430  0.13910  0.67420  Biso   1.000  H
  H68      1.0000 0.29790  0.04000  0.67870  Biso   1.000  H
  H69      1.0000 0.12030  0.94940  0.67430  Biso   1.000  H
  H70      1.0000 0.14250  0.00280  0.69930  Biso   1.000  H
  H71      1.0000 0.16140  0.14600  0.66940  Biso   1.000  H
  H72      1.0000 0.08510  0.05720  0.65590  Biso   1.000  H
  H73      1.0000 0.01680  0.11870  0.68930  Biso   1.000  H
  H74      1.0000 0.04350  0.05760  0.70830  Biso   1.000  H
  H75      1.0000 0.89830  0.99070  0.67760  Biso   1.000  H
  H76      1.0000 0.95580  0.93320  0.67700  Biso   1.000  H
  H77      1.0000 0.88290  0.86440  0.71730  Biso   1.000  H
  H78      1.0000 0.81120  0.83540  0.69660  Biso   1.000  H
  H79      1.0000 0.05270  0.36790  0.79220  Biso   1.000  H
  H80      1.0000 0.27640  0.50030  0.73870  Biso   1.000  H
  H81      1.0000 0.20060  0.20570  0.80810  Biso   1.000  H
  H82      1.0000 0.37410  0.39300  0.74970  Biso   1.000  H
  H83      1.0000 0.54030  0.45640  0.79090  Biso   1.000  H
  H84      1.0000 0.53770  0.45400  0.76130  Biso   1.000  H
  H85      1.0000 0.62370  0.37690  0.77020  Biso   1.000  H
  H86      1.0000 0.55090  0.31830  0.79520  Biso   1.000  H
  H87      1.0000 0.43620  0.20970  0.77170  Biso   1.000  H
  H88      1.0000 0.53760  0.21010  0.76770  Biso   1.000  H
  H89      1.0000 0.66680  0.32430  0.96970  Biso   1.000  H
  H90      1.0000 0.92050  0.55850  0.95840  Biso   1.000  H
  H91      1.0000 0.69180  0.25650  0.01490  Biso   1.000  H
  H92      1.0000 0.79390  0.32910  0.02420  Biso   1.000  H
  H93      1.0000 0.72100  0.43580  0.03020  Biso   1.000  H
  H94      1.0000 0.61890  0.33690  0.03040  Biso   1.000  H
  H95      1.0000 0.67080  0.26810  0.06470  Biso   1.000  H
  H96      1.0000 0.63350  0.34180  0.07230  Biso   1.000  H
  H97      1.0000 0.80260  0.47240  0.06660  Biso   1.000  H
  H98      1.0000 0.83550  0.39350  0.06180  Biso   1.000  H
  H99      1.0000 0.76970  0.31790  0.10260  Biso   1.000  H
  H100     1.0000 0.72450  0.38690  0.10760  Biso   1.000  H
  H101     1.0000 0.85720  0.45250  0.12670  Biso   1.000  H
  H102     1.0000 0.89130  0.52240  0.10110  Biso   1.000  H
  H103     1.0000 0.05330  0.32450  0.10900  Biso   1.000  H
  H104     1.0000 0.06370  0.55910  0.08100  Biso   1.000  H
  H105     1.0000 0.53320  0.38680  0.92300  Biso   1.000  H
  H106     1.0000 0.67910  0.58030  0.96740  Biso   1.000  H
  H107     1.0000 0.37390  0.30700  0.94390  Biso   1.000  H
  H108     1.0000 0.37210  0.29990  0.97380  Biso   1.000  H
  H109     1.0000 0.33170  0.42560  0.94490  Biso   1.000  H
  H110     1.0000 0.34250  0.43210  0.97440  Biso   1.000  H
  H111     1.0000 0.21130  0.25530  0.95300  Biso   1.000  H
  H112     1.0000 0.22950  0.25310  0.98180  Biso   1.000  H
  H113     1.0000 0.13260  0.33500  0.95880  Biso   1.000  H
  H114     1.0000 0.19280  0.39060  0.98040  Biso   1.000  H
  H115     1.0000 0.03500  0.19230  0.98810  Biso   1.000  H
  H116     1.0000 0.09350  0.25090  0.00960  Biso   1.000  H
  H117     1.0000 0.95830  0.27800  0.98590  Biso   1.000  H
  H118     1.0000 0.03140  0.35910  0.00170  Biso   1.000  H
  H119     1.0000 0.87200  0.09290  0.02070  Biso   1.000  H
  H120     1.0000 0.83120  0.23060  0.07380  Biso   1.000  H
  H121     1.0000 0.62720  0.56220  0.89220  Biso   1.000  H
  H122     1.0000 0.80960  0.47420  0.86680  Biso   1.000  H
  H123     1.0000 0.71020  0.53240  0.81380  Biso   1.000  H
  H124     1.0000 0.69750  0.42790  0.82160  Biso   1.000  H
  H125     1.0000 0.84160  0.51890  0.79550  Biso   1.000  H
  H126     1.0000 0.86390  0.49830  0.82240  Biso   1.000  H
  H127     1.0000 0.91820  0.66630  0.82890  Biso   1.000  H
  H128     1.0000 0.98490  0.65480  0.80650  Biso   1.000  H
  H129     1.0000 0.83180  0.69860  0.80020  Biso   1.000  H
  H130     1.0000 0.88910  0.67790  0.77740  Biso   1.000  H
  H131     1.0000 0.97810  0.84970  0.80520  Biso   1.000  H
  H132     1.0000 0.04520  0.82540  0.78580  Biso   1.000  H
  H133     1.0000 0.95400  0.83020  0.75360  Biso   1.000  H
  H134     1.0000 0.89480  0.86240  0.77300  Biso   1.000  H
  H135     1.0000 0.96390  0.04330  0.76800  Biso   1.000  H
  H136     1.0000 0.24260  0.13730  0.74330  Biso   1.000  H
  H137     1.0000 0.46260  0.67240  0.73640  Biso   1.000  H
  H138     1.0000 0.49310  0.79370  0.79880  Biso   1.000  H
  H139     1.0000 0.48960  0.64200  0.82660  Biso   1.000  H
  H140     1.0000 0.47360  0.55250  0.81150  Biso   1.000  H
  H141     1.0000 0.30400  0.51950  0.81330  Biso   1.000  H
  H142     1.0000 0.33020  0.58780  0.83520  Biso   1.000  H
  H143     1.0000 0.24080  0.42220  0.85280  Biso   1.000  H
  H144     1.0000 0.32100  0.40110  0.83830  Biso   1.000  H
  H145     1.0000 0.35260  0.52800  0.87600  Biso   1.000  H
  H146     1.0000 0.44170  0.52780  0.85910  Biso   1.000  H
  H147     1.0000 0.39780  0.42250  0.89630  Biso   1.000  H
  H148     1.0000 0.28640  0.36260  0.89100  Biso   1.000  H
  H149     1.0000 0.32760  0.29870  0.85770  Biso   1.000  H
  H150     1.0000 0.44280  0.37360  0.85720  Biso   1.000  H
  H151     1.0000 0.46980  0.19580  0.92260  Biso   1.000  H
  H152     1.0000 0.25320  0.14650  0.88690  Biso   1.000  H
  H153     1.0000 0.06500  0.84810  0.90330  Biso   1.000  H
  H154     1.0000 0.33540  0.00670  0.87010  Biso   1.000  H
  H155     1.0000 0.31330  0.96850  0.82580  Biso   1.000  H
  H156     1.0000 0.21870  0.97660  0.82130  Biso   1.000  H
  H157     1.0000 0.12370  0.79460  0.82570  Biso   1.000  H
  H158     1.0000 0.20210  0.84180  0.80070  Biso   1.000  H
  H159     1.0000 0.31540  0.83080  0.83060  Biso   1.000  H
  H160     1.0000 0.21310  0.74100  0.84410  Biso   1.000  H
  H161     1.0000 0.30800  0.70610  0.81070  Biso   1.000  H
  H162     1.0000 0.26590  0.75180  0.79170  Biso   1.000  H
  H163     1.0000 0.16830  0.57590  0.82240  Biso   1.000  H
  H164     1.0000 0.11020  0.63280  0.82300  Biso   1.000  H
  H165     1.0000 0.08170  0.60020  0.78270  Biso   1.000  H
  H166     1.0000 0.03200  0.50780  0.80340  Biso   1.000  H
  H167     1.0000 0.66010  0.84490  0.70780  Biso   1.000  H
  H168     1.0000 0.73900  0.01510  0.76130  Biso   1.000  H
  H169     1.0000 0.51380  0.00870  0.69190  Biso   1.000  H
  H170     1.0000 0.64270  0.12380  0.75030  Biso   1.000  H
  H171     1.0000 0.74730  0.33120  0.70910  Biso   1.000  H
  H172     1.0000 0.71530  0.29900  0.73870  Biso   1.000  H
  H173     1.0000 0.64710  0.39390  0.72980  Biso   1.000  H
  H174     1.0000 0.61350  0.34610  0.70480  Biso   1.000  H
  H175     1.0000 0.48140  0.20790  0.72830  Biso   1.000  H
  H176     1.0000 0.47780  0.30530  0.73230  Biso   1.000  H
  H177     1.0000 0.20600  0.36350  0.46970  Biso   1.000  H
  H178     1.0000 0.98310  0.12110  0.45840  Biso   1.000  H
  H179     1.0000 0.22860  0.29330  0.51490  Biso   1.000  H
  H180     1.0000 0.14670  0.18190  0.52420  Biso   1.000  H
  H181     1.0000 0.03400  0.24880  0.53020  Biso   1.000  H
  H182     1.0000 0.13270  0.35070  0.53040  Biso   1.000  H
  H183     1.0000 0.16720  0.26450  0.56470  Biso   1.000  H
  H184     1.0000 0.08590  0.29420  0.57230  Biso   1.000  H
  H185     1.0000 0.96100  0.13080  0.56660  Biso   1.000  H
  H186     1.0000 0.04470  0.10270  0.56180  Biso   1.000  H
  H187     1.0000 0.07950  0.12770  0.60260  Biso   1.000  H
  H188     1.0000 0.00550  0.16790  0.60760  Biso   1.000  H
  H189     1.0000 0.92080  0.01610  0.62670  Biso   1.000  H
  H190     1.0000 0.87650  0.00760  0.60110  Biso   1.000  H
  H191     1.0000 0.06650  0.83770  0.60900  Biso   1.000  H
  H192     1.0000 0.85990  0.85530  0.58100  Biso   1.000  H
  H193     1.0000 0.19020  0.54380  0.42300  Biso   1.000  H
  H194     1.0000 0.95230  0.35350  0.46740  Biso   1.000  H
  H195     1.0000 0.24910  0.68220  0.44390  Biso   1.000  H
  H196     1.0000 0.22630  0.65410  0.47380  Biso   1.000  H
  H197     1.0000 0.12950  0.72340  0.44490  Biso   1.000  H
  H198     1.0000 0.09350  0.68310  0.47440  Biso   1.000  H
  H199     1.0000 0.29170  0.83570  0.45300  Biso   1.000  H
  H200     1.0000 0.26510  0.78870  0.48180  Biso   1.000  H
  H201     1.0000 0.20620  0.90860  0.45880  Biso   1.000  H
  H202     1.0000 0.12900  0.82680  0.48040  Biso   1.000  H
  H203     1.0000 0.31960  0.97690  0.48810  Biso   1.000  H
  H204     1.0000 0.23950  0.89690  0.50960  Biso   1.000  H
  H205     1.0000 0.23610  0.05580  0.48590  Biso   1.000  H
  H206     1.0000 0.13920  0.96690  0.50170  Biso   1.000  H
  H207     1.0000 0.38640  0.10730  0.52070  Biso   1.000  H
  H208     1.0000 0.19560  0.09500  0.57380  Biso   1.000  H
  H209     1.0000 0.04560  0.48060  0.39220  Biso   1.000  H
  H210     1.0000 0.15900  0.32360  0.36680  Biso   1.000  H
  H211     1.0000 0.15380  0.47600  0.31380  Biso   1.000  H
  H212     1.0000 0.25050  0.48090  0.32160  Biso   1.000  H
  H213     1.0000 0.18560  0.36290  0.29550  Biso   1.000  H
  H214     1.0000 0.17930  0.31370  0.32240  Biso   1.000  H
  H215     1.0000 0.00480  0.25290  0.32890  Biso   1.000  H
  H216     1.0000 0.03870  0.20860  0.30650  Biso   1.000  H
  H217     1.0000 0.00120  0.36800  0.30020  Biso   1.000  H
  H218     1.0000 0.04470  0.33350  0.27740  Biso   1.000  H
  H219     1.0000 0.84510  0.21670  0.30520  Biso   1.000  H
  H220     1.0000 0.88880  0.16900  0.28580  Biso   1.000  H
  H221     1.0000 0.91620  0.29240  0.25360  Biso   1.000  H
  H222     1.0000 0.86460  0.33220  0.27300  Biso   1.000  H
  H223     1.0000 0.68870  0.26810  0.26800  Biso   1.000  H
  H224     1.0000 0.61940  0.01410  0.24330  Biso   1.000  H
  H225     1.0000 0.09120  0.80100  0.23640  Biso   1.000  H
  H226     1.0000 0.90750  0.70810  0.29880  Biso   1.000  H
  H227     1.0000 0.03140  0.68380  0.32660  Biso   1.000  H
  H228     1.0000 0.13600  0.71490  0.31150  Biso   1.000  H
  H229     1.0000 0.16720  0.88270  0.31330  Biso   1.000  H
  H230     1.0000 0.07700  0.83460  0.33520  Biso   1.000  H
  H231     1.0000 0.22500  0.90640  0.35280  Biso   1.000  H
  H232     1.0000 0.26060  0.84070  0.33830  Biso   1.000  H
  H233     1.0000 0.09600  0.77140  0.37600  Biso   1.000  H
  H234     1.0000 0.11310  0.69920  0.35910  Biso   1.000  H
  H235     1.0000 0.18120  0.70590  0.39630  Biso   1.000  H
  H236     1.0000 0.24640  0.82260  0.39100  Biso   1.000  H
  H237     1.0000 0.34360  0.81470  0.35770  Biso   1.000  H
  H238     1.0000 0.26920  0.70000  0.35720  Biso   1.000  H
  H239     1.0000 0.38160  0.60760  0.42260  Biso   1.000  H
  H240     1.0000 0.46660  0.85990  0.38690  Biso   1.000  H
  H241     1.0000 0.74860  0.03170  0.40330  Biso   1.000  H
  H242     1.0000 0.62320  0.79450  0.37010  Biso   1.000  H
  H243     1.0000 0.70570  0.86090  0.32580  Biso   1.000  H
  H244     1.0000 0.70210  0.96000  0.32130  Biso   1.000  H
  H245     1.0000 0.87970  0.05060  0.32570  Biso   1.000  H
  H246     1.0000 0.85750  0.99720  0.30070  Biso   1.000  H
  H247     1.0000 0.83860  0.85400  0.33060  Biso   1.000  H
  H248     1.0000 0.91490  0.94280  0.34410  Biso   1.000  H
  H249     1.0000 0.98320  0.88130  0.31070  Biso   1.000  H
  H250     1.0000 0.95650  0.94240  0.29170  Biso   1.000  H
  H251     1.0000 0.10170  0.00930  0.32240  Biso   1.000  H
  H252     1.0000 0.04420  0.06680  0.32300  Biso   1.000  H
  H253     1.0000 0.11710  0.13560  0.28270  Biso   1.000  H
  H254     1.0000 0.18880  0.16460  0.30340  Biso   1.000  H
  H255     1.0000 0.94730  0.63210  0.20780  Biso   1.000  H
  H256     1.0000 0.72360  0.49970  0.26130  Biso   1.000  H
  H257     1.0000 0.79940  0.79430  0.19190  Biso   1.000  H
  H258     1.0000 0.62590  0.60700  0.25030  Biso   1.000  H
  H259     1.0000 0.45970  0.54360  0.20910  Biso   1.000  H
  H260     1.0000 0.46230  0.54600  0.23870  Biso   1.000  H
  H261     1.0000 0.37630  0.62310  0.22980  Biso   1.000  H
  H262     1.0000 0.44910  0.68170  0.20480  Biso   1.000  H
  H263     1.0000 0.56380  0.79030  0.22830  Biso   1.000  H
  H264     1.0000 0.46240  0.78990  0.23230  Biso   1.000  H
  H265     1.0000 0.33320  0.67570  0.03030  Biso   1.000  H
  H266     1.0000 0.07950  0.44150  0.04160  Biso   1.000  H
  H267     1.0000 0.30820  0.74350  0.98510  Biso   1.000  H
  H268     1.0000 0.20610  0.67090  0.97580  Biso   1.000  H
  H269     1.0000 0.27900  0.56420  0.96980  Biso   1.000  H
  H270     1.0000 0.38110  0.66310  0.96960  Biso   1.000  H
  H271     1.0000 0.32920  0.73190  0.93530  Biso   1.000  H
  H272     1.0000 0.36650  0.65820  0.92770  Biso   1.000  H
  H273     1.0000 0.19740  0.52760  0.93340  Biso   1.000  H
  H274     1.0000 0.16450  0.60650  0.93820  Biso   1.000  H
  H275     1.0000 0.23030  0.68210  0.89740  Biso   1.000  H
  H276     1.0000 0.27550  0.61310  0.89240  Biso   1.000  H
  H277     1.0000 0.14280  0.54750  0.87330  Biso   1.000  H
  H278     1.0000 0.10870  0.47760  0.89890  Biso   1.000  H
  H279     1.0000 0.94670  0.67550  0.89100  Biso   1.000  H
  H280     1.0000 0.93630  0.44090  0.91900  Biso   1.000  H
  H281     1.0000 0.46680  0.61320  0.07700  Biso   1.000  H
  H282     1.0000 0.32090  0.41970  0.03260  Biso   1.000  H
  H283     1.0000 0.62610  0.69300  0.05610  Biso   1.000  H
  H284     1.0000 0.62790  0.70010  0.02620  Biso   1.000  H
  H285     1.0000 0.66830  0.57440  0.05510  Biso   1.000  H
  H286     1.0000 0.65750  0.56790  0.02560  Biso   1.000  H
  H287     1.0000 0.78870  0.74470  0.04700  Biso   1.000  H
  H288     1.0000 0.77050  0.74690  0.01820  Biso   1.000  H
  H289     1.0000 0.86740  0.66500  0.04120  Biso   1.000  H
  H290     1.0000 0.80720  0.60940  0.01960  Biso   1.000  H
  H291     1.0000 0.96500  0.80770  0.01190  Biso   1.000  H
  H292     1.0000 0.90650  0.74910  0.99040  Biso   1.000  H
  H293     1.0000 0.04170  0.72200  0.01410  Biso   1.000  H
  H294     1.0000 0.96860  0.64090  0.99830  Biso   1.000  H
  H295     1.0000 0.12800  0.90710  0.97930  Biso   1.000  H
  H296     1.0000 0.16880  0.76940  0.92620  Biso   1.000  H
  H297     1.0000 0.37280  0.43780  0.10780  Biso   1.000  H
  H298     1.0000 0.19040  0.52580  0.13320  Biso   1.000  H
  H299     1.0000 0.28980  0.46760  0.18620  Biso   1.000  H
  H300     1.0000 0.30250  0.57210  0.17840  Biso   1.000  H
  H301     1.0000 0.15840  0.48110  0.20450  Biso   1.000  H
  H302     1.0000 0.13610  0.50170  0.17760  Biso   1.000  H
  H303     1.0000 0.08180  0.33370  0.17110  Biso   1.000  H
  H304     1.0000 0.01510  0.34520  0.19350  Biso   1.000  H
  H305     1.0000 0.16820  0.30140  0.19980  Biso   1.000  H
  H306     1.0000 0.11090  0.32210  0.22260  Biso   1.000  H
  H307     1.0000 0.02190  0.15030  0.19480  Biso   1.000  H
  H308     1.0000 0.95480  0.17460  0.21420  Biso   1.000  H
  H309     1.0000 0.04600  0.16980  0.24640  Biso   1.000  H
  H310     1.0000 0.10520  0.13760  0.22700  Biso   1.000  H
  H311     1.0000 0.03610  0.95670  0.23200  Biso   1.000  H
  H312     1.0000 0.75740  0.86270  0.25670  Biso   1.000  H
  H313     1.0000 0.53740  0.32760  0.26360  Biso   1.000  H
  H314     1.0000 0.50690  0.20630  0.20120  Biso   1.000  H
  H315     1.0000 0.51040  0.35800  0.17340  Biso   1.000  H
  H316     1.0000 0.52640  0.44750  0.18850  Biso   1.000  H
  H317     1.0000 0.69600  0.48050  0.18670  Biso   1.000  H
  H318     1.0000 0.66980  0.41220  0.16480  Biso   1.000  H
  H319     1.0000 0.75920  0.57780  0.14720  Biso   1.000  H
  H320     1.0000 0.67900  0.59890  0.16170  Biso   1.000  H
  H321     1.0000 0.64740  0.47200  0.12400  Biso   1.000  H
  H322     1.0000 0.55830  0.47220  0.14090  Biso   1.000  H
  H323     1.0000 0.60220  0.57750  0.10370  Biso   1.000  H
  H324     1.0000 0.71360  0.63740  0.10900  Biso   1.000  H
  H325     1.0000 0.67240  0.70130  0.14230  Biso   1.000  H
  H326     1.0000 0.55720  0.62640  0.14280  Biso   1.000  H
  H327     1.0000 0.53020  0.80420  0.07740  Biso   1.000  H
  H328     1.0000 0.74680  0.85350  0.11310  Biso   1.000  H
  H329     1.0000 0.93500  0.15190  0.09670  Biso   1.000  H
  H330     1.0000 0.66460  0.99330  0.12990  Biso   1.000  H
  H331     1.0000 0.68670  0.03150  0.17420  Biso   1.000  H
  H332     1.0000 0.78130  0.02340  0.17870  Biso   1.000  H
  H333     1.0000 0.87630  0.20540  0.17430  Biso   1.000  H
  H334     1.0000 0.79790  0.15820  0.19930  Biso   1.000  H
  H335     1.0000 0.68460  0.16920  0.16940  Biso   1.000  H
  H336     1.0000 0.78690  0.25900  0.15590  Biso   1.000  H
  H337     1.0000 0.69200  0.29390  0.18930  Biso   1.000  H
  H338     1.0000 0.73410  0.24820  0.20830  Biso   1.000  H
  H339     1.0000 0.83170  0.42410  0.17760  Biso   1.000  H
  H340     1.0000 0.88980  0.36720  0.17700  Biso   1.000  H
  H341     1.0000 0.91830  0.39980  0.21730  Biso   1.000  H
  H342     1.0000 0.96800  0.49220  0.19660  Biso   1.000  H
  H343     1.0000 0.33990  0.15510  0.29220  Biso   1.000  H
  H344     1.0000 0.26100  0.98490  0.23870  Biso   1.000  H
  H345     1.0000 0.48620  0.99130  0.30810  Biso   1.000  H
  H346     1.0000 0.35730  0.87620  0.24970  Biso   1.000  H
  H347     1.0000 0.25270  0.66880  0.29090  Biso   1.000  H
  H348     1.0000 0.28470  0.70100  0.26130  Biso   1.000  H
  H349     1.0000 0.35290  0.60610  0.27020  Biso   1.000  H
  H350     1.0000 0.38650  0.65390  0.29520  Biso   1.000  H
  H351     1.0000 0.51860  0.79210  0.27170  Biso   1.000  H
  H352     1.0000 0.52220  0.69470  0.26770  Biso   1.000  H
  C1       1.0000 0.84760  0.70160  0.52820  Biso   1.000  C
  C2       1.0000 0.96690  0.83090  0.53360  Biso   1.000  C
  C3       1.0000 0.84260  0.75460  0.48320  Biso   1.000  C
  C4       1.0000 0.89770  0.72110  0.46620  Biso   1.000  C
  C5       1.0000 0.89870  0.74800  0.43790  Biso   1.000  C
  C6       1.0000 0.97430  0.85510  0.42920  Biso   1.000  C
  C7       1.0000 0.98320  0.87950  0.40130  Biso   1.000  C
  C8       1.0000 0.06420  0.98050  0.39170  Biso   1.000  C
  C9       1.0000 0.97770  0.14090  0.39460  Biso   1.000  C
  C10      1.0000 0.08860  0.13370  0.40970  Biso   1.000  C
  C11      1.0000 0.86130  0.48850  0.56340  Biso   1.000  C
  C12      1.0000 0.98990  0.58740  0.53950  Biso   1.000  C
  C13      1.0000 0.80270  0.34390  0.54140  Biso   1.000  C
  C14      1.0000 0.85000  0.28800  0.53920  Biso   1.000  C
  C15      1.0000 0.76110  0.19560  0.53250  Biso   1.000  C
  C16      1.0000 0.80020  0.13160  0.52580  Biso   1.000  C
  C17      1.0000 0.75180  0.06280  0.50600  Biso   1.000  C
  C18      1.0000 0.78830  0.99630  0.50000  Biso   1.000  C
  C19      1.0000 0.67290  0.90550  0.46960  Biso   1.000  C
  C20      1.0000 0.77620  0.91420  0.44140  Biso   1.000  C
  C21      1.0000 0.92410  0.54500  0.61870  Biso   1.000  C
  C22      1.0000 0.86400  0.63170  0.63170  Biso   1.000  C
  C23      1.0000 0.82190  0.55980  0.67650  Biso   1.000  C
  C24      1.0000 0.84880  0.65390  0.68710  Biso   1.000  C
  C25      1.0000 0.95680  0.73080  0.68800  Biso   1.000  C
  C26      1.0000 0.99840  0.68910  0.70630  Biso   1.000  C
  C27      1.0000 0.10840  0.76940  0.71020  Biso   1.000  C
  C28      1.0000 0.13460  0.72710  0.73170  Biso   1.000  C
  C29      1.0000 0.30900  0.78730  0.73710  Biso   1.000  C
  C30      1.0000 0.34530  0.92390  0.75080  Biso   1.000  C
  C31      1.0000 0.93660  0.22320  0.74660  Biso   1.000  C
  C32      1.0000 0.03730  0.27190  0.71360  Biso   1.000  C
  C33      1.0000 0.91360  0.26490  0.68550  Biso   1.000  C
  C34      1.0000 0.86870  0.17210  0.67320  Biso   1.000  C
  C35      1.0000 0.79710  0.15700  0.65390  Biso   1.000  C
  C36      1.0000 0.85390  0.23830  0.63380  Biso   1.000  C
  C37      1.0000 0.78260  0.23840  0.61700  Biso   1.000  C
  C38      1.0000 0.70300  0.24740  0.63180  Biso   1.000  C
  C39      1.0000 0.61510  0.34270  0.58860  Biso   1.000  C
  C40      1.0000 0.56920  0.20760  0.60720  Biso   1.000  C
  C41      1.0000 0.26990  0.01090  0.60940  Biso   1.000  C
  C42      1.0000 0.33810  0.13920  0.62670  Biso   1.000  C
  C43      1.0000 0.26430  0.07020  0.67070  Biso   1.000  C
  C44      1.0000 0.15280  0.01360  0.68080  Biso   1.000  C
  C45      1.0000 0.10970  0.07630  0.67200  Biso   1.000  C
  C46      1.0000 0.02690  0.06220  0.69130  Biso   1.000  C
  C47      1.0000 0.93250  0.96790  0.68800  Biso   1.000  C
  C48      1.0000 0.85330  0.88970  0.70600  Biso   1.000  C
  C49      1.0000 0.10620  0.41570  0.78050  Biso   1.000  C
  C50      1.0000 0.22710  0.48850  0.75220  Biso   1.000  C
  C51      1.0000 0.25760  0.25310  0.79730  Biso   1.000  C
  C52      1.0000 0.34990  0.35490  0.76560  Biso   1.000  C
  C53      1.0000 0.51520  0.41300  0.77760  Biso   1.000  C
  C54      1.0000 0.55360  0.33970  0.77750  Biso   1.000  C
  C55      1.0000 0.50640  0.24940  0.76440  Biso   1.000  C
  C56      1.0000 0.72980  0.37580  0.97180  Biso   1.000  C
  C57      1.0000 0.86450  0.50050  0.96640  Biso   1.000  C
  C58      1.0000 0.73780  0.32580  0.01680  Biso   1.000  C
  C59      1.0000 0.68730  0.36390  0.03380  Biso   1.000  C
  C60      1.0000 0.68590  0.33660  0.06210  Biso   1.000  C
  C61      1.0000 0.78430  0.40350  0.07080  Biso   1.000  C
  C62      1.0000 0.78080  0.38450  0.09870  Biso   1.000  C
  C63      1.0000 0.87220  0.45590  0.10830  Biso   1.000  C
  C64      1.0000 0.03550  0.37230  0.10540  Biso   1.000  C
  C65      1.0000 0.04340  0.49830  0.09030  Biso   1.000  C
  C66      1.0000 0.55190  0.42470  0.93660  Biso   1.000  C
  C67      1.0000 0.62690  0.52940  0.96050  Biso   1.000  C
  C68      1.0000 0.38530  0.34410  0.95860  Biso   1.000  C
  C69      1.0000 0.32720  0.38920  0.96080  Biso   1.000  C
  C70      1.0000 0.22810  0.29360  0.96750  Biso   1.000  C
  C71      1.0000 0.15740  0.32600  0.97420  Biso   1.000  C
  C72      1.0000 0.06880  0.25780  0.99400  Biso   1.000  C
  C73      1.0000 0.99630  0.28830  0.00000  Biso   1.000  C
  C74      1.0000 0.87510  0.14250  0.03040  Biso   1.000  C
  C75      1.0000 0.85560  0.21760  0.05860  Biso   1.000  C
  C76      1.0000 0.66370  0.54280  0.88130  Biso   1.000  C
  C77      1.0000 0.76340  0.49570  0.86830  Biso   1.000  C
  C78      1.0000 0.73630  0.49840  0.82350  Biso   1.000  C
  C79      1.0000 0.84100  0.53590  0.81290  Biso   1.000  C
  C80      1.0000 0.91880  0.64480  0.81200  Biso   1.000  C
  C81      1.0000 0.89540  0.70470  0.79370  Biso   1.000  C
  C82      1.0000 0.97960  0.81860  0.78980  Biso   1.000  C
  C83      1.0000 0.95880  0.86630  0.76830  Biso   1.000  C
  C84      1.0000 0.02440  0.04610  0.76290  Biso   1.000  C
  C85      1.0000 0.17470  0.09610  0.74920  Biso   1.000  C
  C86      1.0000 0.46980  0.68320  0.75340  Biso   1.000  C
  C87      1.0000 0.48550  0.75090  0.78640  Biso   1.000  C
  C88      1.0000 0.45040  0.59910  0.81450  Biso   1.000  C
  C89      1.0000 0.34530  0.54190  0.82680  Biso   1.000  C
  C90      1.0000 0.31090  0.45100  0.84610  Biso   1.000  C
  C91      1.0000 0.37210  0.48770  0.86620  Biso   1.000  C
  C92      1.0000 0.35540  0.39960  0.88300  Biso   1.000  C
  C93      1.0000 0.37920  0.33480  0.86820  Biso   1.000  C
  C94      1.0000 0.43130  0.20370  0.91140  Biso   1.000  C
  C95      1.0000 0.31480  0.17640  0.89280  Biso   1.000  C
  C96      1.0000 0.12030  0.87930  0.89060  Biso   1.000  C
  C97      1.0000 0.26590  0.96480  0.87330  Biso   1.000  C
  C98      1.0000 0.24090  0.93500  0.82930  Biso   1.000  C
  C99      1.0000 0.19440  0.83360  0.81920  Biso   1.000  C
  C100     1.0000 0.24830  0.78170  0.82800  Biso   1.000  C
  C101     1.0000 0.25350  0.71820  0.80870  Biso   1.000  C
  C102     1.0000 0.15590  0.62050  0.81200  Biso   1.000  C
  C103     1.0000 0.09570  0.55930  0.79400  Biso   1.000  C
  C104     1.0000 0.69620  0.88670  0.71950  Biso   1.000  C
  C105     1.0000 0.74070  0.97930  0.74780  Biso   1.000  C
  C106     1.0000 0.55040  0.05490  0.70270  Biso   1.000  C
  C107     1.0000 0.62050  0.11550  0.73440  Biso   1.000  C
  C108     1.0000 0.69060  0.29280  0.72240  Biso   1.000  C
  C109     1.0000 0.61720  0.33110  0.72250  Biso   1.000  C
  C110     1.0000 0.51380  0.27080  0.73560  Biso   1.000  C
  C111     1.0000 0.15240  0.29840  0.47180  Biso   1.000  C
  C112     1.0000 0.03310  0.16910  0.46640  Biso   1.000  C
  C113     1.0000 0.15740  0.24540  0.51680  Biso   1.000  C
  C114     1.0000 0.10230  0.27890  0.53380  Biso   1.000  C
  C115     1.0000 0.10130  0.25200  0.56210  Biso   1.000  C
  C116     1.0000 0.02570  0.14490  0.57080  Biso   1.000  C
  C117     1.0000 0.01680  0.12050  0.59870  Biso   1.000  C
  C118     1.0000 0.93580  0.01950  0.60830  Biso   1.000  C
  C119     1.0000 0.02230  0.85910  0.60540  Biso   1.000  C
  C120     1.0000 0.91140  0.86630  0.59030  Biso   1.000  C
  C121     1.0000 0.13870  0.51150  0.43660  Biso   1.000  C
  C122     1.0000 0.01010  0.41260  0.46050  Biso   1.000  C
  C123     1.0000 0.19730  0.65610  0.45860  Biso   1.000  C
  C124     1.0000 0.15000  0.71200  0.46080  Biso   1.000  C
  C125     1.0000 0.23890  0.80440  0.46750  Biso   1.000  C
  C126     1.0000 0.19980  0.86840  0.47420  Biso   1.000  C
  C127     1.0000 0.24820  0.93720  0.49400  Biso   1.000  C
  C128     1.0000 0.21170  0.00370  0.50000  Biso   1.000  C
  C129     1.0000 0.32710  0.09450  0.53040  Biso   1.000  C
  C130     1.0000 0.22380  0.08580  0.55860  Biso   1.000  C
  C131     1.0000 0.07590  0.45500  0.38130  Biso   1.000  C
  C132     1.0000 0.13600  0.36830  0.36830  Biso   1.000  C
  C133     1.0000 0.17810  0.44020  0.32350  Biso   1.000  C
  C134     1.0000 0.15120  0.34610  0.31290  Biso   1.000  C
  C135     1.0000 0.04320  0.26920  0.31200  Biso   1.000  C
  C136     1.0000 0.00160  0.31090  0.29370  Biso   1.000  C
  C137     1.0000 0.89160  0.23060  0.28980  Biso   1.000  C
  C138     1.0000 0.86540  0.27290  0.26830  Biso   1.000  C
  C139     1.0000 0.69100  0.21270  0.26290  Biso   1.000  C
  C140     1.0000 0.65470  0.07610  0.24920  Biso   1.000  C
  C141     1.0000 0.06340  0.77680  0.25340  Biso   1.000  C
  C142     1.0000 0.96270  0.72810  0.28640  Biso   1.000  C
  C143     1.0000 0.08640  0.73510  0.31450  Biso   1.000  C
  C144     1.0000 0.13130  0.82790  0.32680  Biso   1.000  C
  C145     1.0000 0.20290  0.84300  0.34610  Biso   1.000  C
  C146     1.0000 0.14610  0.76170  0.36620  Biso   1.000  C
  C147     1.0000 0.21740  0.76160  0.38300  Biso   1.000  C
  C148     1.0000 0.29700  0.75260  0.36820  Biso   1.000  C
  C149     1.0000 0.38490  0.65730  0.41140  Biso   1.000  C
  C150     1.0000 0.43080  0.79240  0.39280  Biso   1.000  C
  C151     1.0000 0.73010  0.98910  0.39060  Biso   1.000  C
  C152     1.0000 0.66190  0.86080  0.37330  Biso   1.000  C
  C153     1.0000 0.73570  0.92980  0.32930  Biso   1.000  C
  C154     1.0000 0.84720  0.98640  0.31920  Biso   1.000  C
  C155     1.0000 0.89030  0.92370  0.32800  Biso   1.000  C
  C156     1.0000 0.97310  0.93780  0.30870  Biso   1.000  C
  C157     1.0000 0.06750  0.03210  0.31200  Biso   1.000  C
  C158     1.0000 0.14670  0.11030  0.29400  Biso   1.000  C
  C159     1.0000 0.89380  0.58430  0.21950  Biso   1.000  C
  C160     1.0000 0.77290  0.51150  0.24780  Biso   1.000  C
  C161     1.0000 0.74240  0.74690  0.20270  Biso   1.000  C
  C162     1.0000 0.65010  0.64510  0.23440  Biso   1.000  C
  C163     1.0000 0.48480  0.58700  0.22240  Biso   1.000  C
  C164     1.0000 0.44640  0.66030  0.22250  Biso   1.000  C
  C165     1.0000 0.49360  0.75060  0.23560  Biso   1.000  C
  C166     1.0000 0.27020  0.62420  0.02820  Biso   1.000  C
  C167     1.0000 0.13550  0.49950  0.03360  Biso   1.000  C
  C168     1.0000 0.26220  0.67420  0.98320  Biso   1.000  C
  C169     1.0000 0.31270  0.63610  0.96620  Biso   1.000  C
  C170     1.0000 0.31410  0.66340  0.93790  Biso   1.000  C
  C171     1.0000 0.21570  0.59650  0.92920  Biso   1.000  C
  C172     1.0000 0.21920  0.61550  0.90130  Biso   1.000  C
  C173     1.0000 0.12780  0.54410  0.89170  Biso   1.000  C
  C174     1.0000 0.96450  0.62770  0.89460  Biso   1.000  C
  C175     1.0000 0.95660  0.50170  0.90970  Biso   1.000  C
  C176     1.0000 0.44810  0.57530  0.06340  Biso   1.000  C
  C177     1.0000 0.37310  0.47060  0.03950  Biso   1.000  C
  C178     1.0000 0.61470  0.65590  0.04140  Biso   1.000  C
  C179     1.0000 0.67280  0.61080  0.03920  Biso   1.000  C
  C180     1.0000 0.77190  0.70640  0.03250  Biso   1.000  C
  C181     1.0000 0.84260  0.67400  0.02580  Biso   1.000  C
  C182     1.0000 0.93120  0.74220  0.00600  Biso   1.000  C
  C183     1.0000 0.00370  0.71170  0.00000  Biso   1.000  C
  C184     1.0000 0.12490  0.85750  0.96960  Biso   1.000  C
  C185     1.0000 0.14440  0.78240  0.94140  Biso   1.000  C
  C186     1.0000 0.33630  0.45720  0.11870  Biso   1.000  C
  C187     1.0000 0.23660  0.50430  0.13170  Biso   1.000  C
  C188     1.0000 0.26370  0.50160  0.17650  Biso   1.000  C
  C189     1.0000 0.15900  0.46410  0.18710  Biso   1.000  C
  C190     1.0000 0.08120  0.35520  0.18800  Biso   1.000  C
  C191     1.0000 0.10460  0.29530  0.20630  Biso   1.000  C
  C192     1.0000 0.02040  0.18140  0.21020  Biso   1.000  C
  C193     1.0000 0.04120  0.13370  0.23170  Biso   1.000  C
  C194     1.0000 0.97560  0.95390  0.23710  Biso   1.000  C
  C195     1.0000 0.82530  0.90390  0.25080  Biso   1.000  C
  C196     1.0000 0.53020  0.31680  0.24660  Biso   1.000  C
  C197     1.0000 0.51450  0.24910  0.21360  Biso   1.000  C
  C198     1.0000 0.54960  0.40090  0.18550  Biso   1.000  C
  C199     1.0000 0.65470  0.45810  0.17320  Biso   1.000  C
  C200     1.0000 0.68910  0.54900  0.15390  Biso   1.000  C
  C201     1.0000 0.62790  0.51230  0.13380  Biso   1.000  C
  C202     1.0000 0.64460  0.60040  0.11700  Biso   1.000  C
  C203     1.0000 0.62080  0.66520  0.13180  Biso   1.000  C
  C204     1.0000 0.56870  0.79630  0.08860  Biso   1.000  C
  C205     1.0000 0.68520  0.82360  0.10720  Biso   1.000  C
  C206     1.0000 0.87970  0.12070  0.10940  Biso   1.000  C
  C207     1.0000 0.73410  0.03520  0.12670  Biso   1.000  C
  C208     1.0000 0.75910  0.06500  0.17070  Biso   1.000  C
  C209     1.0000 0.80560  0.16640  0.18080  Biso   1.000  C
  C210     1.0000 0.75170  0.21830  0.17200  Biso   1.000  C
  C211     1.0000 0.74650  0.28180  0.19130  Biso   1.000  C
  C212     1.0000 0.84410  0.37950  0.18800  Biso   1.000  C
  C213     1.0000 0.90430  0.44070  0.20600  Biso   1.000  C
  C214     1.0000 0.30380  0.11330  0.28050  Biso   1.000  C
  C215     1.0000 0.25930  0.02070  0.25220  Biso   1.000  C
  C216     1.0000 0.44960  0.94510  0.29730  Biso   1.000  C
  C217     1.0000 0.37950  0.88450  0.26560  Biso   1.000  C
  C218     1.0000 0.30940  0.70720  0.27760  Biso   1.000  C
  C219     1.0000 0.38280  0.66890  0.27750  Biso   1.000  C
  C220     1.0000 0.48620  0.72920  0.26440  Biso   1.000  C
  N1       1.0000 0.90720  0.74400  0.54480  Biso   1.000  N
  N2       1.0000 0.95670  0.84940  0.51170  Biso   1.000  N
  N3       1.0000 0.87550  0.76560  0.50810  Biso   1.000  N
  N4       1.0000 0.96960  0.06080  0.38700  Biso   1.000  N
  N5       1.0000 0.04490  0.05880  0.39710  Biso   1.000  N
  N6       1.0000 0.94840  0.80760  0.59220  Biso   1.000  N
  N7       1.0000 0.91800  0.57800  0.55960  Biso   1.000  N
  N8       1.0000 0.96230  0.49990  0.53200  Biso   1.000  N
  N9       1.0000 0.88470  0.44170  0.54460  Biso   1.000  N
  N10      1.0000 0.75820  0.95100  0.47680  Biso   1.000  N
  N11      1.0000 0.82920  0.96140  0.45860  Biso   1.000  N
  N12      1.0000 0.32120  0.12060  0.55300  Biso   1.000  N
  N13      1.0000 0.90330  0.61810  0.61060  Biso   1.000  N
  N14      1.0000 0.89730  0.51650  0.64260  Biso   1.000  N
  N15      1.0000 0.86140  0.57370  0.65050  Biso   1.000  N
  N16      1.0000 0.25010  0.88020  0.74770  Biso   1.000  N
  N17      1.0000 0.23250  0.79850  0.73840  Biso   1.000  N
  N18      1.0000 0.11120  0.12790  0.75570  Biso   1.000  N
  N19      1.0000 0.03250  0.24910  0.73740  Biso   1.000  N
  N20      1.0000 0.88900  0.23490  0.73030  Biso   1.000  N
  N21      1.0000 0.95170  0.26280  0.70950  Biso   1.000  N
  N22      1.0000 0.65410  0.27000  0.61370  Biso   1.000  N
  N23      1.0000 0.68050  0.35840  0.60190  Biso   1.000  N
  N24      1.0000 0.53980  0.24970  0.59130  Biso   1.000  N
  N25      1.0000 0.34050  0.10620  0.60490  Biso   1.000  N
  N26      1.0000 0.27340  0.06460  0.64340  Biso   1.000  N
  N27      1.0000 0.22980  0.98320  0.63280  Biso   1.000  N
  N28      1.0000 0.21740  0.56010  0.76190  Biso   1.000  N
  N29      1.0000 0.16050  0.39800  0.76330  Biso   1.000  N
  N30      1.0000 0.79040  0.91780  0.72140  Biso   1.000  N
  N31      1.0000 0.25470  0.29290  0.77420  Biso   1.000  N
  N32      1.0000 0.34520  0.28680  0.80240  Biso   1.000  N
  N33      1.0000 0.40520  0.35470  0.78230  Biso   1.000  N
  N34      1.0000 0.78880  0.45200  0.95520  Biso   1.000  N
  N35      1.0000 0.86110  0.46840  0.98830  Biso   1.000  N
  N36      1.0000 0.77370  0.38360  0.99190  Biso   1.000  N
  N37      1.0000 0.94780  0.35660  0.11300  Biso   1.000  N
  N38      1.0000 0.95590  0.44200  0.10290  Biso   1.000  N
  N39      1.0000 0.89980  0.54060  0.90780  Biso   1.000  N
  N40      1.0000 0.63760  0.47760  0.94040  Biso   1.000  N
  N41      1.0000 0.53190  0.49430  0.96800  Biso   1.000  N
  N42      1.0000 0.48630  0.42930  0.95540  Biso   1.000  N
  N43      1.0000 0.92780  0.23500  0.02320  Biso   1.000  N
  N44      1.0000 0.92000  0.28780  0.04140  Biso   1.000  N
  N45      1.0000 0.17360  0.87420  0.94700  Biso   1.000  N
  N46      1.0000 0.72870  0.51390  0.88940  Biso   1.000  N
  N47      1.0000 0.65910  0.53990  0.85740  Biso   1.000  N
  N48      1.0000 0.72420  0.51190  0.84950  Biso   1.000  N
  N49      1.0000 0.12790  0.99780  0.75230  Biso   1.000  N
  N50      1.0000 0.03690  0.97090  0.76160  Biso   1.000  N
  N51      1.0000 0.38360  0.86690  0.74430  Biso   1.000  N
  N52      1.0000 0.48650  0.76990  0.76260  Biso   1.000  N
  N53      1.0000 0.46520  0.61930  0.76970  Biso   1.000  N
  N54      1.0000 0.47230  0.66120  0.79050  Biso   1.000  N
  N55      1.0000 0.38370  0.26780  0.88630  Biso   1.000  N
  N56      1.0000 0.46030  0.28240  0.89810  Biso   1.000  N
  N57      1.0000 0.34100  0.13110  0.90870  Biso   1.000  N
  N58      1.0000 0.21110  0.94540  0.89510  Biso   1.000  N
  N59      1.0000 0.20800  0.91680  0.85660  Biso   1.000  N
  N60      1.0000 0.11600  0.86260  0.86720  Biso   1.000  N
  N61      1.0000 0.82200  0.97930  0.73810  Biso   1.000  N
  N62      1.0000 0.66130  0.92380  0.73670  Biso   1.000  N
  N63      1.0000 0.13920  0.51180  0.77860  Biso   1.000  N
  N64      1.0000 0.56710  0.02890  0.72580  Biso   1.000  N
  N65      1.0000 0.58920  0.14760  0.69760  Biso   1.000  N
  N66      1.0000 0.63700  0.18750  0.71770  Biso   1.000  N
  N67      1.0000 0.09280  0.25600  0.45520  Biso   1.000  N
  N68      1.0000 0.04330  0.15060  0.48830  Biso   1.000  N
  N69      1.0000 0.12450  0.23440  0.49190  Biso   1.000  N
  N70      1.0000 0.03040  0.93920  0.61300  Biso   1.000  N
  N71      1.0000 0.95510  0.94120  0.60290  Biso   1.000  N
  N72      1.0000 0.05160  0.19240  0.40780  Biso   1.000  N
  N73      1.0000 0.08200  0.42200  0.44040  Biso   1.000  N
  N74      1.0000 0.03770  0.50010  0.46800  Biso   1.000  N
  N75      1.0000 0.11530  0.55830  0.45540  Biso   1.000  N
  N76      1.0000 0.24180  0.04900  0.52320  Biso   1.000  N
  N77      1.0000 0.17080  0.03860  0.54140  Biso   1.000  N
  N78      1.0000 0.67880  0.87940  0.44700  Biso   1.000  N
  N79      1.0000 0.09670  0.38190  0.38940  Biso   1.000  N
  N80      1.0000 0.10270  0.48350  0.35740  Biso   1.000  N
  N81      1.0000 0.13860  0.42630  0.34950  Biso   1.000  N
  N82      1.0000 0.74990  0.11980  0.25230  Biso   1.000  N
  N83      1.0000 0.76750  0.20150  0.26160  Biso   1.000  N
  N84      1.0000 0.88880  0.87210  0.24430  Biso   1.000  N
  N85      1.0000 0.96750  0.75090  0.26260  Biso   1.000  N
  N86      1.0000 0.11100  0.76510  0.26970  Biso   1.000  N
  N87      1.0000 0.04830  0.73720  0.29050  Biso   1.000  N
  N88      1.0000 0.34590  0.73000  0.38630  Biso   1.000  N
  N89      1.0000 0.31950  0.64160  0.39810  Biso   1.000  N
  N90      1.0000 0.46020  0.75030  0.40870  Biso   1.000  N
  N91      1.0000 0.65950  0.89380  0.39510  Biso   1.000  N
  N92      1.0000 0.72660  0.93540  0.35660  Biso   1.000  N
  N93      1.0000 0.77020  0.01680  0.36720  Biso   1.000  N
  N94      1.0000 0.78260  0.43990  0.23810  Biso   1.000  N
  N95      1.0000 0.83950  0.60200  0.23670  Biso   1.000  N
  N96      1.0000 0.20960  0.08220  0.27860  Biso   1.000  N
  N97      1.0000 0.74530  0.70710  0.22580  Biso   1.000  N
  N98      1.0000 0.65480  0.71320  0.19760  Biso   1.000  N
  N99      1.0000 0.59480  0.64530  0.21770  Biso   1.000  N
  N100     1.0000 0.21120  0.54800  0.04480  Biso   1.000  N
  N101     1.0000 0.13890  0.53160  0.01170  Biso   1.000  N
  N102     1.0000 0.22630  0.61640  0.00810  Biso   1.000  N
  N103     1.0000 0.05220  0.64340  0.88700  Biso   1.000  N
  N104     1.0000 0.04410  0.55800  0.89710  Biso   1.000  N
  N105     1.0000 0.10020  0.45940  0.09220  Biso   1.000  N
  N106     1.0000 0.36240  0.52240  0.05960  Biso   1.000  N
  N107     1.0000 0.46810  0.50570  0.03200  Biso   1.000  N
  N108     1.0000 0.51370  0.57070  0.04460  Biso   1.000  N
  N109     1.0000 0.07220  0.76500  0.97680  Biso   1.000  N
  N110     1.0000 0.08000  0.71220  0.95860  Biso   1.000  N
  N111     1.0000 0.82640  0.12580  0.05300  Biso   1.000  N
  N112     1.0000 0.27130  0.48610  0.11060  Biso   1.000  N
  N113     1.0000 0.34090  0.46010  0.14260  Biso   1.000  N
  N114     1.0000 0.27580  0.48810  0.15050  Biso   1.000  N
  N115     1.0000 0.87210  0.00220  0.24770  Biso   1.000  N
  N116     1.0000 0.96310  0.02910  0.23840  Biso   1.000  N
  N117     1.0000 0.61640  0.13310  0.25570  Biso   1.000  N
  N118     1.0000 0.51350  0.23010  0.23740  Biso   1.000  N
  N119     1.0000 0.53480  0.38070  0.23030  Biso   1.000  N
  N120     1.0000 0.52770  0.33880  0.20950  Biso   1.000  N
  N121     1.0000 0.61630  0.73220  0.11370  Biso   1.000  N
  N122     1.0000 0.53970  0.71760  0.10190  Biso   1.000  N
  N123     1.0000 0.65900  0.86890  0.09130  Biso   1.000  N
  N124     1.0000 0.78890  0.05460  0.10490  Biso   1.000  N
  N125     1.0000 0.79200  0.08320  0.14340  Biso   1.000  N
  N126     1.0000 0.88400  0.13740  0.13280  Biso   1.000  N
  N127     1.0000 0.17800  0.02070  0.26190  Biso   1.000  N
  N128     1.0000 0.33870  0.07620  0.26330  Biso   1.000  N
  N129     1.0000 0.86080  0.48820  0.22140  Biso   1.000  N
  N130     1.0000 0.43290  0.97110  0.27420  Biso   1.000  N
  N131     1.0000 0.41080  0.85240  0.30240  Biso   1.000  N
  N132     1.0000 0.36300  0.81250  0.28230  Biso   1.000  N
  O1       1.0000 0.51420  0.27880  0.54280  Biso   1.000  O
  O2       1.0000 0.32160  0.05700  0.95720  Biso   1.000  O
  O3       1.0000 0.48580  0.72120  0.45720  Biso   1.000  O
  O4       1.0000 0.67840  0.94300  0.04280  Biso   1.000  O
