data_image0
_cell_length_a       32.223
_cell_length_b       32.223
_cell_length_c       20.8273
_cell_angle_alpha    90
_cell_angle_beta     90
_cell_angle_gamma    120

_symmetry_space_group_name_H-M    "P 1"
_symmetry_int_tables_number       1

loop_
  _symmetry_equiv_pos_as_xyz
  'x, y, z'

loop_
  _atom_site_label
  _atom_site_occupancy
  _atom_site_fract_x
  _atom_site_fract_y
  _atom_site_fract_z
  _atom_site_thermal_displace_type
  _atom_site_B_iso_or_equiv
  _atom_site_type_symbol
  Ag1      1.0000 0.14932  0.04590  0.23113  Biso   1.000  Ag
  Ag2      1.0000 0.37039  0.04775  0.33030  Biso   1.000  Ag
  N1       1.0000 0.30390  0.05850  0.30940  Biso   1.000  N
  N2       1.0000 0.22050  0.05740  0.26860  Biso   1.000  N
  C1       1.0000 0.24590  0.04730  0.22830  Biso   1.000  C
  C2       1.0000 0.28760  0.04740  0.24930  Biso   1.000  C
  C3       1.0000 0.27890  0.07090  0.34940  Biso   1.000  C
  C4       1.0000 0.29550  0.08420  0.41420  Biso   1.000  C
  H1       1.0000 0.32410  0.08530  0.42790  Biso   1.000  H
  C5       1.0000 0.27000  0.09520  0.45560  Biso   1.000  C
  H2       1.0000 0.28030  0.10240  0.49900  Biso   1.000  H
  C6       1.0000 0.22840  0.09610  0.43580  Biso   1.000  C
  H3       1.0000 0.21220  0.10570  0.46520  Biso   1.000  H
  C7       1.0000 0.21080  0.08290  0.37260  Biso   1.000  C
  H4       1.0000 0.18250  0.08250  0.35910  Biso   1.000  H
  C8       1.0000 0.23700  0.07020  0.33030  Biso   1.000  C
  N3       1.0000 0.18900  0.03330  0.14560  Biso   1.000  N
  N4       1.0000 0.24210  0.01260  0.05760  Biso   1.000  N
  C9       1.0000 0.25650  0.02440  0.11720  Biso   1.000  C
  C10      1.0000 0.22920  0.03520  0.16320  Biso   1.000  C
  C11      1.0000 0.17370  0.02230  0.08290  Biso   1.000  C
  C12      1.0000 0.13200  0.02040  0.06420  Biso   1.000  C
  H5       1.0000 0.11340  0.02640  0.09410  Biso   1.000  H
  C13      1.0000 0.11780  0.00970  0.00150  Biso   1.000  C
  H6       1.0000 0.08890  0.00850  0.98840  Biso   1.000  H
  C14      1.0000 0.14330  0.00070  0.95750  Biso   1.000  C
  H7       1.0000 0.13220  0.99370  0.91440  Biso   1.000  H
  C15      1.0000 0.18540  0.00140  0.97410  Biso   1.000  C
  H8       1.0000 0.20290  0.99470  0.94320  Biso   1.000  H
  C16      1.0000 0.20160  0.01250  0.03860  Biso   1.000  C
  N5       1.0000 0.32230  0.01190  0.09790  Biso   1.000  N
  N6       1.0000 0.35220  0.03200  0.22590  Biso   1.000  N
  C17      1.0000 0.31460  0.03440  0.20480  Biso   1.000  C
  C18      1.0000 0.29960  0.02320  0.13900  Biso   1.000  C
  C19      1.0000 0.36160  0.01030  0.11820  Biso   1.000  C
  C20      1.0000 0.38660  0.99770  0.07540  Biso   1.000  C
  H9       1.0000 0.37650  0.99020  0.03200  Biso   1.000  H
  C21      1.0000 0.42680  0.99620  0.09710  Biso   1.000  C
  H10      1.0000 0.44440  0.98850  0.06780  Biso   1.000  H
  C22      1.0000 0.44140  0.00590  0.16060  Biso   1.000  C
  H11      1.0000 0.46880  0.00460  0.17420  Biso   1.000  H
  C23      1.0000 0.41690  0.01730  0.20360  Biso   1.000  C
  H12      1.0000 0.42690  0.02370  0.24720  Biso   1.000  H
  C24      1.0000 0.37640  0.01950  0.18300  Biso   1.000  C
  N7       1.0000 0.07150  0.97660  0.23690  Biso   1.000  N
  N8       1.0000 0.97560  0.90440  0.23640  Biso   1.000  N
  C25      1.0000 0.98770  0.95050  0.24000  Biso   1.000  C
  C26      1.0000 0.03660  0.98660  0.24070  Biso   1.000  C
  C27      1.0000 0.05940  0.93040  0.23320  Biso   1.000  C
  C28      1.0000 0.09560  0.91720  0.22670  Biso   1.000  C
  H13      1.0000 0.12860  0.94110  0.22770  Biso   1.000  H
  C29      1.0000 0.08270  0.87070  0.21930  Biso   1.000  C
  H14      1.0000 0.10690  0.86250  0.21280  Biso   1.000  H
  C30      1.0000 0.03520  0.83460  0.22100  Biso   1.000  C
  H15      1.0000 0.02760  0.80210  0.21760  Biso   1.000  H
  C31      1.0000 0.99880  0.84480  0.22740  Biso   1.000  C
  H16      1.0000 0.96630  0.81980  0.22830  Biso   1.000  H
  C32      1.0000 0.01080  0.89360  0.23260  Biso   1.000  C
  Ag3      1.0000 0.81599  0.37923  0.56446  Biso   1.000  Ag
  Ag4      1.0000 0.03706  0.38108  0.66363  Biso   1.000  Ag
  N9       1.0000 0.97057  0.39183  0.64273  Biso   1.000  N
  N10      1.0000 0.88717  0.39073  0.60193  Biso   1.000  N
  C33      1.0000 0.91257  0.38063  0.56163  Biso   1.000  C
  C34      1.0000 0.95427  0.38073  0.58263  Biso   1.000  C
  C35      1.0000 0.94557  0.40423  0.68273  Biso   1.000  C
  C36      1.0000 0.96217  0.41753  0.74753  Biso   1.000  C
  H17      1.0000 0.99077  0.41863  0.76123  Biso   1.000  H
  C37      1.0000 0.93667  0.42853  0.78893  Biso   1.000  C
  H18      1.0000 0.94697  0.43573  0.83233  Biso   1.000  H
  C38      1.0000 0.89507  0.42943  0.76913  Biso   1.000  C
  H19      1.0000 0.87887  0.43903  0.79853  Biso   1.000  H
  C39      1.0000 0.87747  0.41623  0.70593  Biso   1.000  C
  H20      1.0000 0.84917  0.41583  0.69243  Biso   1.000  H
  C40      1.0000 0.90367  0.40353  0.66363  Biso   1.000  C
  N11      1.0000 0.85567  0.36663  0.47893  Biso   1.000  N
  N12      1.0000 0.90877  0.34593  0.39093  Biso   1.000  N
  C41      1.0000 0.92317  0.35773  0.45053  Biso   1.000  C
  C42      1.0000 0.89587  0.36853  0.49653  Biso   1.000  C
  C43      1.0000 0.84037  0.35563  0.41623  Biso   1.000  C
  C44      1.0000 0.79867  0.35373  0.39753  Biso   1.000  C
  H21      1.0000 0.78007  0.35973  0.42743  Biso   1.000  H
  C45      1.0000 0.78447  0.34303  0.33483  Biso   1.000  C
  H22      1.0000 0.75557  0.34183  0.32173  Biso   1.000  H
  C46      1.0000 0.80997  0.33403  0.29083  Biso   1.000  C
  H23      1.0000 0.79887  0.32703  0.24773  Biso   1.000  H
  C47      1.0000 0.85207  0.33473  0.30743  Biso   1.000  C
  H24      1.0000 0.86957  0.32803  0.27653  Biso   1.000  H
  C48      1.0000 0.86827  0.34583  0.37193  Biso   1.000  C
  N13      1.0000 0.98897  0.34523  0.43123  Biso   1.000  N
  N14      1.0000 0.01887  0.36533  0.55923  Biso   1.000  N
  C49      1.0000 0.98127  0.36773  0.53813  Biso   1.000  C
  C50      1.0000 0.96627  0.35653  0.47233  Biso   1.000  C
  C51      1.0000 0.02827  0.34363  0.45153  Biso   1.000  C
  C52      1.0000 0.05327  0.33103  0.40873  Biso   1.000  C
  H25      1.0000 0.04317  0.32353  0.36533  Biso   1.000  H
  C53      1.0000 0.09347  0.32953  0.43043  Biso   1.000  C
  H26      1.0000 0.11107  0.32183  0.40113  Biso   1.000  H
  C54      1.0000 0.10807  0.33923  0.49393  Biso   1.000  C
  H27      1.0000 0.13547  0.33793  0.50753  Biso   1.000  H
  C55      1.0000 0.08357  0.35063  0.53693  Biso   1.000  C
  H28      1.0000 0.09357  0.35703  0.58053  Biso   1.000  H
  C56      1.0000 0.04307  0.35283  0.51633  Biso   1.000  C
  N15      1.0000 0.73817  0.30993  0.57023  Biso   1.000  N
  N16      1.0000 0.64227  0.23773  0.56973  Biso   1.000  N
  C57      1.0000 0.65437  0.28383  0.57333  Biso   1.000  C
  C58      1.0000 0.70327  0.31993  0.57403  Biso   1.000  C
  C59      1.0000 0.72607  0.26373  0.56653  Biso   1.000  C
  C60      1.0000 0.76227  0.25053  0.56003  Biso   1.000  C
  H29      1.0000 0.79527  0.27443  0.56103  Biso   1.000  H
  C61      1.0000 0.74937  0.20403  0.55263  Biso   1.000  C
  H30      1.0000 0.77357  0.19583  0.54613  Biso   1.000  H
  C62      1.0000 0.70187  0.16793  0.55433  Biso   1.000  C
  H31      1.0000 0.69427  0.13543  0.55093  Biso   1.000  H
  C63      1.0000 0.66547  0.17813  0.56073  Biso   1.000  C
  H32      1.0000 0.63297  0.15313  0.56163  Biso   1.000  H
  C64      1.0000 0.67747  0.22693  0.56593  Biso   1.000  C
  Ag5      1.0000 0.48265  0.71257  0.89780  Biso   1.000  Ag
  Ag6      1.0000 0.70372  0.71442  0.99697  Biso   1.000  Ag
  N17      1.0000 0.63723  0.72517  0.97607  Biso   1.000  N
  N18      1.0000 0.55383  0.72407  0.93527  Biso   1.000  N
  C65      1.0000 0.57923  0.71397  0.89497  Biso   1.000  C
  C66      1.0000 0.62093  0.71407  0.91597  Biso   1.000  C
  C67      1.0000 0.61223  0.73757  0.01607  Biso   1.000  C
  C68      1.0000 0.62883  0.75087  0.08087  Biso   1.000  C
  H33      1.0000 0.65743  0.75197  0.09457  Biso   1.000  H
  C69      1.0000 0.60333  0.76187  0.12227  Biso   1.000  C
  H34      1.0000 0.61363  0.76907  0.16567  Biso   1.000  H
  C70      1.0000 0.56173  0.76277  0.10247  Biso   1.000  C
  H35      1.0000 0.54553  0.77237  0.13187  Biso   1.000  H
  C71      1.0000 0.54413  0.74957  0.03927  Biso   1.000  C
  H36      1.0000 0.51583  0.74917  0.02577  Biso   1.000  H
  C72      1.0000 0.57033  0.73687  0.99697  Biso   1.000  C
  N19      1.0000 0.52233  0.69997  0.81227  Biso   1.000  N
  N20      1.0000 0.57543  0.67927  0.72427  Biso   1.000  N
  C73      1.0000 0.58983  0.69107  0.78387  Biso   1.000  C
  C74      1.0000 0.56253  0.70187  0.82987  Biso   1.000  C
  C75      1.0000 0.50703  0.68897  0.74957  Biso   1.000  C
  C76      1.0000 0.46533  0.68707  0.73087  Biso   1.000  C
  H37      1.0000 0.44673  0.69307  0.76077  Biso   1.000  H
  C77      1.0000 0.45113  0.67637  0.66817  Biso   1.000  C
  H38      1.0000 0.42223  0.67517  0.65507  Biso   1.000  H
  C78      1.0000 0.47663  0.66737  0.62417  Biso   1.000  C
  H39      1.0000 0.46553  0.66037  0.58107  Biso   1.000  H
  C79      1.0000 0.51873  0.66807  0.64077  Biso   1.000  C
  H40      1.0000 0.53623  0.66137  0.60987  Biso   1.000  H
  C80      1.0000 0.53493  0.67917  0.70527  Biso   1.000  C
  N21      1.0000 0.65563  0.67857  0.76457  Biso   1.000  N
  N22      1.0000 0.68553  0.69867  0.89257  Biso   1.000  N
  C81      1.0000 0.64793  0.70107  0.87147  Biso   1.000  C
  C82      1.0000 0.63293  0.68987  0.80567  Biso   1.000  C
  C83      1.0000 0.69493  0.67697  0.78487  Biso   1.000  C
  C84      1.0000 0.71993  0.66437  0.74207  Biso   1.000  C
  H41      1.0000 0.70983  0.65687  0.69867  Biso   1.000  H
  C85      1.0000 0.76013  0.66287  0.76377  Biso   1.000  C
  H42      1.0000 0.77773  0.65517  0.73447  Biso   1.000  H
  C86      1.0000 0.77473  0.67257  0.82727  Biso   1.000  C
  H43      1.0000 0.80213  0.67127  0.84087  Biso   1.000  H
  C87      1.0000 0.75023  0.68397  0.87027  Biso   1.000  C
  H44      1.0000 0.76023  0.69037  0.91387  Biso   1.000  H
  C88      1.0000 0.70973  0.68617  0.84967  Biso   1.000  C
  N23      1.0000 0.40483  0.64327  0.90357  Biso   1.000  N
  N24      1.0000 0.30893  0.57107  0.90307  Biso   1.000  N
  C89      1.0000 0.32103  0.61717  0.90667  Biso   1.000  C
  C90      1.0000 0.36993  0.65327  0.90737  Biso   1.000  C
  C91      1.0000 0.39273  0.59707  0.89987  Biso   1.000  C
  C92      1.0000 0.42893  0.58387  0.89337  Biso   1.000  C
  H45      1.0000 0.46193  0.60777  0.89437  Biso   1.000  H
  C93      1.0000 0.41603  0.53737  0.88597  Biso   1.000  C
  H46      1.0000 0.44023  0.52917  0.87947  Biso   1.000  H
  C94      1.0000 0.36853  0.50127  0.88767  Biso   1.000  C
  H47      1.0000 0.36093  0.46877  0.88427  Biso   1.000  H
  C95      1.0000 0.33213  0.51147  0.89407  Biso   1.000  C
  H48      1.0000 0.29963  0.48647  0.89497  Biso   1.000  H
  C96      1.0000 0.34413  0.56027  0.89927  Biso   1.000  C
  Ag7      1.0000 0.95410  0.10342  0.23113  Biso   1.000  Ag
  Ag8      1.0000 0.95225  0.32264  0.33030  Biso   1.000  Ag
  N25      1.0000 0.94150  0.24540  0.30940  Biso   1.000  N
  N26      1.0000 0.94260  0.16310  0.26860  Biso   1.000  N
  C97      1.0000 0.95270  0.19860  0.22830  Biso   1.000  C
  C98      1.0000 0.95260  0.24020  0.24930  Biso   1.000  C
  C99      1.0000 0.92910  0.20800  0.34940  Biso   1.000  C
  C100     1.0000 0.91580  0.21130  0.41420  Biso   1.000  C
  H49      1.0000 0.91470  0.23880  0.42790  Biso   1.000  H
  C101     1.0000 0.90480  0.17480  0.45560  Biso   1.000  C
  H50      1.0000 0.89760  0.17790  0.49900  Biso   1.000  H
  C102     1.0000 0.90390  0.13230  0.43580  Biso   1.000  C
  H51      1.0000 0.89430  0.10650  0.46520  Biso   1.000  H
  C103     1.0000 0.91710  0.12790  0.37260  Biso   1.000  C
  H52      1.0000 0.91750  0.10000  0.35910  Biso   1.000  H
  C104     1.0000 0.92980  0.16680  0.33030  Biso   1.000  C
  N27      1.0000 0.96670  0.15570  0.14560  Biso   1.000  N
  N28      1.0000 0.98740  0.22950  0.05760  Biso   1.000  N
  C105     1.0000 0.97560  0.23210  0.11720  Biso   1.000  C
  C106     1.0000 0.96480  0.19400  0.16320  Biso   1.000  C
  C107     1.0000 0.97770  0.15140  0.08290  Biso   1.000  C
  C108     1.0000 0.97960  0.11160  0.06420  Biso   1.000  C
  H53      1.0000 0.97360  0.08700  0.09410  Biso   1.000  H
  C109     1.0000 0.99030  0.10810  0.00150  Biso   1.000  C
  H54      1.0000 0.99150  0.08040  0.98840  Biso   1.000  H
  C110     1.0000 0.99930  0.14260  0.95750  Biso   1.000  C
  H55      1.0000 0.00630  0.13850  0.91440  Biso   1.000  H
  C111     1.0000 0.99860  0.18400  0.97410  Biso   1.000  C
  H56      1.0000 0.00530  0.20820  0.94320  Biso   1.000  H
  C112     1.0000 0.98750  0.18910  0.03860  Biso   1.000  C
  N29      1.0000 0.98810  0.31040  0.09790  Biso   1.000  N
  N30      1.0000 0.96800  0.32020  0.22590  Biso   1.000  N
  C113     1.0000 0.96560  0.28020  0.20480  Biso   1.000  C
  C114     1.0000 0.97680  0.27640  0.13900  Biso   1.000  C
  C115     1.0000 0.98970  0.35130  0.11820  Biso   1.000  C
  C116     1.0000 0.00230  0.38890  0.07540  Biso   1.000  C
  H57      1.0000 0.00980  0.38630  0.03200  Biso   1.000  H
  C117     1.0000 0.00380  0.43060  0.09710  Biso   1.000  C
  H58      1.0000 0.01150  0.45590  0.06780  Biso   1.000  H
  C118     1.0000 0.99410  0.43550  0.16060  Biso   1.000  C
  H59      1.0000 0.99540  0.46420  0.17420  Biso   1.000  H
  C119     1.0000 0.98270  0.39960  0.20360  Biso   1.000  C
  H60      1.0000 0.97630  0.40320  0.24720  Biso   1.000  H
  C120     1.0000 0.98050  0.35690  0.18300  Biso   1.000  C
  N31      1.0000 0.02340  0.09490  0.23690  Biso   1.000  N
  N32      1.0000 0.09560  0.07120  0.23640  Biso   1.000  N
  C121     1.0000 0.04950  0.03720  0.24000  Biso   1.000  C
  C122     1.0000 0.01340  0.05000  0.24070  Biso   1.000  C
  C123     1.0000 0.06960  0.12900  0.23320  Biso   1.000  C
  C124     1.0000 0.08280  0.17840  0.22670  Biso   1.000  C
  H61      1.0000 0.05890  0.18750  0.22770  Biso   1.000  H
  C125     1.0000 0.12930  0.21200  0.21930  Biso   1.000  C
  H62      1.0000 0.13750  0.24440  0.21280  Biso   1.000  H
  C126     1.0000 0.16540  0.20060  0.22100  Biso   1.000  C
  H63      1.0000 0.19790  0.22550  0.21760  Biso   1.000  H
  C127     1.0000 0.15520  0.15400  0.22740  Biso   1.000  C
  H64      1.0000 0.18020  0.14650  0.22830  Biso   1.000  H
  C128     1.0000 0.10640  0.11720  0.23260  Biso   1.000  C
  Ag9      1.0000 0.62077  0.43675  0.56446  Biso   1.000  Ag
  Ag10     1.0000 0.61892  0.65597  0.66363  Biso   1.000  Ag
  N33      1.0000 0.60817  0.57873  0.64273  Biso   1.000  N
  N34      1.0000 0.60927  0.49643  0.60193  Biso   1.000  N
  C129     1.0000 0.61937  0.53193  0.56163  Biso   1.000  C
  C130     1.0000 0.61927  0.57353  0.58263  Biso   1.000  C
  C131     1.0000 0.59577  0.54133  0.68273  Biso   1.000  C
  C132     1.0000 0.58247  0.54463  0.74753  Biso   1.000  C
  H65      1.0000 0.58137  0.57213  0.76123  Biso   1.000  H
  C133     1.0000 0.57147  0.50813  0.78893  Biso   1.000  C
  H66      1.0000 0.56427  0.51123  0.83233  Biso   1.000  H
  C134     1.0000 0.57057  0.46563  0.76913  Biso   1.000  C
  H67      1.0000 0.56097  0.43983  0.79853  Biso   1.000  H
  C135     1.0000 0.58377  0.46123  0.70593  Biso   1.000  C
  H68      1.0000 0.58417  0.43333  0.69243  Biso   1.000  H
  C136     1.0000 0.59647  0.50013  0.66363  Biso   1.000  C
  N35      1.0000 0.63337  0.48903  0.47893  Biso   1.000  N
  N36      1.0000 0.65407  0.56283  0.39093  Biso   1.000  N
  C137     1.0000 0.64227  0.56543  0.45053  Biso   1.000  C
  C138     1.0000 0.63147  0.52733  0.49653  Biso   1.000  C
  C139     1.0000 0.64437  0.48473  0.41623  Biso   1.000  C
  C140     1.0000 0.64627  0.44493  0.39753  Biso   1.000  C
  H69      1.0000 0.64027  0.42033  0.42743  Biso   1.000  H
  C141     1.0000 0.65697  0.44143  0.33483  Biso   1.000  C
  H70      1.0000 0.65817  0.41373  0.32173  Biso   1.000  H
  C142     1.0000 0.66597  0.47593  0.29083  Biso   1.000  C
  H71      1.0000 0.67297  0.47183  0.24773  Biso   1.000  H
  C143     1.0000 0.66527  0.51733  0.30743  Biso   1.000  C
  H72      1.0000 0.67197  0.54153  0.27653  Biso   1.000  H
  C144     1.0000 0.65417  0.52243  0.37193  Biso   1.000  C
  N37      1.0000 0.65477  0.64373  0.43123  Biso   1.000  N
  N38      1.0000 0.63467  0.65353  0.55923  Biso   1.000  N
  C145     1.0000 0.63227  0.61353  0.53813  Biso   1.000  C
  C146     1.0000 0.64347  0.60973  0.47233  Biso   1.000  C
  C147     1.0000 0.65637  0.68463  0.45153  Biso   1.000  C
  C148     1.0000 0.66897  0.72223  0.40873  Biso   1.000  C
  H73      1.0000 0.67647  0.71963  0.36533  Biso   1.000  H
  C149     1.0000 0.67047  0.76393  0.43043  Biso   1.000  C
  H74      1.0000 0.67817  0.78923  0.40113  Biso   1.000  H
  C150     1.0000 0.66077  0.76883  0.49393  Biso   1.000  C
  H75      1.0000 0.66207  0.79753  0.50753  Biso   1.000  H
  C151     1.0000 0.64937  0.73293  0.53693  Biso   1.000  C
  H76      1.0000 0.64297  0.73653  0.58053  Biso   1.000  H
  C152     1.0000 0.64717  0.69023  0.51633  Biso   1.000  C
  N39      1.0000 0.69007  0.42823  0.57023  Biso   1.000  N
  N40      1.0000 0.76227  0.40453  0.56973  Biso   1.000  N
  C153     1.0000 0.71617  0.37053  0.57333  Biso   1.000  C
  C154     1.0000 0.68007  0.38333  0.57403  Biso   1.000  C
  C155     1.0000 0.73627  0.46233  0.56653  Biso   1.000  C
  C156     1.0000 0.74947  0.51173  0.56003  Biso   1.000  C
  H77      1.0000 0.72557  0.52083  0.56103  Biso   1.000  H
  C157     1.0000 0.79597  0.54533  0.55263  Biso   1.000  C
  H78      1.0000 0.80417  0.57773  0.54613  Biso   1.000  H
  C158     1.0000 0.83207  0.53393  0.55433  Biso   1.000  C
  H79      1.0000 0.86457  0.55883  0.55093  Biso   1.000  H
  C159     1.0000 0.82187  0.48733  0.56073  Biso   1.000  C
  H80      1.0000 0.84687  0.47983  0.56163  Biso   1.000  H
  C160     1.0000 0.77307  0.45053  0.56593  Biso   1.000  C
  Ag11     1.0000 0.28743  0.77009  0.89780  Biso   1.000  Ag
  Ag12     1.0000 0.28558  0.98931  0.99697  Biso   1.000  Ag
  N41      1.0000 0.27483  0.91207  0.97607  Biso   1.000  N
  N42      1.0000 0.27593  0.82977  0.93527  Biso   1.000  N
  C161     1.0000 0.28603  0.86527  0.89497  Biso   1.000  C
  C162     1.0000 0.28593  0.90687  0.91597  Biso   1.000  C
  C163     1.0000 0.26243  0.87467  0.01607  Biso   1.000  C
  C164     1.0000 0.24913  0.87797  0.08087  Biso   1.000  C
  H81      1.0000 0.24803  0.90547  0.09457  Biso   1.000  H
  C165     1.0000 0.23813  0.84147  0.12227  Biso   1.000  C
  H82      1.0000 0.23093  0.84457  0.16567  Biso   1.000  H
  C166     1.0000 0.23723  0.79897  0.10247  Biso   1.000  C
  H83      1.0000 0.22763  0.77317  0.13187  Biso   1.000  H
  C167     1.0000 0.25043  0.79457  0.03927  Biso   1.000  C
  H84      1.0000 0.25083  0.76667  0.02577  Biso   1.000  H
  C168     1.0000 0.26313  0.83347  0.99697  Biso   1.000  C
  N43      1.0000 0.30003  0.82237  0.81227  Biso   1.000  N
  N44      1.0000 0.32073  0.89617  0.72427  Biso   1.000  N
  C169     1.0000 0.30893  0.89877  0.78387  Biso   1.000  C
  C170     1.0000 0.29813  0.86067  0.82987  Biso   1.000  C
  C171     1.0000 0.31103  0.81807  0.74957  Biso   1.000  C
  C172     1.0000 0.31293  0.77827  0.73087  Biso   1.000  C
  H85      1.0000 0.30693  0.75367  0.76077  Biso   1.000  H
  C173     1.0000 0.32363  0.77477  0.66817  Biso   1.000  C
  H86      1.0000 0.32483  0.74707  0.65507  Biso   1.000  H
  C174     1.0000 0.33263  0.80927  0.62417  Biso   1.000  C
  H87      1.0000 0.33963  0.80517  0.58107  Biso   1.000  H
  C175     1.0000 0.33193  0.85067  0.64077  Biso   1.000  C
  H88      1.0000 0.33863  0.87487  0.60987  Biso   1.000  H
  C176     1.0000 0.32083  0.85577  0.70527  Biso   1.000  C
  N45      1.0000 0.32143  0.97707  0.76457  Biso   1.000  N
  N46      1.0000 0.30133  0.98687  0.89257  Biso   1.000  N
  C177     1.0000 0.29893  0.94687  0.87147  Biso   1.000  C
  C178     1.0000 0.31013  0.94307  0.80567  Biso   1.000  C
  C179     1.0000 0.32303  0.01797  0.78487  Biso   1.000  C
  C180     1.0000 0.33563  0.05557  0.74207  Biso   1.000  C
  H89      1.0000 0.34313  0.05297  0.69867  Biso   1.000  H
  C181     1.0000 0.33713  0.09727  0.76377  Biso   1.000  C
  H90      1.0000 0.34483  0.12257  0.73447  Biso   1.000  H
  C182     1.0000 0.32743  0.10217  0.82727  Biso   1.000  C
  H91      1.0000 0.32873  0.13087  0.84087  Biso   1.000  H
  C183     1.0000 0.31603  0.06627  0.87027  Biso   1.000  C
  H92      1.0000 0.30963  0.06987  0.91387  Biso   1.000  H
  C184     1.0000 0.31383  0.02357  0.84967  Biso   1.000  C
  N47      1.0000 0.35673  0.76157  0.90357  Biso   1.000  N
  N48      1.0000 0.42893  0.73787  0.90307  Biso   1.000  N
  C185     1.0000 0.38283  0.70387  0.90667  Biso   1.000  C
  C186     1.0000 0.34673  0.71667  0.90737  Biso   1.000  C
  C187     1.0000 0.40293  0.79567  0.89987  Biso   1.000  C
  C188     1.0000 0.41613  0.84507  0.89337  Biso   1.000  C
  H93      1.0000 0.39223  0.85417  0.89437  Biso   1.000  H
  C189     1.0000 0.46263  0.87867  0.88597  Biso   1.000  C
  H94      1.0000 0.47083  0.91107  0.87947  Biso   1.000  H
  C190     1.0000 0.49873  0.86727  0.88767  Biso   1.000  C
  H95      1.0000 0.53123  0.89217  0.88427  Biso   1.000  H
  C191     1.0000 0.48853  0.82067  0.89407  Biso   1.000  C
  H96      1.0000 0.51353  0.81317  0.89497  Biso   1.000  H
  C192     1.0000 0.43973  0.78387  0.89927  Biso   1.000  C
  Ag13     1.0000 0.89658  0.85068  0.23113  Biso   1.000  Ag
  Ag14     1.0000 0.67736  0.62961  0.33030  Biso   1.000  Ag
  N49      1.0000 0.75460  0.69610  0.30940  Biso   1.000  N
  N50      1.0000 0.83690  0.77950  0.26860  Biso   1.000  N
  C193     1.0000 0.80140  0.75410  0.22830  Biso   1.000  C
  C194     1.0000 0.75980  0.71240  0.24930  Biso   1.000  C
  C195     1.0000 0.79200  0.72110  0.34940  Biso   1.000  C
  C196     1.0000 0.78870  0.70450  0.41420  Biso   1.000  C
  H97      1.0000 0.76120  0.67590  0.42790  Biso   1.000  H
  C197     1.0000 0.82520  0.73000  0.45560  Biso   1.000  C
  H98      1.0000 0.82210  0.71970  0.49900  Biso   1.000  H
  C198     1.0000 0.86770  0.77160  0.43580  Biso   1.000  C
  H99      1.0000 0.89350  0.78780  0.46520  Biso   1.000  H
  C199     1.0000 0.87210  0.78920  0.37260  Biso   1.000  C
  H100     1.0000 0.90000  0.81750  0.35910  Biso   1.000  H
  C200     1.0000 0.83320  0.76300  0.33030  Biso   1.000  C
  N51      1.0000 0.84430  0.81100  0.14560  Biso   1.000  N
  N52      1.0000 0.77050  0.75790  0.05760  Biso   1.000  N
  C201     1.0000 0.76790  0.74350  0.11720  Biso   1.000  C
  C202     1.0000 0.80600  0.77080  0.16320  Biso   1.000  C
  C203     1.0000 0.84860  0.82630  0.08290  Biso   1.000  C
  C204     1.0000 0.88840  0.86800  0.06420  Biso   1.000  C
  H101     1.0000 0.91300  0.88660  0.09410  Biso   1.000  H
  C205     1.0000 0.89190  0.88220  0.00150  Biso   1.000  C
  H102     1.0000 0.91960  0.91110  0.98840  Biso   1.000  H
  C206     1.0000 0.85740  0.85670  0.95750  Biso   1.000  C
  H103     1.0000 0.86150  0.86780  0.91440  Biso   1.000  H
  C207     1.0000 0.81600  0.81460  0.97410  Biso   1.000  C
  H104     1.0000 0.79180  0.79710  0.94320  Biso   1.000  H
  C208     1.0000 0.81090  0.79840  0.03860  Biso   1.000  C
  N53      1.0000 0.68960  0.67770  0.09790  Biso   1.000  N
  N54      1.0000 0.67980  0.64780  0.22590  Biso   1.000  N
  C209     1.0000 0.71980  0.68540  0.20480  Biso   1.000  C
  C210     1.0000 0.72360  0.70040  0.13900  Biso   1.000  C
  C211     1.0000 0.64870  0.63840  0.11820  Biso   1.000  C
  C212     1.0000 0.61110  0.61340  0.07540  Biso   1.000  C
  H105     1.0000 0.61370  0.62350  0.03200  Biso   1.000  H
  C213     1.0000 0.56940  0.57320  0.09710  Biso   1.000  C
  H106     1.0000 0.54410  0.55560  0.06780  Biso   1.000  H
  C214     1.0000 0.56450  0.55860  0.16060  Biso   1.000  C
  H107     1.0000 0.53580  0.53120  0.17420  Biso   1.000  H
  C215     1.0000 0.60040  0.58310  0.20360  Biso   1.000  C
  H108     1.0000 0.59680  0.57310  0.24720  Biso   1.000  H
  C216     1.0000 0.64310  0.62360  0.18300  Biso   1.000  C
  N55      1.0000 0.90510  0.92850  0.23690  Biso   1.000  N
  N56      1.0000 0.92880  0.02440  0.23640  Biso   1.000  N
  C217     1.0000 0.96280  0.01230  0.24000  Biso   1.000  C
  C218     1.0000 0.95000  0.96340  0.24070  Biso   1.000  C
  C219     1.0000 0.87100  0.94060  0.23320  Biso   1.000  C
  C220     1.0000 0.82160  0.90440  0.22670  Biso   1.000  C
  H109     1.0000 0.81250  0.87140  0.22770  Biso   1.000  H
  C221     1.0000 0.78800  0.91730  0.21930  Biso   1.000  C
  H110     1.0000 0.75560  0.89310  0.21280  Biso   1.000  H
  C222     1.0000 0.79940  0.96480  0.22100  Biso   1.000  C
  H111     1.0000 0.77450  0.97240  0.21760  Biso   1.000  H
  C223     1.0000 0.84600  0.00120  0.22740  Biso   1.000  C
  H112     1.0000 0.85350  0.03370  0.22830  Biso   1.000  H
  C224     1.0000 0.88280  0.98920  0.23260  Biso   1.000  C
  Ag15     1.0000 0.56325  0.18401  0.56446  Biso   1.000  Ag
  Ag16     1.0000 0.34403  0.96294  0.66363  Biso   1.000  Ag
  N57      1.0000 0.42127  0.02943  0.64273  Biso   1.000  N
  N58      1.0000 0.50357  0.11283  0.60193  Biso   1.000  N
  C225     1.0000 0.46807  0.08743  0.56163  Biso   1.000  C
  C226     1.0000 0.42647  0.04573  0.58263  Biso   1.000  C
  C227     1.0000 0.45867  0.05443  0.68273  Biso   1.000  C
  C228     1.0000 0.45537  0.03783  0.74753  Biso   1.000  C
  H113     1.0000 0.42787  0.00923  0.76123  Biso   1.000  H
  C229     1.0000 0.49187  0.06333  0.78893  Biso   1.000  C
  H114     1.0000 0.48877  0.05303  0.83233  Biso   1.000  H
  C230     1.0000 0.53437  0.10493  0.76913  Biso   1.000  C
  H115     1.0000 0.56017  0.12113  0.79853  Biso   1.000  H
  C231     1.0000 0.53877  0.12253  0.70593  Biso   1.000  C
  H116     1.0000 0.56667  0.15083  0.69243  Biso   1.000  H
  C232     1.0000 0.49987  0.09633  0.66363  Biso   1.000  C
  N59      1.0000 0.51097  0.14433  0.47893  Biso   1.000  N
  N60      1.0000 0.43717  0.09123  0.39093  Biso   1.000  N
  C233     1.0000 0.43457  0.07683  0.45053  Biso   1.000  C
  C234     1.0000 0.47267  0.10413  0.49653  Biso   1.000  C
  C235     1.0000 0.51527  0.15963  0.41623  Biso   1.000  C
  C236     1.0000 0.55507  0.20133  0.39753  Biso   1.000  C
  H117     1.0000 0.57967  0.21993  0.42743  Biso   1.000  H
  C237     1.0000 0.55857  0.21553  0.33483  Biso   1.000  C
  H118     1.0000 0.58627  0.24443  0.32173  Biso   1.000  H
  C238     1.0000 0.52407  0.19003  0.29083  Biso   1.000  C
  H119     1.0000 0.52817  0.20113  0.24773  Biso   1.000  H
  C239     1.0000 0.48267  0.14793  0.30743  Biso   1.000  C
  H120     1.0000 0.45847  0.13043  0.27653  Biso   1.000  H
  C240     1.0000 0.47757  0.13173  0.37193  Biso   1.000  C
  N61      1.0000 0.35627  0.01103  0.43123  Biso   1.000  N
  N62      1.0000 0.34647  0.98113  0.55923  Biso   1.000  N
  C241     1.0000 0.38647  0.01873  0.53813  Biso   1.000  C
  C242     1.0000 0.39027  0.03373  0.47233  Biso   1.000  C
  C243     1.0000 0.31537  0.97173  0.45153  Biso   1.000  C
  C244     1.0000 0.27777  0.94673  0.40873  Biso   1.000  C
  H121     1.0000 0.28037  0.95683  0.36533  Biso   1.000  H
  C245     1.0000 0.23607  0.90653  0.43043  Biso   1.000  C
  H122     1.0000 0.21077  0.88893  0.40113  Biso   1.000  H
  C246     1.0000 0.23117  0.89193  0.49393  Biso   1.000  C
  H123     1.0000 0.20247  0.86453  0.50753  Biso   1.000  H
  C247     1.0000 0.26707  0.91643  0.53693  Biso   1.000  C
  H124     1.0000 0.26347  0.90643  0.58053  Biso   1.000  H
  C248     1.0000 0.30977  0.95693  0.51633  Biso   1.000  C
  N63      1.0000 0.57177  0.26183  0.57023  Biso   1.000  N
  N64      1.0000 0.59547  0.35773  0.56973  Biso   1.000  N
  C249     1.0000 0.62947  0.34563  0.57333  Biso   1.000  C
  C250     1.0000 0.61667  0.29673  0.57403  Biso   1.000  C
  C251     1.0000 0.53767  0.27393  0.56653  Biso   1.000  C
  C252     1.0000 0.48827  0.23773  0.56003  Biso   1.000  C
  H125     1.0000 0.47917  0.20473  0.56103  Biso   1.000  H
  C253     1.0000 0.45467  0.25063  0.55263  Biso   1.000  C
  H126     1.0000 0.42227  0.22643  0.54613  Biso   1.000  H
  C254     1.0000 0.46607  0.29813  0.55433  Biso   1.000  C
  H127     1.0000 0.44117  0.30573  0.55093  Biso   1.000  H
  C255     1.0000 0.51267  0.33453  0.56073  Biso   1.000  C
  H128     1.0000 0.52017  0.36703  0.56163  Biso   1.000  H
  C256     1.0000 0.54947  0.32253  0.56593  Biso   1.000  C
  Ag17     1.0000 0.22991  0.51735  0.89780  Biso   1.000  Ag
  Ag18     1.0000 0.01069  0.29628  0.99697  Biso   1.000  Ag
  N65      1.0000 0.08793  0.36277  0.97607  Biso   1.000  N
  N66      1.0000 0.17023  0.44617  0.93527  Biso   1.000  N
  C257     1.0000 0.13473  0.42077  0.89497  Biso   1.000  C
  C258     1.0000 0.09313  0.37907  0.91597  Biso   1.000  C
  C259     1.0000 0.12533  0.38777  0.01607  Biso   1.000  C
  C260     1.0000 0.12203  0.37117  0.08087  Biso   1.000  C
  H129     1.0000 0.09453  0.34257  0.09457  Biso   1.000  H
  C261     1.0000 0.15853  0.39667  0.12227  Biso   1.000  C
  H130     1.0000 0.15543  0.38637  0.16567  Biso   1.000  H
  C262     1.0000 0.20103  0.43827  0.10247  Biso   1.000  C
  H131     1.0000 0.22683  0.45447  0.13187  Biso   1.000  H
  C263     1.0000 0.20543  0.45587  0.03927  Biso   1.000  C
  H132     1.0000 0.23333  0.48417  0.02577  Biso   1.000  H
  C264     1.0000 0.16653  0.42967  0.99697  Biso   1.000  C
  N67      1.0000 0.17763  0.47767  0.81227  Biso   1.000  N
  N68      1.0000 0.10383  0.42457  0.72427  Biso   1.000  N
  C265     1.0000 0.10123  0.41017  0.78387  Biso   1.000  C
  C266     1.0000 0.13933  0.43747  0.82987  Biso   1.000  C
  C267     1.0000 0.18193  0.49297  0.74957  Biso   1.000  C
  C268     1.0000 0.22173  0.53467  0.73087  Biso   1.000  C
  H133     1.0000 0.24633  0.55327  0.76077  Biso   1.000  H
  C269     1.0000 0.22523  0.54887  0.66817  Biso   1.000  C
  H134     1.0000 0.25293  0.57777  0.65507  Biso   1.000  H
  C270     1.0000 0.19073  0.52337  0.62417  Biso   1.000  C
  H135     1.0000 0.19483  0.53447  0.58107  Biso   1.000  H
  C271     1.0000 0.14933  0.48127  0.64077  Biso   1.000  C
  H136     1.0000 0.12513  0.46377  0.60987  Biso   1.000  H
  C272     1.0000 0.14423  0.46507  0.70527  Biso   1.000  C
  N69      1.0000 0.02293  0.34437  0.76457  Biso   1.000  N
  N70      1.0000 0.01313  0.31447  0.89257  Biso   1.000  N
  C273     1.0000 0.05313  0.35207  0.87147  Biso   1.000  C
  C274     1.0000 0.05693  0.36707  0.80567  Biso   1.000  C
  C275     1.0000 0.98203  0.30507  0.78487  Biso   1.000  C
  C276     1.0000 0.94443  0.28007  0.74207  Biso   1.000  C
  H137     1.0000 0.94703  0.29017  0.69867  Biso   1.000  H
  C277     1.0000 0.90273  0.23987  0.76377  Biso   1.000  C
  H138     1.0000 0.87743  0.22227  0.73447  Biso   1.000  H
  C278     1.0000 0.89783  0.22527  0.82727  Biso   1.000  C
  H139     1.0000 0.86913  0.19787  0.84087  Biso   1.000  H
  C279     1.0000 0.93373  0.24977  0.87027  Biso   1.000  C
  H140     1.0000 0.93013  0.23977  0.91387  Biso   1.000  H
  C280     1.0000 0.97643  0.29027  0.84967  Biso   1.000  C
  N71      1.0000 0.23843  0.59517  0.90357  Biso   1.000  N
  N72      1.0000 0.26213  0.69107  0.90307  Biso   1.000  N
  C281     1.0000 0.29613  0.67897  0.90667  Biso   1.000  C
  C282     1.0000 0.28333  0.63007  0.90737  Biso   1.000  C
  C283     1.0000 0.20433  0.60727  0.89987  Biso   1.000  C
  C284     1.0000 0.15493  0.57107  0.89337  Biso   1.000  C
  H141     1.0000 0.14583  0.53807  0.89437  Biso   1.000  H
  C285     1.0000 0.12133  0.58397  0.88597  Biso   1.000  C
  H142     1.0000 0.08893  0.55977  0.87947  Biso   1.000  H
  C286     1.0000 0.13273  0.63147  0.88767  Biso   1.000  C
  H143     1.0000 0.10783  0.63907  0.88427  Biso   1.000  H
  C287     1.0000 0.17933  0.66787  0.89407  Biso   1.000  C
  H144     1.0000 0.18683  0.70037  0.89497  Biso   1.000  H
  C288     1.0000 0.21613  0.65587  0.89927  Biso   1.000  C
  Ag19     1.0000 0.85068  0.95410  0.76887  Biso   1.000  Ag
  Ag20     1.0000 0.62961  0.95225  0.66970  Biso   1.000  Ag
  N73      1.0000 0.69610  0.94150  0.69060  Biso   1.000  N
  N74      1.0000 0.77950  0.94260  0.73140  Biso   1.000  N
  C289     1.0000 0.75410  0.95270  0.77170  Biso   1.000  C
  C290     1.0000 0.71240  0.95260  0.75070  Biso   1.000  C
  C291     1.0000 0.72110  0.92910  0.65060  Biso   1.000  C
  C292     1.0000 0.70450  0.91580  0.58580  Biso   1.000  C
  H145     1.0000 0.67590  0.91470  0.57210  Biso   1.000  H
  C293     1.0000 0.73000  0.90480  0.54440  Biso   1.000  C
  H146     1.0000 0.71970  0.89760  0.50100  Biso   1.000  H
  C294     1.0000 0.77160  0.90390  0.56420  Biso   1.000  C
  H147     1.0000 0.78780  0.89430  0.53480  Biso   1.000  H
  C295     1.0000 0.78920  0.91710  0.62740  Biso   1.000  C
  H148     1.0000 0.81750  0.91750  0.64090  Biso   1.000  H
  C296     1.0000 0.76300  0.92980  0.66970  Biso   1.000  C
  N75      1.0000 0.81100  0.96670  0.85440  Biso   1.000  N
  N76      1.0000 0.75790  0.98740  0.94240  Biso   1.000  N
  C297     1.0000 0.74350  0.97560  0.88280  Biso   1.000  C
  C298     1.0000 0.77080  0.96480  0.83680  Biso   1.000  C
  C299     1.0000 0.82630  0.97770  0.91710  Biso   1.000  C
  C300     1.0000 0.86800  0.97960  0.93580  Biso   1.000  C
  H149     1.0000 0.88660  0.97360  0.90590  Biso   1.000  H
  C301     1.0000 0.88220  0.99030  0.99850  Biso   1.000  C
  H150     1.0000 0.91110  0.99150  0.01160  Biso   1.000  H
  C302     1.0000 0.85670  0.99930  0.04250  Biso   1.000  C
  H151     1.0000 0.86780  0.00630  0.08560  Biso   1.000  H
  C303     1.0000 0.81460  0.99860  0.02590  Biso   1.000  C
  H152     1.0000 0.79710  0.00530  0.05680  Biso   1.000  H
  C304     1.0000 0.79840  0.98750  0.96140  Biso   1.000  C
  N77      1.0000 0.67770  0.98810  0.90210  Biso   1.000  N
  N78      1.0000 0.64780  0.96800  0.77410  Biso   1.000  N
  C305     1.0000 0.68540  0.96560  0.79520  Biso   1.000  C
  C306     1.0000 0.70040  0.97680  0.86100  Biso   1.000  C
  C307     1.0000 0.63840  0.98970  0.88180  Biso   1.000  C
  C308     1.0000 0.61340  0.00230  0.92460  Biso   1.000  C
  H153     1.0000 0.62350  0.00980  0.96800  Biso   1.000  H
  C309     1.0000 0.57320  0.00380  0.90290  Biso   1.000  C
  H154     1.0000 0.55560  0.01150  0.93220  Biso   1.000  H
  C310     1.0000 0.55860  0.99410  0.83940  Biso   1.000  C
  H155     1.0000 0.53120  0.99540  0.82580  Biso   1.000  H
  C311     1.0000 0.58310  0.98270  0.79640  Biso   1.000  C
  H156     1.0000 0.57310  0.97630  0.75280  Biso   1.000  H
  C312     1.0000 0.62360  0.98050  0.81700  Biso   1.000  C
  N79      1.0000 0.92850  0.02340  0.76310  Biso   1.000  N
  N80      1.0000 0.02440  0.09560  0.76360  Biso   1.000  N
  C313     1.0000 0.01230  0.04950  0.76000  Biso   1.000  C
  C314     1.0000 0.96340  0.01340  0.75930  Biso   1.000  C
  C315     1.0000 0.94060  0.06960  0.76680  Biso   1.000  C
  C316     1.0000 0.90440  0.08280  0.77330  Biso   1.000  C
  H157     1.0000 0.87140  0.05890  0.77230  Biso   1.000  H
  C317     1.0000 0.91730  0.12930  0.78070  Biso   1.000  C
  H158     1.0000 0.89310  0.13750  0.78720  Biso   1.000  H
  C318     1.0000 0.96480  0.16540  0.77900  Biso   1.000  C
  H159     1.0000 0.97240  0.19790  0.78240  Biso   1.000  H
  C319     1.0000 0.00120  0.15520  0.77260  Biso   1.000  C
  H160     1.0000 0.03370  0.18020  0.77170  Biso   1.000  H
  C320     1.0000 0.98920  0.10640  0.76740  Biso   1.000  C
  Ag21     1.0000 0.51735  0.28743  0.10220  Biso   1.000  Ag
  Ag22     1.0000 0.29628  0.28558  0.00303  Biso   1.000  Ag
  N81      1.0000 0.36277  0.27483  0.02393  Biso   1.000  N
  N82      1.0000 0.44617  0.27593  0.06473  Biso   1.000  N
  C321     1.0000 0.42077  0.28603  0.10503  Biso   1.000  C
  C322     1.0000 0.37907  0.28593  0.08403  Biso   1.000  C
  C323     1.0000 0.38777  0.26243  0.98393  Biso   1.000  C
  C324     1.0000 0.37117  0.24913  0.91913  Biso   1.000  C
  H161     1.0000 0.34257  0.24803  0.90543  Biso   1.000  H
  C325     1.0000 0.39667  0.23813  0.87773  Biso   1.000  C
  H162     1.0000 0.38637  0.23093  0.83433  Biso   1.000  H
  C326     1.0000 0.43827  0.23723  0.89753  Biso   1.000  C
  H163     1.0000 0.45447  0.22763  0.86813  Biso   1.000  H
  C327     1.0000 0.45587  0.25043  0.96073  Biso   1.000  C
  H164     1.0000 0.48417  0.25083  0.97423  Biso   1.000  H
  C328     1.0000 0.42967  0.26313  0.00303  Biso   1.000  C
  N83      1.0000 0.47767  0.30003  0.18773  Biso   1.000  N
  N84      1.0000 0.42457  0.32073  0.27573  Biso   1.000  N
  C329     1.0000 0.41017  0.30893  0.21613  Biso   1.000  C
  C330     1.0000 0.43747  0.29813  0.17013  Biso   1.000  C
  C331     1.0000 0.49297  0.31103  0.25043  Biso   1.000  C
  C332     1.0000 0.53467  0.31293  0.26913  Biso   1.000  C
  H165     1.0000 0.55327  0.30693  0.23923  Biso   1.000  H
  C333     1.0000 0.54887  0.32363  0.33183  Biso   1.000  C
  H166     1.0000 0.57777  0.32483  0.34493  Biso   1.000  H
  C334     1.0000 0.52337  0.33263  0.37583  Biso   1.000  C
  H167     1.0000 0.53447  0.33963  0.41893  Biso   1.000  H
  C335     1.0000 0.48127  0.33193  0.35923  Biso   1.000  C
  H168     1.0000 0.46377  0.33863  0.39013  Biso   1.000  H
  C336     1.0000 0.46507  0.32083  0.29473  Biso   1.000  C
  N85      1.0000 0.34437  0.32143  0.23543  Biso   1.000  N
  N86      1.0000 0.31447  0.30133  0.10743  Biso   1.000  N
  C337     1.0000 0.35207  0.29893  0.12853  Biso   1.000  C
  C338     1.0000 0.36707  0.31013  0.19433  Biso   1.000  C
  C339     1.0000 0.30507  0.32303  0.21513  Biso   1.000  C
  C340     1.0000 0.28007  0.33563  0.25793  Biso   1.000  C
  H169     1.0000 0.29017  0.34313  0.30133  Biso   1.000  H
  C341     1.0000 0.23987  0.33713  0.23623  Biso   1.000  C
  H170     1.0000 0.22227  0.34483  0.26553  Biso   1.000  H
  C342     1.0000 0.22527  0.32743  0.17273  Biso   1.000  C
  H171     1.0000 0.19787  0.32873  0.15913  Biso   1.000  H
  C343     1.0000 0.24977  0.31603  0.12973  Biso   1.000  C
  H172     1.0000 0.23977  0.30963  0.08613  Biso   1.000  H
  C344     1.0000 0.29027  0.31383  0.15033  Biso   1.000  C
  N87      1.0000 0.59517  0.35673  0.09643  Biso   1.000  N
  N88      1.0000 0.69107  0.42893  0.09693  Biso   1.000  N
  C345     1.0000 0.67897  0.38283  0.09333  Biso   1.000  C
  C346     1.0000 0.63007  0.34673  0.09263  Biso   1.000  C
  C347     1.0000 0.60727  0.40293  0.10013  Biso   1.000  C
  C348     1.0000 0.57107  0.41613  0.10663  Biso   1.000  C
  H173     1.0000 0.53807  0.39223  0.10563  Biso   1.000  H
  C349     1.0000 0.58397  0.46263  0.11403  Biso   1.000  C
  H174     1.0000 0.55977  0.47083  0.12053  Biso   1.000  H
  C350     1.0000 0.63147  0.49873  0.11233  Biso   1.000  C
  H175     1.0000 0.63907  0.53123  0.11573  Biso   1.000  H
  C351     1.0000 0.66787  0.48853  0.10593  Biso   1.000  C
  H176     1.0000 0.70037  0.51353  0.10503  Biso   1.000  H
  C352     1.0000 0.65587  0.43973  0.10073  Biso   1.000  C
  Ag23     1.0000 0.18401  0.62077  0.43554  Biso   1.000  Ag
  Ag24     1.0000 0.96294  0.61892  0.33637  Biso   1.000  Ag
  N89      1.0000 0.02943  0.60817  0.35727  Biso   1.000  N
  N90      1.0000 0.11283  0.60927  0.39807  Biso   1.000  N
  C353     1.0000 0.08743  0.61937  0.43837  Biso   1.000  C
  C354     1.0000 0.04573  0.61927  0.41737  Biso   1.000  C
  C355     1.0000 0.05443  0.59577  0.31727  Biso   1.000  C
  C356     1.0000 0.03783  0.58247  0.25247  Biso   1.000  C
  H177     1.0000 0.00923  0.58137  0.23877  Biso   1.000  H
  C357     1.0000 0.06333  0.57147  0.21107  Biso   1.000  C
  H178     1.0000 0.05303  0.56427  0.16767  Biso   1.000  H
  C358     1.0000 0.10493  0.57057  0.23087  Biso   1.000  C
  H179     1.0000 0.12113  0.56097  0.20147  Biso   1.000  H
  C359     1.0000 0.12253  0.58377  0.29407  Biso   1.000  C
  H180     1.0000 0.15083  0.58417  0.30757  Biso   1.000  H
  C360     1.0000 0.09633  0.59647  0.33637  Biso   1.000  C
  N91      1.0000 0.14433  0.63337  0.52107  Biso   1.000  N
  N92      1.0000 0.09123  0.65407  0.60907  Biso   1.000  N
  C361     1.0000 0.07683  0.64227  0.54947  Biso   1.000  C
  C362     1.0000 0.10413  0.63147  0.50347  Biso   1.000  C
  C363     1.0000 0.15963  0.64437  0.58377  Biso   1.000  C
  C364     1.0000 0.20133  0.64627  0.60247  Biso   1.000  C
  H181     1.0000 0.21993  0.64027  0.57257  Biso   1.000  H
  C365     1.0000 0.21553  0.65697  0.66517  Biso   1.000  C
  H182     1.0000 0.24443  0.65817  0.67827  Biso   1.000  H
  C366     1.0000 0.19003  0.66597  0.70917  Biso   1.000  C
  H183     1.0000 0.20113  0.67297  0.75227  Biso   1.000  H
  C367     1.0000 0.14793  0.66527  0.69257  Biso   1.000  C
  H184     1.0000 0.13043  0.67197  0.72347  Biso   1.000  H
  C368     1.0000 0.13173  0.65417  0.62807  Biso   1.000  C
  N93      1.0000 0.01103  0.65477  0.56877  Biso   1.000  N
  N94      1.0000 0.98113  0.63467  0.44077  Biso   1.000  N
  C369     1.0000 0.01873  0.63227  0.46187  Biso   1.000  C
  C370     1.0000 0.03373  0.64347  0.52767  Biso   1.000  C
  C371     1.0000 0.97173  0.65637  0.54847  Biso   1.000  C
  C372     1.0000 0.94673  0.66897  0.59127  Biso   1.000  C
  H185     1.0000 0.95683  0.67647  0.63467  Biso   1.000  H
  C373     1.0000 0.90653  0.67047  0.56957  Biso   1.000  C
  H186     1.0000 0.88893  0.67817  0.59887  Biso   1.000  H
  C374     1.0000 0.89193  0.66077  0.50607  Biso   1.000  C
  H187     1.0000 0.86453  0.66207  0.49247  Biso   1.000  H
  C375     1.0000 0.91643  0.64937  0.46307  Biso   1.000  C
  H188     1.0000 0.90643  0.64297  0.41947  Biso   1.000  H
  C376     1.0000 0.95693  0.64717  0.48367  Biso   1.000  C
  N95      1.0000 0.26183  0.69007  0.42977  Biso   1.000  N
  N96      1.0000 0.35773  0.76227  0.43027  Biso   1.000  N
  C377     1.0000 0.34563  0.71617  0.42667  Biso   1.000  C
  C378     1.0000 0.29673  0.68007  0.42597  Biso   1.000  C
  C379     1.0000 0.27393  0.73627  0.43347  Biso   1.000  C
  C380     1.0000 0.23773  0.74947  0.43997  Biso   1.000  C
  H189     1.0000 0.20473  0.72557  0.43897  Biso   1.000  H
  C381     1.0000 0.25063  0.79597  0.44737  Biso   1.000  C
  H190     1.0000 0.22643  0.80417  0.45387  Biso   1.000  H
  C382     1.0000 0.29813  0.83207  0.44567  Biso   1.000  C
  H191     1.0000 0.30573  0.86457  0.44907  Biso   1.000  H
  C383     1.0000 0.33453  0.82187  0.43927  Biso   1.000  C
  H192     1.0000 0.36703  0.84687  0.43837  Biso   1.000  H
  C384     1.0000 0.32253  0.77307  0.43407  Biso   1.000  C
  Ag25     1.0000 0.04590  0.89658  0.76887  Biso   1.000  Ag
  Ag26     1.0000 0.04775  0.67736  0.66970  Biso   1.000  Ag
  N97      1.0000 0.05850  0.75460  0.69060  Biso   1.000  N
  N98      1.0000 0.05740  0.83690  0.73140  Biso   1.000  N
  C385     1.0000 0.04730  0.80140  0.77170  Biso   1.000  C
  C386     1.0000 0.04740  0.75980  0.75070  Biso   1.000  C
  C387     1.0000 0.07090  0.79200  0.65060  Biso   1.000  C
  C388     1.0000 0.08420  0.78870  0.58580  Biso   1.000  C
  H193     1.0000 0.08530  0.76120  0.57210  Biso   1.000  H
  C389     1.0000 0.09520  0.82520  0.54440  Biso   1.000  C
  H194     1.0000 0.10240  0.82210  0.50100  Biso   1.000  H
  C390     1.0000 0.09610  0.86770  0.56420  Biso   1.000  C
  H195     1.0000 0.10570  0.89350  0.53480  Biso   1.000  H
  C391     1.0000 0.08290  0.87210  0.62740  Biso   1.000  C
  H196     1.0000 0.08250  0.90000  0.64090  Biso   1.000  H
  C392     1.0000 0.07020  0.83320  0.66970  Biso   1.000  C
  N99      1.0000 0.03330  0.84430  0.85440  Biso   1.000  N
  N100     1.0000 0.01260  0.77050  0.94240  Biso   1.000  N
  C393     1.0000 0.02440  0.76790  0.88280  Biso   1.000  C
  C394     1.0000 0.03520  0.80600  0.83680  Biso   1.000  C
  C395     1.0000 0.02230  0.84860  0.91710  Biso   1.000  C
  C396     1.0000 0.02040  0.88840  0.93580  Biso   1.000  C
  H197     1.0000 0.02640  0.91300  0.90590  Biso   1.000  H
  C397     1.0000 0.00970  0.89190  0.99850  Biso   1.000  C
  H198     1.0000 0.00850  0.91960  0.01160  Biso   1.000  H
  C398     1.0000 0.00070  0.85740  0.04250  Biso   1.000  C
  H199     1.0000 0.99370  0.86150  0.08560  Biso   1.000  H
  C399     1.0000 0.00140  0.81600  0.02590  Biso   1.000  C
  H200     1.0000 0.99470  0.79180  0.05680  Biso   1.000  H
  C400     1.0000 0.01250  0.81090  0.96140  Biso   1.000  C
  N101     1.0000 0.01190  0.68960  0.90210  Biso   1.000  N
  N102     1.0000 0.03200  0.67980  0.77410  Biso   1.000  N
  C401     1.0000 0.03440  0.71980  0.79520  Biso   1.000  C
  C402     1.0000 0.02320  0.72360  0.86100  Biso   1.000  C
  C403     1.0000 0.01030  0.64870  0.88180  Biso   1.000  C
  C404     1.0000 0.99770  0.61110  0.92460  Biso   1.000  C
  H201     1.0000 0.99020  0.61370  0.96800  Biso   1.000  H
  C405     1.0000 0.99620  0.56940  0.90290  Biso   1.000  C
  H202     1.0000 0.98850  0.54410  0.93220  Biso   1.000  H
  C406     1.0000 0.00590  0.56450  0.83940  Biso   1.000  C
  H203     1.0000 0.00460  0.53580  0.82580  Biso   1.000  H
  C407     1.0000 0.01730  0.60040  0.79640  Biso   1.000  C
  H204     1.0000 0.02370  0.59680  0.75280  Biso   1.000  H
  C408     1.0000 0.01950  0.64310  0.81700  Biso   1.000  C
  N103     1.0000 0.97660  0.90510  0.76310  Biso   1.000  N
  N104     1.0000 0.90440  0.92880  0.76360  Biso   1.000  N
  C409     1.0000 0.95050  0.96280  0.76000  Biso   1.000  C
  C410     1.0000 0.98660  0.95000  0.75930  Biso   1.000  C
  C411     1.0000 0.93040  0.87100  0.76680  Biso   1.000  C
  C412     1.0000 0.91720  0.82160  0.77330  Biso   1.000  C
  H205     1.0000 0.94110  0.81250  0.77230  Biso   1.000  H
  C413     1.0000 0.87070  0.78800  0.78070  Biso   1.000  C
  H206     1.0000 0.86250  0.75560  0.78720  Biso   1.000  H
  C414     1.0000 0.83460  0.79940  0.77900  Biso   1.000  C
  H207     1.0000 0.80210  0.77450  0.78240  Biso   1.000  H
  C415     1.0000 0.84480  0.84600  0.77260  Biso   1.000  C
  H208     1.0000 0.81980  0.85350  0.77170  Biso   1.000  H
  C416     1.0000 0.89360  0.88280  0.76740  Biso   1.000  C
  Ag27     1.0000 0.71257  0.22991  0.10220  Biso   1.000  Ag
  Ag28     1.0000 0.71442  0.01069  0.00303  Biso   1.000  Ag
  N105     1.0000 0.72517  0.08793  0.02393  Biso   1.000  N
  N106     1.0000 0.72407  0.17023  0.06473  Biso   1.000  N
  C417     1.0000 0.71397  0.13473  0.10503  Biso   1.000  C
  C418     1.0000 0.71407  0.09313  0.08403  Biso   1.000  C
  C419     1.0000 0.73757  0.12533  0.98393  Biso   1.000  C
  C420     1.0000 0.75087  0.12203  0.91913  Biso   1.000  C
  H209     1.0000 0.75197  0.09453  0.90543  Biso   1.000  H
  C421     1.0000 0.76187  0.15853  0.87773  Biso   1.000  C
  H210     1.0000 0.76907  0.15543  0.83433  Biso   1.000  H
  C422     1.0000 0.76277  0.20103  0.89753  Biso   1.000  C
  H211     1.0000 0.77237  0.22683  0.86813  Biso   1.000  H
  C423     1.0000 0.74957  0.20543  0.96073  Biso   1.000  C
  H212     1.0000 0.74917  0.23333  0.97423  Biso   1.000  H
  C424     1.0000 0.73687  0.16653  0.00303  Biso   1.000  C
  N107     1.0000 0.69997  0.17763  0.18773  Biso   1.000  N
  N108     1.0000 0.67927  0.10383  0.27573  Biso   1.000  N
  C425     1.0000 0.69107  0.10123  0.21613  Biso   1.000  C
  C426     1.0000 0.70187  0.13933  0.17013  Biso   1.000  C
  C427     1.0000 0.68897  0.18193  0.25043  Biso   1.000  C
  C428     1.0000 0.68707  0.22173  0.26913  Biso   1.000  C
  H213     1.0000 0.69307  0.24633  0.23923  Biso   1.000  H
  C429     1.0000 0.67637  0.22523  0.33183  Biso   1.000  C
  H214     1.0000 0.67517  0.25293  0.34493  Biso   1.000  H
  C430     1.0000 0.66737  0.19073  0.37583  Biso   1.000  C
  H215     1.0000 0.66037  0.19483  0.41893  Biso   1.000  H
  C431     1.0000 0.66807  0.14933  0.35923  Biso   1.000  C
  H216     1.0000 0.66137  0.12513  0.39013  Biso   1.000  H
  C432     1.0000 0.67917  0.14423  0.29473  Biso   1.000  C
  N109     1.0000 0.67857  0.02293  0.23543  Biso   1.000  N
  N110     1.0000 0.69867  0.01313  0.10743  Biso   1.000  N
  C433     1.0000 0.70107  0.05313  0.12853  Biso   1.000  C
  C434     1.0000 0.68987  0.05693  0.19433  Biso   1.000  C
  C435     1.0000 0.67697  0.98203  0.21513  Biso   1.000  C
  C436     1.0000 0.66437  0.94443  0.25793  Biso   1.000  C
  H217     1.0000 0.65687  0.94703  0.30133  Biso   1.000  H
  C437     1.0000 0.66287  0.90273  0.23623  Biso   1.000  C
  H218     1.0000 0.65517  0.87743  0.26553  Biso   1.000  H
  C438     1.0000 0.67257  0.89783  0.17273  Biso   1.000  C
  H219     1.0000 0.67127  0.86913  0.15913  Biso   1.000  H
  C439     1.0000 0.68397  0.93373  0.12973  Biso   1.000  C
  H220     1.0000 0.69037  0.93013  0.08613  Biso   1.000  H
  C440     1.0000 0.68617  0.97643  0.15033  Biso   1.000  C
  N111     1.0000 0.64327  0.23843  0.09643  Biso   1.000  N
  N112     1.0000 0.57107  0.26213  0.09693  Biso   1.000  N
  C441     1.0000 0.61717  0.29613  0.09333  Biso   1.000  C
  C442     1.0000 0.65327  0.28333  0.09263  Biso   1.000  C
  C443     1.0000 0.59707  0.20433  0.10013  Biso   1.000  C
  C444     1.0000 0.58387  0.15493  0.10663  Biso   1.000  C
  H221     1.0000 0.60777  0.14583  0.10563  Biso   1.000  H
  C445     1.0000 0.53737  0.12133  0.11403  Biso   1.000  C
  H222     1.0000 0.52917  0.08893  0.12053  Biso   1.000  H
  C446     1.0000 0.50127  0.13273  0.11233  Biso   1.000  C
  H223     1.0000 0.46877  0.10783  0.11573  Biso   1.000  H
  C447     1.0000 0.51147  0.17933  0.10593  Biso   1.000  C
  H224     1.0000 0.48647  0.18683  0.10503  Biso   1.000  H
  C448     1.0000 0.56027  0.21613  0.10073  Biso   1.000  C
  Ag29     1.0000 0.37923  0.56325  0.43554  Biso   1.000  Ag
  Ag30     1.0000 0.38108  0.34403  0.33637  Biso   1.000  Ag
  N113     1.0000 0.39183  0.42127  0.35727  Biso   1.000  N
  N114     1.0000 0.39073  0.50357  0.39807  Biso   1.000  N
  C449     1.0000 0.38063  0.46807  0.43837  Biso   1.000  C
  C450     1.0000 0.38073  0.42647  0.41737  Biso   1.000  C
  C451     1.0000 0.40423  0.45867  0.31727  Biso   1.000  C
  C452     1.0000 0.41753  0.45537  0.25247  Biso   1.000  C
  H225     1.0000 0.41863  0.42787  0.23877  Biso   1.000  H
  C453     1.0000 0.42853  0.49187  0.21107  Biso   1.000  C
  H226     1.0000 0.43573  0.48877  0.16767  Biso   1.000  H
  C454     1.0000 0.42943  0.53437  0.23087  Biso   1.000  C
  H227     1.0000 0.43903  0.56017  0.20147  Biso   1.000  H
  C455     1.0000 0.41623  0.53877  0.29407  Biso   1.000  C
  H228     1.0000 0.41583  0.56667  0.30757  Biso   1.000  H
  C456     1.0000 0.40353  0.49987  0.33637  Biso   1.000  C
  N115     1.0000 0.36663  0.51097  0.52107  Biso   1.000  N
  N116     1.0000 0.34593  0.43717  0.60907  Biso   1.000  N
  C457     1.0000 0.35773  0.43457  0.54947  Biso   1.000  C
  C458     1.0000 0.36853  0.47267  0.50347  Biso   1.000  C
  C459     1.0000 0.35563  0.51527  0.58377  Biso   1.000  C
  C460     1.0000 0.35373  0.55507  0.60247  Biso   1.000  C
  H229     1.0000 0.35973  0.57967  0.57257  Biso   1.000  H
  C461     1.0000 0.34303  0.55857  0.66517  Biso   1.000  C
  H230     1.0000 0.34183  0.58627  0.67827  Biso   1.000  H
  C462     1.0000 0.33403  0.52407  0.70917  Biso   1.000  C
  H231     1.0000 0.32703  0.52817  0.75227  Biso   1.000  H
  C463     1.0000 0.33473  0.48267  0.69257  Biso   1.000  C
  H232     1.0000 0.32803  0.45847  0.72347  Biso   1.000  H
  C464     1.0000 0.34583  0.47757  0.62807  Biso   1.000  C
  N117     1.0000 0.34523  0.35627  0.56877  Biso   1.000  N
  N118     1.0000 0.36533  0.34647  0.44077  Biso   1.000  N
  C465     1.0000 0.36773  0.38647  0.46187  Biso   1.000  C
  C466     1.0000 0.35653  0.39027  0.52767  Biso   1.000  C
  C467     1.0000 0.34363  0.31537  0.54847  Biso   1.000  C
  C468     1.0000 0.33103  0.27777  0.59127  Biso   1.000  C
  H233     1.0000 0.32353  0.28037  0.63467  Biso   1.000  H
  C469     1.0000 0.32953  0.23607  0.56957  Biso   1.000  C
  H234     1.0000 0.32183  0.21077  0.59887  Biso   1.000  H
  C470     1.0000 0.33923  0.23117  0.50607  Biso   1.000  C
  H235     1.0000 0.33793  0.20247  0.49247  Biso   1.000  H
  C471     1.0000 0.35063  0.26707  0.46307  Biso   1.000  C
  H236     1.0000 0.35703  0.26347  0.41947  Biso   1.000  H
  C472     1.0000 0.35283  0.30977  0.48367  Biso   1.000  C
  N119     1.0000 0.30993  0.57177  0.42977  Biso   1.000  N
  N120     1.0000 0.23773  0.59547  0.43027  Biso   1.000  N
  C473     1.0000 0.28383  0.62947  0.42667  Biso   1.000  C
  C474     1.0000 0.31993  0.61667  0.42597  Biso   1.000  C
  C475     1.0000 0.26373  0.53767  0.43347  Biso   1.000  C
  C476     1.0000 0.25053  0.48827  0.43997  Biso   1.000  C
  H237     1.0000 0.27443  0.47917  0.43897  Biso   1.000  H
  C477     1.0000 0.20403  0.45467  0.44737  Biso   1.000  C
  H238     1.0000 0.19583  0.42227  0.45387  Biso   1.000  H
  C478     1.0000 0.16793  0.46607  0.44567  Biso   1.000  C
  H239     1.0000 0.13543  0.44117  0.44907  Biso   1.000  H
  C479     1.0000 0.17813  0.51267  0.43927  Biso   1.000  C
  H240     1.0000 0.15313  0.52017  0.43837  Biso   1.000  H
  C480     1.0000 0.22693  0.54947  0.43407  Biso   1.000  C
  Ag31     1.0000 0.10342  0.14932  0.76887  Biso   1.000  Ag
  Ag32     1.0000 0.32264  0.37039  0.66970  Biso   1.000  Ag
  N121     1.0000 0.24540  0.30390  0.69060  Biso   1.000  N
  N122     1.0000 0.16310  0.22050  0.73140  Biso   1.000  N
  C481     1.0000 0.19860  0.24590  0.77170  Biso   1.000  C
  C482     1.0000 0.24020  0.28760  0.75070  Biso   1.000  C
  C483     1.0000 0.20800  0.27890  0.65060  Biso   1.000  C
  C484     1.0000 0.21130  0.29550  0.58580  Biso   1.000  C
  H241     1.0000 0.23880  0.32410  0.57210  Biso   1.000  H
  C485     1.0000 0.17480  0.27000  0.54440  Biso   1.000  C
  H242     1.0000 0.17790  0.28030  0.50100  Biso   1.000  H
  C486     1.0000 0.13230  0.22840  0.56420  Biso   1.000  C
  H243     1.0000 0.10650  0.21220  0.53480  Biso   1.000  H
  C487     1.0000 0.12790  0.21080  0.62740  Biso   1.000  C
  H244     1.0000 0.10000  0.18250  0.64090  Biso   1.000  H
  C488     1.0000 0.16680  0.23700  0.66970  Biso   1.000  C
  N123     1.0000 0.15570  0.18900  0.85440  Biso   1.000  N
  N124     1.0000 0.22950  0.24210  0.94240  Biso   1.000  N
  C489     1.0000 0.23210  0.25650  0.88280  Biso   1.000  C
  C490     1.0000 0.19400  0.22920  0.83680  Biso   1.000  C
  C491     1.0000 0.15140  0.17370  0.91710  Biso   1.000  C
  C492     1.0000 0.11160  0.13200  0.93580  Biso   1.000  C
  H245     1.0000 0.08700  0.11340  0.90590  Biso   1.000  H
  C493     1.0000 0.10810  0.11780  0.99850  Biso   1.000  C
  H246     1.0000 0.08040  0.08890  0.01160  Biso   1.000  H
  C494     1.0000 0.14260  0.14330  0.04250  Biso   1.000  C
  H247     1.0000 0.13850  0.13220  0.08560  Biso   1.000  H
  C495     1.0000 0.18400  0.18540  0.02590  Biso   1.000  C
  H248     1.0000 0.20820  0.20290  0.05680  Biso   1.000  H
  C496     1.0000 0.18910  0.20160  0.96140  Biso   1.000  C
  N125     1.0000 0.31040  0.32230  0.90210  Biso   1.000  N
  N126     1.0000 0.32020  0.35220  0.77410  Biso   1.000  N
  C497     1.0000 0.28020  0.31460  0.79520  Biso   1.000  C
  C498     1.0000 0.27640  0.29960  0.86100  Biso   1.000  C
  C499     1.0000 0.35130  0.36160  0.88180  Biso   1.000  C
  C500     1.0000 0.38890  0.38660  0.92460  Biso   1.000  C
  H249     1.0000 0.38630  0.37650  0.96800  Biso   1.000  H
  C501     1.0000 0.43060  0.42680  0.90290  Biso   1.000  C
  H250     1.0000 0.45590  0.44440  0.93220  Biso   1.000  H
  C502     1.0000 0.43550  0.44140  0.83940  Biso   1.000  C
  H251     1.0000 0.46420  0.46880  0.82580  Biso   1.000  H
  C503     1.0000 0.39960  0.41690  0.79640  Biso   1.000  C
  H252     1.0000 0.40320  0.42690  0.75280  Biso   1.000  H
  C504     1.0000 0.35690  0.37640  0.81700  Biso   1.000  C
  N127     1.0000 0.09490  0.07150  0.76310  Biso   1.000  N
  N128     1.0000 0.07120  0.97560  0.76360  Biso   1.000  N
  C505     1.0000 0.03720  0.98770  0.76000  Biso   1.000  C
  C506     1.0000 0.05000  0.03660  0.75930  Biso   1.000  C
  C507     1.0000 0.12900  0.05940  0.76680  Biso   1.000  C
  C508     1.0000 0.17840  0.09560  0.77330  Biso   1.000  C
  H253     1.0000 0.18750  0.12860  0.77230  Biso   1.000  H
  C509     1.0000 0.21200  0.08270  0.78070  Biso   1.000  C
  H254     1.0000 0.24440  0.10690  0.78720  Biso   1.000  H
  C510     1.0000 0.20060  0.03520  0.77900  Biso   1.000  C
  H255     1.0000 0.22550  0.02760  0.78240  Biso   1.000  H
  C511     1.0000 0.15400  0.99880  0.77260  Biso   1.000  C
  H256     1.0000 0.14650  0.96630  0.77170  Biso   1.000  H
  C512     1.0000 0.11720  0.01080  0.76740  Biso   1.000  C
  Ag33     1.0000 0.77009  0.48265  0.10220  Biso   1.000  Ag
  Ag34     1.0000 0.98931  0.70372  0.00303  Biso   1.000  Ag
  N129     1.0000 0.91207  0.63723  0.02393  Biso   1.000  N
  N130     1.0000 0.82977  0.55383  0.06473  Biso   1.000  N
  C513     1.0000 0.86527  0.57923  0.10503  Biso   1.000  C
  C514     1.0000 0.90687  0.62093  0.08403  Biso   1.000  C
  C515     1.0000 0.87467  0.61223  0.98393  Biso   1.000  C
  C516     1.0000 0.87797  0.62883  0.91913  Biso   1.000  C
  H257     1.0000 0.90547  0.65743  0.90543  Biso   1.000  H
  C517     1.0000 0.84147  0.60333  0.87773  Biso   1.000  C
  H258     1.0000 0.84457  0.61363  0.83433  Biso   1.000  H
  C518     1.0000 0.79897  0.56173  0.89753  Biso   1.000  C
  H259     1.0000 0.77317  0.54553  0.86813  Biso   1.000  H
  C519     1.0000 0.79457  0.54413  0.96073  Biso   1.000  C
  H260     1.0000 0.76667  0.51583  0.97423  Biso   1.000  H
  C520     1.0000 0.83347  0.57033  0.00303  Biso   1.000  C
  N131     1.0000 0.82237  0.52233  0.18773  Biso   1.000  N
  N132     1.0000 0.89617  0.57543  0.27573  Biso   1.000  N
  C521     1.0000 0.89877  0.58983  0.21613  Biso   1.000  C
  C522     1.0000 0.86067  0.56253  0.17013  Biso   1.000  C
  C523     1.0000 0.81807  0.50703  0.25043  Biso   1.000  C
  C524     1.0000 0.77827  0.46533  0.26913  Biso   1.000  C
  H261     1.0000 0.75367  0.44673  0.23923  Biso   1.000  H
  C525     1.0000 0.77477  0.45113  0.33183  Biso   1.000  C
  H262     1.0000 0.74707  0.42223  0.34493  Biso   1.000  H
  C526     1.0000 0.80927  0.47663  0.37583  Biso   1.000  C
  H263     1.0000 0.80517  0.46553  0.41893  Biso   1.000  H
  C527     1.0000 0.85067  0.51873  0.35923  Biso   1.000  C
  H264     1.0000 0.87487  0.53623  0.39013  Biso   1.000  H
  C528     1.0000 0.85577  0.53493  0.29473  Biso   1.000  C
  N133     1.0000 0.97707  0.65563  0.23543  Biso   1.000  N
  N134     1.0000 0.98687  0.68553  0.10743  Biso   1.000  N
  C529     1.0000 0.94687  0.64793  0.12853  Biso   1.000  C
  C530     1.0000 0.94307  0.63293  0.19433  Biso   1.000  C
  C531     1.0000 0.01797  0.69493  0.21513  Biso   1.000  C
  C532     1.0000 0.05557  0.71993  0.25793  Biso   1.000  C
  H265     1.0000 0.05297  0.70983  0.30133  Biso   1.000  H
  C533     1.0000 0.09727  0.76013  0.23623  Biso   1.000  C
  H266     1.0000 0.12257  0.77773  0.26553  Biso   1.000  H
  C534     1.0000 0.10217  0.77473  0.17273  Biso   1.000  C
  H267     1.0000 0.13087  0.80213  0.15913  Biso   1.000  H
  C535     1.0000 0.06627  0.75023  0.12973  Biso   1.000  C
  H268     1.0000 0.06987  0.76023  0.08613  Biso   1.000  H
  C536     1.0000 0.02357  0.70973  0.15033  Biso   1.000  C
  N135     1.0000 0.76157  0.40483  0.09643  Biso   1.000  N
  N136     1.0000 0.73787  0.30893  0.09693  Biso   1.000  N
  C537     1.0000 0.70387  0.32103  0.09333  Biso   1.000  C
  C538     1.0000 0.71667  0.36993  0.09263  Biso   1.000  C
  C539     1.0000 0.79567  0.39273  0.10013  Biso   1.000  C
  C540     1.0000 0.84507  0.42893  0.10663  Biso   1.000  C
  H269     1.0000 0.85417  0.46193  0.10563  Biso   1.000  H
  C541     1.0000 0.87867  0.41603  0.11403  Biso   1.000  C
  H270     1.0000 0.91107  0.44023  0.12053  Biso   1.000  H
  C542     1.0000 0.86727  0.36853  0.11233  Biso   1.000  C
  H271     1.0000 0.89217  0.36093  0.11573  Biso   1.000  H
  C543     1.0000 0.82067  0.33213  0.10593  Biso   1.000  C
  H272     1.0000 0.81317  0.29963  0.10503  Biso   1.000  H
  C544     1.0000 0.78387  0.34413  0.10073  Biso   1.000  C
  Ag35     1.0000 0.43675  0.81599  0.43554  Biso   1.000  Ag
  Ag36     1.0000 0.65597  0.03706  0.33637  Biso   1.000  Ag
  N137     1.0000 0.57873  0.97057  0.35727  Biso   1.000  N
  N138     1.0000 0.49643  0.88717  0.39807  Biso   1.000  N
  C545     1.0000 0.53193  0.91257  0.43837  Biso   1.000  C
  C546     1.0000 0.57353  0.95427  0.41737  Biso   1.000  C
  C547     1.0000 0.54133  0.94557  0.31727  Biso   1.000  C
  C548     1.0000 0.54463  0.96217  0.25247  Biso   1.000  C
  H273     1.0000 0.57213  0.99077  0.23877  Biso   1.000  H
  C549     1.0000 0.50813  0.93667  0.21107  Biso   1.000  C
  H274     1.0000 0.51123  0.94697  0.16767  Biso   1.000  H
  C550     1.0000 0.46563  0.89507  0.23087  Biso   1.000  C
  H275     1.0000 0.43983  0.87887  0.20147  Biso   1.000  H
  C551     1.0000 0.46123  0.87747  0.29407  Biso   1.000  C
  H276     1.0000 0.43333  0.84917  0.30757  Biso   1.000  H
  C552     1.0000 0.50013  0.90367  0.33637  Biso   1.000  C
  N139     1.0000 0.48903  0.85567  0.52107  Biso   1.000  N
  N140     1.0000 0.56283  0.90877  0.60907  Biso   1.000  N
  C553     1.0000 0.56543  0.92317  0.54947  Biso   1.000  C
  C554     1.0000 0.52733  0.89587  0.50347  Biso   1.000  C
  C555     1.0000 0.48473  0.84037  0.58377  Biso   1.000  C
  C556     1.0000 0.44493  0.79867  0.60247  Biso   1.000  C
  H277     1.0000 0.42033  0.78007  0.57257  Biso   1.000  H
  C557     1.0000 0.44143  0.78447  0.66517  Biso   1.000  C
  H278     1.0000 0.41373  0.75557  0.67827  Biso   1.000  H
  C558     1.0000 0.47593  0.80997  0.70917  Biso   1.000  C
  H279     1.0000 0.47183  0.79887  0.75227  Biso   1.000  H
  C559     1.0000 0.51733  0.85207  0.69257  Biso   1.000  C
  H280     1.0000 0.54153  0.86957  0.72347  Biso   1.000  H
  C560     1.0000 0.52243  0.86827  0.62807  Biso   1.000  C
  N141     1.0000 0.64373  0.98897  0.56877  Biso   1.000  N
  N142     1.0000 0.65353  0.01887  0.44077  Biso   1.000  N
  C561     1.0000 0.61353  0.98127  0.46187  Biso   1.000  C
  C562     1.0000 0.60973  0.96627  0.52767  Biso   1.000  C
  C563     1.0000 0.68463  0.02827  0.54847  Biso   1.000  C
  C564     1.0000 0.72223  0.05327  0.59127  Biso   1.000  C
  H281     1.0000 0.71963  0.04317  0.63467  Biso   1.000  H
  C565     1.0000 0.76393  0.09347  0.56957  Biso   1.000  C
  H282     1.0000 0.78923  0.11107  0.59887  Biso   1.000  H
  C566     1.0000 0.76883  0.10807  0.50607  Biso   1.000  C
  H283     1.0000 0.79753  0.13547  0.49247  Biso   1.000  H
  C567     1.0000 0.73293  0.08357  0.46307  Biso   1.000  C
  H284     1.0000 0.73653  0.09357  0.41947  Biso   1.000  H
  C568     1.0000 0.69023  0.04307  0.48367  Biso   1.000  C
  N143     1.0000 0.42823  0.73817  0.42977  Biso   1.000  N
  N144     1.0000 0.40453  0.64227  0.43027  Biso   1.000  N
  C569     1.0000 0.37053  0.65437  0.42667  Biso   1.000  C
  C570     1.0000 0.38333  0.70327  0.42597  Biso   1.000  C
  C571     1.0000 0.46233  0.72607  0.43347  Biso   1.000  C
  C572     1.0000 0.51173  0.76227  0.43997  Biso   1.000  C
  H285     1.0000 0.52083  0.79527  0.43897  Biso   1.000  H
  C573     1.0000 0.54533  0.74937  0.44737  Biso   1.000  C
  H286     1.0000 0.57773  0.77357  0.45387  Biso   1.000  H
  C574     1.0000 0.53393  0.70187  0.44567  Biso   1.000  C
  H287     1.0000 0.55883  0.69427  0.44907  Biso   1.000  H
  C575     1.0000 0.48733  0.66547  0.43927  Biso   1.000  C
  H288     1.0000 0.47983  0.63297  0.43837  Biso   1.000  H
  C576     1.0000 0.45053  0.67747  0.43407  Biso   1.000  C
