data_image0
_cell_length_a       18.198
_cell_length_b       18.198
_cell_length_c       28.872
_cell_angle_alpha    90
_cell_angle_beta     90
_cell_angle_gamma    90

_symmetry_space_group_name_H-M    "P 1"
_symmetry_int_tables_number       1

loop_
  _symmetry_equiv_pos_as_xyz
  'x, y, z'

loop_
  _atom_site_label
  _atom_site_occupancy
  _atom_site_fract_x
  _atom_site_fract_y
  _atom_site_fract_z
  _atom_site_thermal_displace_type
  _atom_site_B_iso_or_equiv
  _atom_site_type_symbol
  Zn1      1.0000 0.24231  0.05531  0.39258  Biso   1.000  Zn
  N1       1.0000 0.18984  0.04091  0.33198  Biso   1.000  N
  N2       1.0000 0.16033  0.02474  0.25905  Biso   1.000  N
  N3       1.0000 0.34931  0.20112  0.10296  Biso   1.000  N
  N4       1.0000 0.25871  0.12373  0.11560  Biso   1.000  N
  N5       1.0000 0.02174  0.82008  0.09785  Biso   1.000  N
  N6       1.0000 0.09739  0.91115  0.11330  Biso   1.000  N
  O1       1.0000 0.16480  0.06970  0.44074  Biso   1.000  O
  O2       1.0000 0.15894  0.95127  0.42864  Biso   1.000  O
  C1       1.0000 0.12910  0.96880  0.18540  Biso   1.000  C
  H1       1.0000 0.10200  0.93320  0.20100  Biso   1.000  H
  C2       1.0000 0.16550  0.02360  0.20947  Biso   1.000  C
  C3       1.0000 0.20690  0.07590  0.18712  Biso   1.000  C
  H2       1.0000 0.23060  0.11280  0.20370  Biso   1.000  H
  C4       1.0000 0.21256  0.07260  0.13923  Biso   1.000  C
  C5       1.0000 0.17530  0.01960  0.11435  Biso   1.000  C
  H3       1.0000 0.17810  0.01840  0.08220  Biso   1.000  H
  C6       1.0000 0.13380  0.96830  0.13785  Biso   1.000  C
  C7       1.0000 0.21120  0.05100  0.28913  Biso   1.000  C
  H4       1.0000 0.25510  0.07310  0.28050  Biso   1.000  H
  C8       1.0000 0.12180  0.00680  0.32901  Biso   1.000  C
  H5       1.0000 0.09290  0.99360  0.35420  Biso   1.000  H
  C9       1.0000 0.10410  0.99560  0.28503  Biso   1.000  C
  H6       1.0000 0.06200  0.97270  0.27390  Biso   1.000  H
  C10      1.0000 0.31450  0.16240  0.13395  Biso   1.000  C
  H7       1.0000 0.32680  0.16170  0.16520  Biso   1.000  H
  C11      1.0000 0.31360  0.18620  0.06185  Biso   1.000  C
  H8       1.0000 0.32590  0.20650  0.03330  Biso   1.000  H
  C12      1.0000 0.25890  0.13830  0.06885  Biso   1.000  C
  H9       1.0000 0.22730  0.11890  0.04660  Biso   1.000  H
  C13      1.0000 0.03770  0.87370  0.12738  Biso   1.000  C
  H10      1.0000 0.01130  0.88400  0.15420  Biso   1.000  H
  C14      1.0000 0.07340  0.82430  0.06326  Biso   1.000  C
  H11      1.0000 0.07570  0.79340  0.03770  Biso   1.000  H
  C15      1.0000 0.12000  0.87980  0.07190  Biso   1.000  C
  H12      1.0000 0.15960  0.89440  0.05370  Biso   1.000  H
  C16      1.0000 0.13380  0.00900  0.44576  Biso   1.000  C
  C17      1.0000 0.06340  0.00500  0.47297  Biso   1.000  C
  C18      1.0000 0.05280  0.05160  0.51061  Biso   1.000  C
  H13      1.0000 0.08800  0.08690  0.51770  Biso   1.000  H
  C19      1.0000 0.99050  0.04570  0.53740  Biso   1.000  C
  Br1      1.0000 0.99526  0.10591  0.59616  Biso   1.000  Br
  H14      1.0000 0.98500  0.07650  0.56420  Biso   1.000  H
  Zn2      1.0000 0.25769  0.44469  0.39258  Biso   1.000  Zn
  N7       1.0000 0.31016  0.45909  0.33198  Biso   1.000  N
  N8       1.0000 0.33967  0.47526  0.25905  Biso   1.000  N
  N9       1.0000 0.15069  0.29888  0.10296  Biso   1.000  N
  N10      1.0000 0.24129  0.37627  0.11560  Biso   1.000  N
  N11      1.0000 0.47826  0.67992  0.09785  Biso   1.000  N
  N12      1.0000 0.40261  0.58885  0.11330  Biso   1.000  N
  O3       1.0000 0.33520  0.43030  0.44074  Biso   1.000  O
  O4       1.0000 0.34106  0.54873  0.42864  Biso   1.000  O
  C20      1.0000 0.37090  0.53120  0.18540  Biso   1.000  C
  H15      1.0000 0.39800  0.56680  0.20100  Biso   1.000  H
  C21      1.0000 0.33450  0.47640  0.20947  Biso   1.000  C
  C22      1.0000 0.29310  0.42410  0.18712  Biso   1.000  C
  H16      1.0000 0.26940  0.38720  0.20370  Biso   1.000  H
  C23      1.0000 0.28744  0.42740  0.13923  Biso   1.000  C
  C24      1.0000 0.32470  0.48040  0.11435  Biso   1.000  C
  H17      1.0000 0.32190  0.48160  0.08220  Biso   1.000  H
  C25      1.0000 0.36620  0.53170  0.13785  Biso   1.000  C
  C26      1.0000 0.28880  0.44900  0.28913  Biso   1.000  C
  H18      1.0000 0.24490  0.42690  0.28050  Biso   1.000  H
  C27      1.0000 0.37820  0.49320  0.32901  Biso   1.000  C
  H19      1.0000 0.40710  0.50640  0.35420  Biso   1.000  H
  C28      1.0000 0.39590  0.50440  0.28503  Biso   1.000  C
  H20      1.0000 0.43800  0.52730  0.27390  Biso   1.000  H
  C29      1.0000 0.18550  0.33760  0.13395  Biso   1.000  C
  H21      1.0000 0.17320  0.33830  0.16520  Biso   1.000  H
  C30      1.0000 0.18640  0.31380  0.06185  Biso   1.000  C
  H22      1.0000 0.17410  0.29350  0.03330  Biso   1.000  H
  C31      1.0000 0.24110  0.36170  0.06885  Biso   1.000  C
  H23      1.0000 0.27270  0.38110  0.04660  Biso   1.000  H
  C32      1.0000 0.46230  0.62630  0.12738  Biso   1.000  C
  H24      1.0000 0.48870  0.61600  0.15420  Biso   1.000  H
  C33      1.0000 0.42660  0.67570  0.06326  Biso   1.000  C
  H25      1.0000 0.42430  0.70660  0.03770  Biso   1.000  H
  C34      1.0000 0.38000  0.62020  0.07190  Biso   1.000  C
  H26      1.0000 0.34040  0.60560  0.05370  Biso   1.000  H
  C35      1.0000 0.36620  0.49100  0.44576  Biso   1.000  C
  C36      1.0000 0.43660  0.49500  0.47297  Biso   1.000  C
  C37      1.0000 0.44720  0.44840  0.51061  Biso   1.000  C
  H27      1.0000 0.41200  0.41310  0.51770  Biso   1.000  H
  C38      1.0000 0.50950  0.45430  0.53740  Biso   1.000  C
  Br2      1.0000 0.50474  0.39409  0.59616  Biso   1.000  Br
  H28      1.0000 0.51500  0.42350  0.56420  Biso   1.000  H
  Zn3      1.0000 0.44469  0.24231  0.89258  Biso   1.000  Zn
  N13      1.0000 0.45909  0.18984  0.83198  Biso   1.000  N
  N14      1.0000 0.47526  0.16033  0.75905  Biso   1.000  N
  N15      1.0000 0.29888  0.34931  0.60296  Biso   1.000  N
  N16      1.0000 0.37627  0.25871  0.61560  Biso   1.000  N
  N17      1.0000 0.67992  0.02174  0.59785  Biso   1.000  N
  N18      1.0000 0.58885  0.09739  0.61330  Biso   1.000  N
  O5       1.0000 0.43030  0.16480  0.94074  Biso   1.000  O
  O6       1.0000 0.54873  0.15894  0.92864  Biso   1.000  O
  C39      1.0000 0.53120  0.12910  0.68540  Biso   1.000  C
  H29      1.0000 0.56680  0.10200  0.70100  Biso   1.000  H
  C40      1.0000 0.47640  0.16550  0.70947  Biso   1.000  C
  C41      1.0000 0.42410  0.20690  0.68712  Biso   1.000  C
  H30      1.0000 0.38720  0.23060  0.70370  Biso   1.000  H
  C42      1.0000 0.42740  0.21256  0.63923  Biso   1.000  C
  C43      1.0000 0.48040  0.17530  0.61435  Biso   1.000  C
  H31      1.0000 0.48160  0.17810  0.58220  Biso   1.000  H
  C44      1.0000 0.53170  0.13380  0.63785  Biso   1.000  C
  C45      1.0000 0.44900  0.21120  0.78913  Biso   1.000  C
  H32      1.0000 0.42690  0.25510  0.78050  Biso   1.000  H
  C46      1.0000 0.49320  0.12180  0.82901  Biso   1.000  C
  H33      1.0000 0.50640  0.09290  0.85420  Biso   1.000  H
  C47      1.0000 0.50440  0.10410  0.78503  Biso   1.000  C
  H34      1.0000 0.52730  0.06200  0.77390  Biso   1.000  H
  C48      1.0000 0.33760  0.31450  0.63395  Biso   1.000  C
  H35      1.0000 0.33830  0.32680  0.66520  Biso   1.000  H
  C49      1.0000 0.31380  0.31360  0.56185  Biso   1.000  C
  H36      1.0000 0.29350  0.32590  0.53330  Biso   1.000  H
  C50      1.0000 0.36170  0.25890  0.56885  Biso   1.000  C
  H37      1.0000 0.38110  0.22730  0.54660  Biso   1.000  H
  C51      1.0000 0.62630  0.03770  0.62738  Biso   1.000  C
  H38      1.0000 0.61600  0.01130  0.65420  Biso   1.000  H
  C52      1.0000 0.67570  0.07340  0.56326  Biso   1.000  C
  H39      1.0000 0.70660  0.07570  0.53770  Biso   1.000  H
  C53      1.0000 0.62020  0.12000  0.57190  Biso   1.000  C
  H40      1.0000 0.60560  0.15960  0.55370  Biso   1.000  H
  C54      1.0000 0.49100  0.13380  0.94576  Biso   1.000  C
  C55      1.0000 0.49500  0.06340  0.97297  Biso   1.000  C
  C56      1.0000 0.44840  0.05280  0.01061  Biso   1.000  C
  H41      1.0000 0.41310  0.08800  0.01770  Biso   1.000  H
  C57      1.0000 0.45430  0.99050  0.03740  Biso   1.000  C
  Br3      1.0000 0.39409  0.99526  0.09616  Biso   1.000  Br
  H42      1.0000 0.42350  0.98500  0.06420  Biso   1.000  H
  Zn4      1.0000 0.05531  0.25769  0.89258  Biso   1.000  Zn
  N19      1.0000 0.04091  0.31016  0.83198  Biso   1.000  N
  N20      1.0000 0.02474  0.33967  0.75905  Biso   1.000  N
  N21      1.0000 0.20112  0.15069  0.60296  Biso   1.000  N
  N22      1.0000 0.12373  0.24129  0.61560  Biso   1.000  N
  N23      1.0000 0.82008  0.47826  0.59785  Biso   1.000  N
  N24      1.0000 0.91115  0.40261  0.61330  Biso   1.000  N
  O7       1.0000 0.06970  0.33520  0.94074  Biso   1.000  O
  O8       1.0000 0.95127  0.34106  0.92864  Biso   1.000  O
  C58      1.0000 0.96880  0.37090  0.68540  Biso   1.000  C
  H43      1.0000 0.93320  0.39800  0.70100  Biso   1.000  H
  C59      1.0000 0.02360  0.33450  0.70947  Biso   1.000  C
  C60      1.0000 0.07590  0.29310  0.68712  Biso   1.000  C
  H44      1.0000 0.11280  0.26940  0.70370  Biso   1.000  H
  C61      1.0000 0.07260  0.28744  0.63923  Biso   1.000  C
  C62      1.0000 0.01960  0.32470  0.61435  Biso   1.000  C
  H45      1.0000 0.01840  0.32190  0.58220  Biso   1.000  H
  C63      1.0000 0.96830  0.36620  0.63785  Biso   1.000  C
  C64      1.0000 0.05100  0.28880  0.78913  Biso   1.000  C
  H46      1.0000 0.07310  0.24490  0.78050  Biso   1.000  H
  C65      1.0000 0.00680  0.37820  0.82901  Biso   1.000  C
  H47      1.0000 0.99360  0.40710  0.85420  Biso   1.000  H
  C66      1.0000 0.99560  0.39590  0.78503  Biso   1.000  C
  H48      1.0000 0.97270  0.43800  0.77390  Biso   1.000  H
  C67      1.0000 0.16240  0.18550  0.63395  Biso   1.000  C
  H49      1.0000 0.16170  0.17320  0.66520  Biso   1.000  H
  C68      1.0000 0.18620  0.18640  0.56185  Biso   1.000  C
  H50      1.0000 0.20650  0.17410  0.53330  Biso   1.000  H
  C69      1.0000 0.13830  0.24110  0.56885  Biso   1.000  C
  H51      1.0000 0.11890  0.27270  0.54660  Biso   1.000  H
  C70      1.0000 0.87370  0.46230  0.62738  Biso   1.000  C
  H52      1.0000 0.88400  0.48870  0.65420  Biso   1.000  H
  C71      1.0000 0.82430  0.42660  0.56326  Biso   1.000  C
  H53      1.0000 0.79340  0.42430  0.53770  Biso   1.000  H
  C72      1.0000 0.87980  0.38000  0.57190  Biso   1.000  C
  H54      1.0000 0.89440  0.34040  0.55370  Biso   1.000  H
  C73      1.0000 0.00900  0.36620  0.94576  Biso   1.000  C
  C74      1.0000 0.00500  0.43660  0.97297  Biso   1.000  C
  C75      1.0000 0.05160  0.44720  0.01061  Biso   1.000  C
  H55      1.0000 0.08690  0.41200  0.01770  Biso   1.000  H
  C76      1.0000 0.04570  0.50950  0.03740  Biso   1.000  C
  Br4      1.0000 0.10591  0.50474  0.09616  Biso   1.000  Br
  H56      1.0000 0.07650  0.51500  0.06420  Biso   1.000  H
  Zn5      1.0000 0.25769  0.05531  0.60742  Biso   1.000  Zn
  N25      1.0000 0.31016  0.04091  0.66802  Biso   1.000  N
  N26      1.0000 0.33967  0.02474  0.74095  Biso   1.000  N
  N27      1.0000 0.15069  0.20112  0.89704  Biso   1.000  N
  N28      1.0000 0.24129  0.12373  0.88440  Biso   1.000  N
  N29      1.0000 0.47826  0.82008  0.90215  Biso   1.000  N
  N30      1.0000 0.40261  0.91115  0.88670  Biso   1.000  N
  O9       1.0000 0.33520  0.06970  0.55926  Biso   1.000  O
  O10      1.0000 0.34106  0.95127  0.57136  Biso   1.000  O
  C77      1.0000 0.37090  0.96880  0.81460  Biso   1.000  C
  H57      1.0000 0.39800  0.93320  0.79900  Biso   1.000  H
  C78      1.0000 0.33450  0.02360  0.79053  Biso   1.000  C
  C79      1.0000 0.29310  0.07590  0.81288  Biso   1.000  C
  H58      1.0000 0.26940  0.11280  0.79630  Biso   1.000  H
  C80      1.0000 0.28744  0.07260  0.86077  Biso   1.000  C
  C81      1.0000 0.32470  0.01960  0.88565  Biso   1.000  C
  H59      1.0000 0.32190  0.01840  0.91780  Biso   1.000  H
  C82      1.0000 0.36620  0.96830  0.86215  Biso   1.000  C
  C83      1.0000 0.28880  0.05100  0.71087  Biso   1.000  C
  H60      1.0000 0.24490  0.07310  0.71950  Biso   1.000  H
  C84      1.0000 0.37820  0.00680  0.67099  Biso   1.000  C
  H61      1.0000 0.40710  0.99360  0.64580  Biso   1.000  H
  C85      1.0000 0.39590  0.99560  0.71497  Biso   1.000  C
  H62      1.0000 0.43800  0.97270  0.72610  Biso   1.000  H
  C86      1.0000 0.18550  0.16240  0.86605  Biso   1.000  C
  H63      1.0000 0.17320  0.16170  0.83480  Biso   1.000  H
  C87      1.0000 0.18640  0.18620  0.93815  Biso   1.000  C
  H64      1.0000 0.17410  0.20650  0.96670  Biso   1.000  H
  C88      1.0000 0.24110  0.13830  0.93115  Biso   1.000  C
  H65      1.0000 0.27270  0.11890  0.95340  Biso   1.000  H
  C89      1.0000 0.46230  0.87370  0.87262  Biso   1.000  C
  H66      1.0000 0.48870  0.88400  0.84580  Biso   1.000  H
  C90      1.0000 0.42660  0.82430  0.93674  Biso   1.000  C
  H67      1.0000 0.42430  0.79340  0.96230  Biso   1.000  H
  C91      1.0000 0.38000  0.87980  0.92810  Biso   1.000  C
  H68      1.0000 0.34040  0.89440  0.94630  Biso   1.000  H
  C92      1.0000 0.36620  0.00900  0.55424  Biso   1.000  C
  C93      1.0000 0.43660  0.00500  0.52703  Biso   1.000  C
  C94      1.0000 0.44720  0.05160  0.48939  Biso   1.000  C
  H69      1.0000 0.41200  0.08690  0.48230  Biso   1.000  H
  C95      1.0000 0.50950  0.04570  0.46260  Biso   1.000  C
  Br5      1.0000 0.50474  0.10591  0.40384  Biso   1.000  Br
  H70      1.0000 0.51500  0.07650  0.43580  Biso   1.000  H
  Zn6      1.0000 0.24231  0.44469  0.60742  Biso   1.000  Zn
  N31      1.0000 0.18984  0.45909  0.66802  Biso   1.000  N
  N32      1.0000 0.16033  0.47526  0.74095  Biso   1.000  N
  N33      1.0000 0.34931  0.29888  0.89704  Biso   1.000  N
  N34      1.0000 0.25871  0.37627  0.88440  Biso   1.000  N
  N35      1.0000 0.02174  0.67992  0.90215  Biso   1.000  N
  N36      1.0000 0.09739  0.58885  0.88670  Biso   1.000  N
  O11      1.0000 0.16480  0.43030  0.55926  Biso   1.000  O
  O12      1.0000 0.15894  0.54873  0.57136  Biso   1.000  O
  C96      1.0000 0.12910  0.53120  0.81460  Biso   1.000  C
  H71      1.0000 0.10200  0.56680  0.79900  Biso   1.000  H
  C97      1.0000 0.16550  0.47640  0.79053  Biso   1.000  C
  C98      1.0000 0.20690  0.42410  0.81288  Biso   1.000  C
  H72      1.0000 0.23060  0.38720  0.79630  Biso   1.000  H
  C99      1.0000 0.21256  0.42740  0.86077  Biso   1.000  C
  C100     1.0000 0.17530  0.48040  0.88565  Biso   1.000  C
  H73      1.0000 0.17810  0.48160  0.91780  Biso   1.000  H
  C101     1.0000 0.13380  0.53170  0.86215  Biso   1.000  C
  C102     1.0000 0.21120  0.44900  0.71087  Biso   1.000  C
  H74      1.0000 0.25510  0.42690  0.71950  Biso   1.000  H
  C103     1.0000 0.12180  0.49320  0.67099  Biso   1.000  C
  H75      1.0000 0.09290  0.50640  0.64580  Biso   1.000  H
  C104     1.0000 0.10410  0.50440  0.71497  Biso   1.000  C
  H76      1.0000 0.06200  0.52730  0.72610  Biso   1.000  H
  C105     1.0000 0.31450  0.33760  0.86605  Biso   1.000  C
  H77      1.0000 0.32680  0.33830  0.83480  Biso   1.000  H
  C106     1.0000 0.31360  0.31380  0.93815  Biso   1.000  C
  H78      1.0000 0.32590  0.29350  0.96670  Biso   1.000  H
  C107     1.0000 0.25890  0.36170  0.93115  Biso   1.000  C
  H79      1.0000 0.22730  0.38110  0.95340  Biso   1.000  H
  C108     1.0000 0.03770  0.62630  0.87262  Biso   1.000  C
  H80      1.0000 0.01130  0.61600  0.84580  Biso   1.000  H
  C109     1.0000 0.07340  0.67570  0.93674  Biso   1.000  C
  H81      1.0000 0.07570  0.70660  0.96230  Biso   1.000  H
  C110     1.0000 0.12000  0.62020  0.92810  Biso   1.000  C
  H82      1.0000 0.15960  0.60560  0.94630  Biso   1.000  H
  C111     1.0000 0.13380  0.49100  0.55424  Biso   1.000  C
  C112     1.0000 0.06340  0.49500  0.52703  Biso   1.000  C
  C113     1.0000 0.05280  0.44840  0.48939  Biso   1.000  C
  H83      1.0000 0.08800  0.41310  0.48230  Biso   1.000  H
  C114     1.0000 0.99050  0.45430  0.46260  Biso   1.000  C
  Br6      1.0000 0.99526  0.39409  0.40384  Biso   1.000  Br
  H84      1.0000 0.98500  0.42350  0.43580  Biso   1.000  H
  Zn7      1.0000 0.05531  0.24231  0.10742  Biso   1.000  Zn
  N37      1.0000 0.04091  0.18984  0.16802  Biso   1.000  N
  N38      1.0000 0.02474  0.16033  0.24095  Biso   1.000  N
  N39      1.0000 0.20112  0.34931  0.39704  Biso   1.000  N
  N40      1.0000 0.12373  0.25871  0.38440  Biso   1.000  N
  N41      1.0000 0.82008  0.02174  0.40215  Biso   1.000  N
  N42      1.0000 0.91115  0.09739  0.38670  Biso   1.000  N
  O13      1.0000 0.06970  0.16480  0.05926  Biso   1.000  O
  O14      1.0000 0.95127  0.15894  0.07136  Biso   1.000  O
  C115     1.0000 0.96880  0.12910  0.31460  Biso   1.000  C
  H85      1.0000 0.93320  0.10200  0.29900  Biso   1.000  H
  C116     1.0000 0.02360  0.16550  0.29053  Biso   1.000  C
  C117     1.0000 0.07590  0.20690  0.31288  Biso   1.000  C
  H86      1.0000 0.11280  0.23060  0.29630  Biso   1.000  H
  C118     1.0000 0.07260  0.21256  0.36077  Biso   1.000  C
  C119     1.0000 0.01960  0.17530  0.38565  Biso   1.000  C
  H87      1.0000 0.01840  0.17810  0.41780  Biso   1.000  H
  C120     1.0000 0.96830  0.13380  0.36215  Biso   1.000  C
  C121     1.0000 0.05100  0.21120  0.21087  Biso   1.000  C
  H88      1.0000 0.07310  0.25510  0.21950  Biso   1.000  H
  C122     1.0000 0.00680  0.12180  0.17099  Biso   1.000  C
  H89      1.0000 0.99360  0.09290  0.14580  Biso   1.000  H
  C123     1.0000 0.99560  0.10410  0.21497  Biso   1.000  C
  H90      1.0000 0.97270  0.06200  0.22610  Biso   1.000  H
  C124     1.0000 0.16240  0.31450  0.36605  Biso   1.000  C
  H91      1.0000 0.16170  0.32680  0.33480  Biso   1.000  H
  C125     1.0000 0.18620  0.31360  0.43815  Biso   1.000  C
  H92      1.0000 0.20650  0.32590  0.46670  Biso   1.000  H
  C126     1.0000 0.13830  0.25890  0.43115  Biso   1.000  C
  H93      1.0000 0.11890  0.22730  0.45340  Biso   1.000  H
  C127     1.0000 0.87370  0.03770  0.37262  Biso   1.000  C
  H94      1.0000 0.88400  0.01130  0.34580  Biso   1.000  H
  C128     1.0000 0.82430  0.07340  0.43674  Biso   1.000  C
  H95      1.0000 0.79340  0.07570  0.46230  Biso   1.000  H
  C129     1.0000 0.87980  0.12000  0.42810  Biso   1.000  C
  H96      1.0000 0.89440  0.15960  0.44630  Biso   1.000  H
  C130     1.0000 0.00900  0.13380  0.05424  Biso   1.000  C
  C131     1.0000 0.00500  0.06340  0.02703  Biso   1.000  C
  C132     1.0000 0.05160  0.05280  0.98939  Biso   1.000  C
  H97      1.0000 0.08690  0.08800  0.98230  Biso   1.000  H
  C133     1.0000 0.04570  0.99050  0.96260  Biso   1.000  C
  Br7      1.0000 0.10591  0.99526  0.90384  Biso   1.000  Br
  H98      1.0000 0.07650  0.98500  0.93580  Biso   1.000  H
  Zn8      1.0000 0.44469  0.25769  0.10742  Biso   1.000  Zn
  N43      1.0000 0.45909  0.31016  0.16802  Biso   1.000  N
  N44      1.0000 0.47526  0.33967  0.24095  Biso   1.000  N
  N45      1.0000 0.29888  0.15069  0.39704  Biso   1.000  N
  N46      1.0000 0.37627  0.24129  0.38440  Biso   1.000  N
  N47      1.0000 0.67992  0.47826  0.40215  Biso   1.000  N
  N48      1.0000 0.58885  0.40261  0.38670  Biso   1.000  N
  O15      1.0000 0.43030  0.33520  0.05926  Biso   1.000  O
  O16      1.0000 0.54873  0.34106  0.07136  Biso   1.000  O
  C134     1.0000 0.53120  0.37090  0.31460  Biso   1.000  C
  H99      1.0000 0.56680  0.39800  0.29900  Biso   1.000  H
  C135     1.0000 0.47640  0.33450  0.29053  Biso   1.000  C
  C136     1.0000 0.42410  0.29310  0.31288  Biso   1.000  C
  H100     1.0000 0.38720  0.26940  0.29630  Biso   1.000  H
  C137     1.0000 0.42740  0.28744  0.36077  Biso   1.000  C
  C138     1.0000 0.48040  0.32470  0.38565  Biso   1.000  C
  H101     1.0000 0.48160  0.32190  0.41780  Biso   1.000  H
  C139     1.0000 0.53170  0.36620  0.36215  Biso   1.000  C
  C140     1.0000 0.44900  0.28880  0.21087  Biso   1.000  C
  H102     1.0000 0.42690  0.24490  0.21950  Biso   1.000  H
  C141     1.0000 0.49320  0.37820  0.17099  Biso   1.000  C
  H103     1.0000 0.50640  0.40710  0.14580  Biso   1.000  H
  C142     1.0000 0.50440  0.39590  0.21497  Biso   1.000  C
  H104     1.0000 0.52730  0.43800  0.22610  Biso   1.000  H
  C143     1.0000 0.33760  0.18550  0.36605  Biso   1.000  C
  H105     1.0000 0.33830  0.17320  0.33480  Biso   1.000  H
  C144     1.0000 0.31380  0.18640  0.43815  Biso   1.000  C
  H106     1.0000 0.29350  0.17410  0.46670  Biso   1.000  H
  C145     1.0000 0.36170  0.24110  0.43115  Biso   1.000  C
  H107     1.0000 0.38110  0.27270  0.45340  Biso   1.000  H
  C146     1.0000 0.62630  0.46230  0.37262  Biso   1.000  C
  H108     1.0000 0.61600  0.48870  0.34580  Biso   1.000  H
  C147     1.0000 0.67570  0.42660  0.43674  Biso   1.000  C
  H109     1.0000 0.70660  0.42430  0.46230  Biso   1.000  H
  C148     1.0000 0.62020  0.38000  0.42810  Biso   1.000  C
  H110     1.0000 0.60560  0.34040  0.44630  Biso   1.000  H
  C149     1.0000 0.49100  0.36620  0.05424  Biso   1.000  C
  C150     1.0000 0.49500  0.43660  0.02703  Biso   1.000  C
  C151     1.0000 0.44840  0.44720  0.98939  Biso   1.000  C
  H111     1.0000 0.41310  0.41200  0.98230  Biso   1.000  H
  C152     1.0000 0.45430  0.50950  0.96260  Biso   1.000  C
  Br8      1.0000 0.39409  0.50474  0.90384  Biso   1.000  Br
  H112     1.0000 0.42350  0.51500  0.93580  Biso   1.000  H
  Zn9      1.0000 0.75769  0.94469  0.60742  Biso   1.000  Zn
  N49      1.0000 0.81016  0.95909  0.66802  Biso   1.000  N
  N50      1.0000 0.83967  0.97526  0.74095  Biso   1.000  N
  N51      1.0000 0.65069  0.79888  0.89704  Biso   1.000  N
  N52      1.0000 0.74129  0.87627  0.88440  Biso   1.000  N
  N53      1.0000 0.97826  0.17992  0.90215  Biso   1.000  N
  N54      1.0000 0.90261  0.08885  0.88670  Biso   1.000  N
  O17      1.0000 0.83520  0.93030  0.55926  Biso   1.000  O
  O18      1.0000 0.84106  0.04873  0.57136  Biso   1.000  O
  C153     1.0000 0.87090  0.03120  0.81460  Biso   1.000  C
  H113     1.0000 0.89800  0.06680  0.79900  Biso   1.000  H
  C154     1.0000 0.83450  0.97640  0.79053  Biso   1.000  C
  C155     1.0000 0.79310  0.92410  0.81288  Biso   1.000  C
  H114     1.0000 0.76940  0.88720  0.79630  Biso   1.000  H
  C156     1.0000 0.78744  0.92740  0.86077  Biso   1.000  C
  C157     1.0000 0.82470  0.98040  0.88565  Biso   1.000  C
  H115     1.0000 0.82190  0.98160  0.91780  Biso   1.000  H
  C158     1.0000 0.86620  0.03170  0.86215  Biso   1.000  C
  C159     1.0000 0.78880  0.94900  0.71087  Biso   1.000  C
  H116     1.0000 0.74490  0.92690  0.71950  Biso   1.000  H
  C160     1.0000 0.87820  0.99320  0.67099  Biso   1.000  C
  H117     1.0000 0.90710  0.00640  0.64580  Biso   1.000  H
  C161     1.0000 0.89590  0.00440  0.71497  Biso   1.000  C
  H118     1.0000 0.93800  0.02730  0.72610  Biso   1.000  H
  C162     1.0000 0.68550  0.83760  0.86605  Biso   1.000  C
  H119     1.0000 0.67320  0.83830  0.83480  Biso   1.000  H
  C163     1.0000 0.68640  0.81380  0.93815  Biso   1.000  C
  H120     1.0000 0.67410  0.79350  0.96670  Biso   1.000  H
  C164     1.0000 0.74110  0.86170  0.93115  Biso   1.000  C
  H121     1.0000 0.77270  0.88110  0.95340  Biso   1.000  H
  C165     1.0000 0.96230  0.12630  0.87262  Biso   1.000  C
  H122     1.0000 0.98870  0.11600  0.84580  Biso   1.000  H
  C166     1.0000 0.92660  0.17570  0.93674  Biso   1.000  C
  H123     1.0000 0.92430  0.20660  0.96230  Biso   1.000  H
  C167     1.0000 0.88000  0.12020  0.92810  Biso   1.000  C
  H124     1.0000 0.84040  0.10560  0.94630  Biso   1.000  H
  C168     1.0000 0.86620  0.99100  0.55424  Biso   1.000  C
  C169     1.0000 0.93660  0.99500  0.52703  Biso   1.000  C
  C170     1.0000 0.94720  0.94840  0.48939  Biso   1.000  C
  H125     1.0000 0.91200  0.91310  0.48230  Biso   1.000  H
  C171     1.0000 0.00950  0.95430  0.46260  Biso   1.000  C
  Br9      1.0000 0.00474  0.89409  0.40384  Biso   1.000  Br
  H126     1.0000 0.01500  0.92350  0.43580  Biso   1.000  H
  Zn10     1.0000 0.74231  0.55531  0.60742  Biso   1.000  Zn
  N55      1.0000 0.68984  0.54091  0.66802  Biso   1.000  N
  N56      1.0000 0.66033  0.52474  0.74095  Biso   1.000  N
  N57      1.0000 0.84931  0.70112  0.89704  Biso   1.000  N
  N58      1.0000 0.75871  0.62373  0.88440  Biso   1.000  N
  N59      1.0000 0.52174  0.32008  0.90215  Biso   1.000  N
  N60      1.0000 0.59739  0.41115  0.88670  Biso   1.000  N
  O19      1.0000 0.66480  0.56970  0.55926  Biso   1.000  O
  O20      1.0000 0.65894  0.45127  0.57136  Biso   1.000  O
  C172     1.0000 0.62910  0.46880  0.81460  Biso   1.000  C
  H127     1.0000 0.60200  0.43320  0.79900  Biso   1.000  H
  C173     1.0000 0.66550  0.52360  0.79053  Biso   1.000  C
  C174     1.0000 0.70690  0.57590  0.81288  Biso   1.000  C
  H128     1.0000 0.73060  0.61280  0.79630  Biso   1.000  H
  C175     1.0000 0.71256  0.57260  0.86077  Biso   1.000  C
  C176     1.0000 0.67530  0.51960  0.88565  Biso   1.000  C
  H129     1.0000 0.67810  0.51840  0.91780  Biso   1.000  H
  C177     1.0000 0.63380  0.46830  0.86215  Biso   1.000  C
  C178     1.0000 0.71120  0.55100  0.71087  Biso   1.000  C
  H130     1.0000 0.75510  0.57310  0.71950  Biso   1.000  H
  C179     1.0000 0.62180  0.50680  0.67099  Biso   1.000  C
  H131     1.0000 0.59290  0.49360  0.64580  Biso   1.000  H
  C180     1.0000 0.60410  0.49560  0.71497  Biso   1.000  C
  H132     1.0000 0.56200  0.47270  0.72610  Biso   1.000  H
  C181     1.0000 0.81450  0.66240  0.86605  Biso   1.000  C
  H133     1.0000 0.82680  0.66170  0.83480  Biso   1.000  H
  C182     1.0000 0.81360  0.68620  0.93815  Biso   1.000  C
  H134     1.0000 0.82590  0.70650  0.96670  Biso   1.000  H
  C183     1.0000 0.75890  0.63830  0.93115  Biso   1.000  C
  H135     1.0000 0.72730  0.61890  0.95340  Biso   1.000  H
  C184     1.0000 0.53770  0.37370  0.87262  Biso   1.000  C
  H136     1.0000 0.51130  0.38400  0.84580  Biso   1.000  H
  C185     1.0000 0.57340  0.32430  0.93674  Biso   1.000  C
  H137     1.0000 0.57570  0.29340  0.96230  Biso   1.000  H
  C186     1.0000 0.62000  0.37980  0.92810  Biso   1.000  C
  H138     1.0000 0.65960  0.39440  0.94630  Biso   1.000  H
  C187     1.0000 0.63380  0.50900  0.55424  Biso   1.000  C
  C188     1.0000 0.56340  0.50500  0.52703  Biso   1.000  C
  C189     1.0000 0.55280  0.55160  0.48939  Biso   1.000  C
  H139     1.0000 0.58800  0.58690  0.48230  Biso   1.000  H
  C190     1.0000 0.49050  0.54570  0.46260  Biso   1.000  C
  Br10     1.0000 0.49526  0.60591  0.40384  Biso   1.000  Br
  H140     1.0000 0.48500  0.57650  0.43580  Biso   1.000  H
  Zn11     1.0000 0.55531  0.75769  0.10742  Biso   1.000  Zn
  N61      1.0000 0.54091  0.81016  0.16802  Biso   1.000  N
  N62      1.0000 0.52474  0.83967  0.24095  Biso   1.000  N
  N63      1.0000 0.70112  0.65069  0.39704  Biso   1.000  N
  N64      1.0000 0.62373  0.74129  0.38440  Biso   1.000  N
  N65      1.0000 0.32008  0.97826  0.40215  Biso   1.000  N
  N66      1.0000 0.41115  0.90261  0.38670  Biso   1.000  N
  O21      1.0000 0.56970  0.83520  0.05926  Biso   1.000  O
  O22      1.0000 0.45127  0.84106  0.07136  Biso   1.000  O
  C191     1.0000 0.46880  0.87090  0.31460  Biso   1.000  C
  H141     1.0000 0.43320  0.89800  0.29900  Biso   1.000  H
  C192     1.0000 0.52360  0.83450  0.29053  Biso   1.000  C
  C193     1.0000 0.57590  0.79310  0.31288  Biso   1.000  C
  H142     1.0000 0.61280  0.76940  0.29630  Biso   1.000  H
  C194     1.0000 0.57260  0.78744  0.36077  Biso   1.000  C
  C195     1.0000 0.51960  0.82470  0.38565  Biso   1.000  C
  H143     1.0000 0.51840  0.82190  0.41780  Biso   1.000  H
  C196     1.0000 0.46830  0.86620  0.36215  Biso   1.000  C
  C197     1.0000 0.55100  0.78880  0.21087  Biso   1.000  C
  H144     1.0000 0.57310  0.74490  0.21950  Biso   1.000  H
  C198     1.0000 0.50680  0.87820  0.17099  Biso   1.000  C
  H145     1.0000 0.49360  0.90710  0.14580  Biso   1.000  H
  C199     1.0000 0.49560  0.89590  0.21497  Biso   1.000  C
  H146     1.0000 0.47270  0.93800  0.22610  Biso   1.000  H
  C200     1.0000 0.66240  0.68550  0.36605  Biso   1.000  C
  H147     1.0000 0.66170  0.67320  0.33480  Biso   1.000  H
  C201     1.0000 0.68620  0.68640  0.43815  Biso   1.000  C
  H148     1.0000 0.70650  0.67410  0.46670  Biso   1.000  H
  C202     1.0000 0.63830  0.74110  0.43115  Biso   1.000  C
  H149     1.0000 0.61890  0.77270  0.45340  Biso   1.000  H
  C203     1.0000 0.37370  0.96230  0.37262  Biso   1.000  C
  H150     1.0000 0.38400  0.98870  0.34580  Biso   1.000  H
  C204     1.0000 0.32430  0.92660  0.43674  Biso   1.000  C
  H151     1.0000 0.29340  0.92430  0.46230  Biso   1.000  H
  C205     1.0000 0.37980  0.88000  0.42810  Biso   1.000  C
  H152     1.0000 0.39440  0.84040  0.44630  Biso   1.000  H
  C206     1.0000 0.50900  0.86620  0.05424  Biso   1.000  C
  C207     1.0000 0.50500  0.93660  0.02703  Biso   1.000  C
  C208     1.0000 0.55160  0.94720  0.98939  Biso   1.000  C
  H153     1.0000 0.58690  0.91200  0.98230  Biso   1.000  H
  C209     1.0000 0.54570  0.00950  0.96260  Biso   1.000  C
  Br11     1.0000 0.60591  0.00474  0.90384  Biso   1.000  Br
  H154     1.0000 0.57650  0.01500  0.93580  Biso   1.000  H
  Zn12     1.0000 0.94469  0.74231  0.10742  Biso   1.000  Zn
  N67      1.0000 0.95909  0.68984  0.16802  Biso   1.000  N
  N68      1.0000 0.97526  0.66033  0.24095  Biso   1.000  N
  N69      1.0000 0.79888  0.84931  0.39704  Biso   1.000  N
  N70      1.0000 0.87627  0.75871  0.38440  Biso   1.000  N
  N71      1.0000 0.17992  0.52174  0.40215  Biso   1.000  N
  N72      1.0000 0.08885  0.59739  0.38670  Biso   1.000  N
  O23      1.0000 0.93030  0.66480  0.05926  Biso   1.000  O
  O24      1.0000 0.04873  0.65894  0.07136  Biso   1.000  O
  C210     1.0000 0.03120  0.62910  0.31460  Biso   1.000  C
  H155     1.0000 0.06680  0.60200  0.29900  Biso   1.000  H
  C211     1.0000 0.97640  0.66550  0.29053  Biso   1.000  C
  C212     1.0000 0.92410  0.70690  0.31288  Biso   1.000  C
  H156     1.0000 0.88720  0.73060  0.29630  Biso   1.000  H
  C213     1.0000 0.92740  0.71256  0.36077  Biso   1.000  C
  C214     1.0000 0.98040  0.67530  0.38565  Biso   1.000  C
  H157     1.0000 0.98160  0.67810  0.41780  Biso   1.000  H
  C215     1.0000 0.03170  0.63380  0.36215  Biso   1.000  C
  C216     1.0000 0.94900  0.71120  0.21087  Biso   1.000  C
  H158     1.0000 0.92690  0.75510  0.21950  Biso   1.000  H
  C217     1.0000 0.99320  0.62180  0.17099  Biso   1.000  C
  H159     1.0000 0.00640  0.59290  0.14580  Biso   1.000  H
  C218     1.0000 0.00440  0.60410  0.21497  Biso   1.000  C
  H160     1.0000 0.02730  0.56200  0.22610  Biso   1.000  H
  C219     1.0000 0.83760  0.81450  0.36605  Biso   1.000  C
  H161     1.0000 0.83830  0.82680  0.33480  Biso   1.000  H
  C220     1.0000 0.81380  0.81360  0.43815  Biso   1.000  C
  H162     1.0000 0.79350  0.82590  0.46670  Biso   1.000  H
  C221     1.0000 0.86170  0.75890  0.43115  Biso   1.000  C
  H163     1.0000 0.88110  0.72730  0.45340  Biso   1.000  H
  C222     1.0000 0.12630  0.53770  0.37262  Biso   1.000  C
  H164     1.0000 0.11600  0.51130  0.34580  Biso   1.000  H
  C223     1.0000 0.17570  0.57340  0.43674  Biso   1.000  C
  H165     1.0000 0.20660  0.57570  0.46230  Biso   1.000  H
  C224     1.0000 0.12020  0.62000  0.42810  Biso   1.000  C
  H166     1.0000 0.10560  0.65960  0.44630  Biso   1.000  H
  C225     1.0000 0.99100  0.63380  0.05424  Biso   1.000  C
  C226     1.0000 0.99500  0.56340  0.02703  Biso   1.000  C
  C227     1.0000 0.94840  0.55280  0.98939  Biso   1.000  C
  H167     1.0000 0.91310  0.58800  0.98230  Biso   1.000  H
  C228     1.0000 0.95430  0.49050  0.96260  Biso   1.000  C
  Br12     1.0000 0.89409  0.49526  0.90384  Biso   1.000  Br
  H168     1.0000 0.92350  0.48500  0.93580  Biso   1.000  H
  Zn13     1.0000 0.74231  0.94469  0.39258  Biso   1.000  Zn
  N73      1.0000 0.68984  0.95909  0.33198  Biso   1.000  N
  N74      1.0000 0.66033  0.97526  0.25905  Biso   1.000  N
  N75      1.0000 0.84931  0.79888  0.10296  Biso   1.000  N
  N76      1.0000 0.75871  0.87627  0.11560  Biso   1.000  N
  N77      1.0000 0.52174  0.17992  0.09785  Biso   1.000  N
  N78      1.0000 0.59739  0.08885  0.11330  Biso   1.000  N
  O25      1.0000 0.66480  0.93030  0.44074  Biso   1.000  O
  O26      1.0000 0.65894  0.04873  0.42864  Biso   1.000  O
  C229     1.0000 0.62910  0.03120  0.18540  Biso   1.000  C
  H169     1.0000 0.60200  0.06680  0.20100  Biso   1.000  H
  C230     1.0000 0.66550  0.97640  0.20947  Biso   1.000  C
  C231     1.0000 0.70690  0.92410  0.18712  Biso   1.000  C
  H170     1.0000 0.73060  0.88720  0.20370  Biso   1.000  H
  C232     1.0000 0.71256  0.92740  0.13923  Biso   1.000  C
  C233     1.0000 0.67530  0.98040  0.11435  Biso   1.000  C
  H171     1.0000 0.67810  0.98160  0.08220  Biso   1.000  H
  C234     1.0000 0.63380  0.03170  0.13785  Biso   1.000  C
  C235     1.0000 0.71120  0.94900  0.28913  Biso   1.000  C
  H172     1.0000 0.75510  0.92690  0.28050  Biso   1.000  H
  C236     1.0000 0.62180  0.99320  0.32901  Biso   1.000  C
  H173     1.0000 0.59290  0.00640  0.35420  Biso   1.000  H
  C237     1.0000 0.60410  0.00440  0.28503  Biso   1.000  C
  H174     1.0000 0.56200  0.02730  0.27390  Biso   1.000  H
  C238     1.0000 0.81450  0.83760  0.13395  Biso   1.000  C
  H175     1.0000 0.82680  0.83830  0.16520  Biso   1.000  H
  C239     1.0000 0.81360  0.81380  0.06185  Biso   1.000  C
  H176     1.0000 0.82590  0.79350  0.03330  Biso   1.000  H
  C240     1.0000 0.75890  0.86170  0.06885  Biso   1.000  C
  H177     1.0000 0.72730  0.88110  0.04660  Biso   1.000  H
  C241     1.0000 0.53770  0.12630  0.12738  Biso   1.000  C
  H178     1.0000 0.51130  0.11600  0.15420  Biso   1.000  H
  C242     1.0000 0.57340  0.17570  0.06326  Biso   1.000  C
  H179     1.0000 0.57570  0.20660  0.03770  Biso   1.000  H
  C243     1.0000 0.62000  0.12020  0.07190  Biso   1.000  C
  H180     1.0000 0.65960  0.10560  0.05370  Biso   1.000  H
  C244     1.0000 0.63380  0.99100  0.44576  Biso   1.000  C
  C245     1.0000 0.56340  0.99500  0.47297  Biso   1.000  C
  C246     1.0000 0.55280  0.94840  0.51061  Biso   1.000  C
  H181     1.0000 0.58800  0.91310  0.51770  Biso   1.000  H
  C247     1.0000 0.49050  0.95430  0.53740  Biso   1.000  C
  Br13     1.0000 0.49526  0.89409  0.59616  Biso   1.000  Br
  H182     1.0000 0.48500  0.92350  0.56420  Biso   1.000  H
  Zn14     1.0000 0.75769  0.55531  0.39258  Biso   1.000  Zn
  N79      1.0000 0.81016  0.54091  0.33198  Biso   1.000  N
  N80      1.0000 0.83967  0.52474  0.25905  Biso   1.000  N
  N81      1.0000 0.65069  0.70112  0.10296  Biso   1.000  N
  N82      1.0000 0.74129  0.62373  0.11560  Biso   1.000  N
  N83      1.0000 0.97826  0.32008  0.09785  Biso   1.000  N
  N84      1.0000 0.90261  0.41115  0.11330  Biso   1.000  N
  O27      1.0000 0.83520  0.56970  0.44074  Biso   1.000  O
  O28      1.0000 0.84106  0.45127  0.42864  Biso   1.000  O
  C248     1.0000 0.87090  0.46880  0.18540  Biso   1.000  C
  H183     1.0000 0.89800  0.43320  0.20100  Biso   1.000  H
  C249     1.0000 0.83450  0.52360  0.20947  Biso   1.000  C
  C250     1.0000 0.79310  0.57590  0.18712  Biso   1.000  C
  H184     1.0000 0.76940  0.61280  0.20370  Biso   1.000  H
  C251     1.0000 0.78744  0.57260  0.13923  Biso   1.000  C
  C252     1.0000 0.82470  0.51960  0.11435  Biso   1.000  C
  H185     1.0000 0.82190  0.51840  0.08220  Biso   1.000  H
  C253     1.0000 0.86620  0.46830  0.13785  Biso   1.000  C
  C254     1.0000 0.78880  0.55100  0.28913  Biso   1.000  C
  H186     1.0000 0.74490  0.57310  0.28050  Biso   1.000  H
  C255     1.0000 0.87820  0.50680  0.32901  Biso   1.000  C
  H187     1.0000 0.90710  0.49360  0.35420  Biso   1.000  H
  C256     1.0000 0.89590  0.49560  0.28503  Biso   1.000  C
  H188     1.0000 0.93800  0.47270  0.27390  Biso   1.000  H
  C257     1.0000 0.68550  0.66240  0.13395  Biso   1.000  C
  H189     1.0000 0.67320  0.66170  0.16520  Biso   1.000  H
  C258     1.0000 0.68640  0.68620  0.06185  Biso   1.000  C
  H190     1.0000 0.67410  0.70650  0.03330  Biso   1.000  H
  C259     1.0000 0.74110  0.63830  0.06885  Biso   1.000  C
  H191     1.0000 0.77270  0.61890  0.04660  Biso   1.000  H
  C260     1.0000 0.96230  0.37370  0.12738  Biso   1.000  C
  H192     1.0000 0.98870  0.38400  0.15420  Biso   1.000  H
  C261     1.0000 0.92660  0.32430  0.06326  Biso   1.000  C
  H193     1.0000 0.92430  0.29340  0.03770  Biso   1.000  H
  C262     1.0000 0.88000  0.37980  0.07190  Biso   1.000  C
  H194     1.0000 0.84040  0.39440  0.05370  Biso   1.000  H
  C263     1.0000 0.86620  0.50900  0.44576  Biso   1.000  C
  C264     1.0000 0.93660  0.50500  0.47297  Biso   1.000  C
  C265     1.0000 0.94720  0.55160  0.51061  Biso   1.000  C
  H195     1.0000 0.91200  0.58690  0.51770  Biso   1.000  H
  C266     1.0000 0.00950  0.54570  0.53740  Biso   1.000  C
  Br14     1.0000 0.00474  0.60591  0.59616  Biso   1.000  Br
  H196     1.0000 0.01500  0.57650  0.56420  Biso   1.000  H
  Zn15     1.0000 0.94469  0.75769  0.89258  Biso   1.000  Zn
  N85      1.0000 0.95909  0.81016  0.83198  Biso   1.000  N
  N86      1.0000 0.97526  0.83967  0.75905  Biso   1.000  N
  N87      1.0000 0.79888  0.65069  0.60296  Biso   1.000  N
  N88      1.0000 0.87627  0.74129  0.61560  Biso   1.000  N
  N89      1.0000 0.17992  0.97826  0.59785  Biso   1.000  N
  N90      1.0000 0.08885  0.90261  0.61330  Biso   1.000  N
  O29      1.0000 0.93030  0.83520  0.94074  Biso   1.000  O
  O30      1.0000 0.04873  0.84106  0.92864  Biso   1.000  O
  C267     1.0000 0.03120  0.87090  0.68540  Biso   1.000  C
  H197     1.0000 0.06680  0.89800  0.70100  Biso   1.000  H
  C268     1.0000 0.97640  0.83450  0.70947  Biso   1.000  C
  C269     1.0000 0.92410  0.79310  0.68712  Biso   1.000  C
  H198     1.0000 0.88720  0.76940  0.70370  Biso   1.000  H
  C270     1.0000 0.92740  0.78744  0.63923  Biso   1.000  C
  C271     1.0000 0.98040  0.82470  0.61435  Biso   1.000  C
  H199     1.0000 0.98160  0.82190  0.58220  Biso   1.000  H
  C272     1.0000 0.03170  0.86620  0.63785  Biso   1.000  C
  C273     1.0000 0.94900  0.78880  0.78913  Biso   1.000  C
  H200     1.0000 0.92690  0.74490  0.78050  Biso   1.000  H
  C274     1.0000 0.99320  0.87820  0.82901  Biso   1.000  C
  H201     1.0000 0.00640  0.90710  0.85420  Biso   1.000  H
  C275     1.0000 0.00440  0.89590  0.78503  Biso   1.000  C
  H202     1.0000 0.02730  0.93800  0.77390  Biso   1.000  H
  C276     1.0000 0.83760  0.68550  0.63395  Biso   1.000  C
  H203     1.0000 0.83830  0.67320  0.66520  Biso   1.000  H
  C277     1.0000 0.81380  0.68640  0.56185  Biso   1.000  C
  H204     1.0000 0.79350  0.67410  0.53330  Biso   1.000  H
  C278     1.0000 0.86170  0.74110  0.56885  Biso   1.000  C
  H205     1.0000 0.88110  0.77270  0.54660  Biso   1.000  H
  C279     1.0000 0.12630  0.96230  0.62738  Biso   1.000  C
  H206     1.0000 0.11600  0.98870  0.65420  Biso   1.000  H
  C280     1.0000 0.17570  0.92660  0.56326  Biso   1.000  C
  H207     1.0000 0.20660  0.92430  0.53770  Biso   1.000  H
  C281     1.0000 0.12020  0.88000  0.57190  Biso   1.000  C
  H208     1.0000 0.10560  0.84040  0.55370  Biso   1.000  H
  C282     1.0000 0.99100  0.86620  0.94576  Biso   1.000  C
  C283     1.0000 0.99500  0.93660  0.97297  Biso   1.000  C
  C284     1.0000 0.94840  0.94720  0.01061  Biso   1.000  C
  H209     1.0000 0.91310  0.91200  0.01770  Biso   1.000  H
  C285     1.0000 0.95430  0.00950  0.03740  Biso   1.000  C
  Br15     1.0000 0.89409  0.00474  0.09616  Biso   1.000  Br
  H210     1.0000 0.92350  0.01500  0.06420  Biso   1.000  H
  Zn16     1.0000 0.55531  0.74231  0.89258  Biso   1.000  Zn
  N91      1.0000 0.54091  0.68984  0.83198  Biso   1.000  N
  N92      1.0000 0.52474  0.66033  0.75905  Biso   1.000  N
  N93      1.0000 0.70112  0.84931  0.60296  Biso   1.000  N
  N94      1.0000 0.62373  0.75871  0.61560  Biso   1.000  N
  N95      1.0000 0.32008  0.52174  0.59785  Biso   1.000  N
  N96      1.0000 0.41115  0.59739  0.61330  Biso   1.000  N
  O31      1.0000 0.56970  0.66480  0.94074  Biso   1.000  O
  O32      1.0000 0.45127  0.65894  0.92864  Biso   1.000  O
  C286     1.0000 0.46880  0.62910  0.68540  Biso   1.000  C
  H211     1.0000 0.43320  0.60200  0.70100  Biso   1.000  H
  C287     1.0000 0.52360  0.66550  0.70947  Biso   1.000  C
  C288     1.0000 0.57590  0.70690  0.68712  Biso   1.000  C
  H212     1.0000 0.61280  0.73060  0.70370  Biso   1.000  H
  C289     1.0000 0.57260  0.71256  0.63923  Biso   1.000  C
  C290     1.0000 0.51960  0.67530  0.61435  Biso   1.000  C
  H213     1.0000 0.51840  0.67810  0.58220  Biso   1.000  H
  C291     1.0000 0.46830  0.63380  0.63785  Biso   1.000  C
  C292     1.0000 0.55100  0.71120  0.78913  Biso   1.000  C
  H214     1.0000 0.57310  0.75510  0.78050  Biso   1.000  H
  C293     1.0000 0.50680  0.62180  0.82901  Biso   1.000  C
  H215     1.0000 0.49360  0.59290  0.85420  Biso   1.000  H
  C294     1.0000 0.49560  0.60410  0.78503  Biso   1.000  C
  H216     1.0000 0.47270  0.56200  0.77390  Biso   1.000  H
  C295     1.0000 0.66240  0.81450  0.63395  Biso   1.000  C
  H217     1.0000 0.66170  0.82680  0.66520  Biso   1.000  H
  C296     1.0000 0.68620  0.81360  0.56185  Biso   1.000  C
  H218     1.0000 0.70650  0.82590  0.53330  Biso   1.000  H
  C297     1.0000 0.63830  0.75890  0.56885  Biso   1.000  C
  H219     1.0000 0.61890  0.72730  0.54660  Biso   1.000  H
  C298     1.0000 0.37370  0.53770  0.62738  Biso   1.000  C
  H220     1.0000 0.38400  0.51130  0.65420  Biso   1.000  H
  C299     1.0000 0.32430  0.57340  0.56326  Biso   1.000  C
  H221     1.0000 0.29340  0.57570  0.53770  Biso   1.000  H
  C300     1.0000 0.37980  0.62000  0.57190  Biso   1.000  C
  H222     1.0000 0.39440  0.65960  0.55370  Biso   1.000  H
  C301     1.0000 0.50900  0.63380  0.94576  Biso   1.000  C
  C302     1.0000 0.50500  0.56340  0.97297  Biso   1.000  C
  C303     1.0000 0.55160  0.55280  0.01061  Biso   1.000  C
  H223     1.0000 0.58690  0.58800  0.01770  Biso   1.000  H
  C304     1.0000 0.54570  0.49050  0.03740  Biso   1.000  C
  Br16     1.0000 0.60591  0.49526  0.09616  Biso   1.000  Br
  H224     1.0000 0.57650  0.48500  0.06420  Biso   1.000  H
