data_image0
_cell_length_a       23.714
_cell_length_b       23.714
_cell_length_c       16.575
_cell_angle_alpha    90
_cell_angle_beta     90
_cell_angle_gamma    90

_symmetry_space_group_name_H-M    "P 1"
_symmetry_int_tables_number       1

loop_
  _symmetry_equiv_pos_as_xyz
  'x, y, z'

loop_
  _atom_site_label
  _atom_site_occupancy
  _atom_site_fract_x
  _atom_site_fract_y
  _atom_site_fract_z
  _atom_site_thermal_displace_type
  _atom_site_B_iso_or_equiv
  _atom_site_type_symbol
  Ce1      1.0000 0.37054  0.64558  0.08940  Biso   1.000  Ce
  O1       1.0000 0.33690  0.55710  0.02890  Biso   1.000  O
  O2       1.0000 0.31790  0.63670  0.96440  Biso   1.000  O
  O3       1.0000 0.20270  0.62820  0.71130  Biso   1.000  O
  O4       1.0000 0.19090  0.54690  0.64990  Biso   1.000  O
  O5       1.0000 0.15990  0.40300  0.86060  Biso   1.000  O
  O6       1.0000 0.35210  0.39360  0.83990  Biso   1.000  O
  O7       1.0000 0.28160  0.63640  0.14630  Biso   1.000  O
  O8       1.0000 0.39940  0.57850  0.18110  Biso   1.000  O
  O9       1.0000 0.44350  0.62010  0.00320  Biso   1.000  O
  O10      1.0000 0.36830  0.73350  0.03460  Biso   1.000  O
  C1       1.0000 0.31580  0.58260  0.96970  Biso   1.000  C
  C2       1.0000 0.28640  0.54970  0.90440  Biso   1.000  C
  C3       1.0000 0.26290  0.57710  0.84080  Biso   1.000  C
  H1       1.0000 0.26450  0.61710  0.83800  Biso   1.000  H
  C4       1.0000 0.20810  0.57520  0.71030  Biso   1.000  C
  C5       1.0000 0.23600  0.54610  0.77840  Biso   1.000  C
  C6       1.0000 0.23370  0.48920  0.78310  Biso   1.000  C
  H2       1.0000 0.21460  0.46850  0.74230  Biso   1.000  H
  C7       1.0000 0.25950  0.46000  0.84840  Biso   1.000  C
  C8       1.0000 0.28550  0.49020  0.90940  Biso   1.000  C
  H3       1.0000 0.30230  0.47130  0.95380  Biso   1.000  H
  C9       1.0000 0.20200  0.37310  0.85680  Biso   1.000  C
  C10      1.0000 0.20130  0.31060  0.85700  Biso   1.000  C
  C11      1.0000 0.25130  0.28010  0.85670  Biso   1.000  C
  C12      1.0000 0.30370  0.30720  0.85540  Biso   1.000  C
  C13      1.0000 0.30850  0.36950  0.85040  Biso   1.000  C
  C14      1.0000 0.35340  0.27520  0.85630  Biso   1.000  C
  H4       1.0000 0.38900  0.29370  0.85540  Biso   1.000  H
  C15      1.0000 0.35100  0.21460  0.85860  Biso   1.000  C
  H5       1.0000 0.38440  0.19270  0.86110  Biso   1.000  H
  C16      1.0000 0.49380  0.61190  0.97990  Biso   1.000  C
  C17      1.0000 0.54470  0.65010  0.00440  Biso   1.000  C
  H6       1.0000 0.56680  0.63120  0.04640  Biso   1.000  H
  H7       1.0000 0.53060  0.68620  0.02500  Biso   1.000  H
  H8       1.0000 0.56860  0.65690  0.95710  Biso   1.000  H
  C18      1.0000 0.56350  0.55690  0.90570  Biso   1.000  C
  H9       1.0000 0.59160  0.57960  0.93470  Biso   1.000  H
  H10      1.0000 0.56440  0.56660  0.84820  Biso   1.000  H
  H11      1.0000 0.57220  0.51680  0.91240  Biso   1.000  H
  C19      1.0000 0.45620  0.53420  0.90480  Biso   1.000  C
  H12      1.0000 0.43540  0.51710  0.94980  Biso   1.000  H
  H13      1.0000 0.47010  0.50440  0.86900  Biso   1.000  H
  H14      1.0000 0.43100  0.55930  0.87460  Biso   1.000  H
  C20      1.0000 0.42070  0.55190  0.23640  Biso   1.000  C
  C21      1.0000 0.48710  0.57300  0.26110  Biso   1.000  C
  H15      1.0000 0.48550  0.59820  0.30780  Biso   1.000  H
  H16      1.0000 0.50400  0.59290  0.21530  Biso   1.000  H
  H17      1.0000 0.51010  0.53990  0.27440  Biso   1.000  H
  C22      1.0000 0.43680  0.48050  0.33850  Biso   1.000  C
  H18      1.0000 0.46330  0.45470  0.31220  Biso   1.000  H
  H19      1.0000 0.40980  0.45890  0.37070  Biso   1.000  H
  H20      1.0000 0.45770  0.50630  0.37380  Biso   1.000  H
  C23      1.0000 0.34710  0.49230  0.24100  Biso   1.000  C
  H21      1.0000 0.31630  0.51480  0.26370  Biso   1.000  H
  H22      1.0000 0.34240  0.45280  0.25690  Biso   1.000  H
  H23      1.0000 0.34650  0.49530  0.18210  Biso   1.000  H
  C24      1.0000 0.23730  0.61120  0.17900  Biso   1.000  C
  C25      1.0000 0.21900  0.55320  0.13920  Biso   1.000  C
  H24      1.0000 0.20470  0.52780  0.18110  Biso   1.000  H
  H25      1.0000 0.25160  0.53590  0.11250  Biso   1.000  H
  H26      1.0000 0.18920  0.56010  0.09930  Biso   1.000  H
  C26      1.0000 0.16610  0.60590  0.28670  Biso   1.000  C
  H27      1.0000 0.17410  0.56720  0.30440  Biso   1.000  H
  H28      1.0000 0.13320  0.60570  0.25080  Biso   1.000  H
  H29      1.0000 0.15810  0.62950  0.33380  Biso   1.000  H
  C27      1.0000 0.22540  0.68420  0.26440  Biso   1.000  C
  H30      1.0000 0.19130  0.70010  0.28880  Biso   1.000  H
  H31      1.0000 0.23540  0.70590  0.21620  Biso   1.000  H
  H32      1.0000 0.25640  0.68580  0.30330  Biso   1.000  H
  C28      1.0000 0.35880  0.77620  0.99690  Biso   1.000  C
  C29      1.0000 0.29970  0.80740  0.98440  Biso   1.000  C
  H33      1.0000 0.29040  0.80820  0.92680  Biso   1.000  H
  H34      1.0000 0.30220  0.84600  0.00500  Biso   1.000  H
  H35      1.0000 0.27020  0.78690  0.01380  Biso   1.000  H
  C30      1.0000 0.38300  0.84100  0.89140  Biso   1.000  C
  H36      1.0000 0.41720  0.86380  0.88520  Biso   1.000  H
  H37      1.0000 0.35230  0.86470  0.91200  Biso   1.000  H
  H38      1.0000 0.37210  0.82530  0.83890  Biso   1.000  H
  C31      1.0000 0.45260  0.77060  0.95130  Biso   1.000  C
  H39      1.0000 0.45550  0.74620  0.99890  Biso   1.000  H
  H40      1.0000 0.48050  0.80090  0.95530  Biso   1.000  H
  H41      1.0000 0.45980  0.74830  0.90260  Biso   1.000  H
  N1       1.0000 0.25700  0.39870  0.85350  Biso   1.000  N
  N2       1.0000 0.21550  0.62870  0.24300  Biso   1.000  N
  N3       1.0000 0.40490  0.51480  0.27370  Biso   1.000  N
  N4       1.0000 0.50690  0.56870  0.93840  Biso   1.000  N
  N5       1.0000 0.39360  0.79580  0.94710  Biso   1.000  N
  Ce2      1.0000 0.12946  0.85442  0.08940  Biso   1.000  Ce
  O11      1.0000 0.16310  0.94290  0.02890  Biso   1.000  O
  O12      1.0000 0.18210  0.86330  0.96440  Biso   1.000  O
  O13      1.0000 0.29730  0.87180  0.71130  Biso   1.000  O
  O14      1.0000 0.30910  0.95310  0.64990  Biso   1.000  O
  O15      1.0000 0.34010  0.09700  0.86060  Biso   1.000  O
  O16      1.0000 0.14790  0.10640  0.83990  Biso   1.000  O
  O17      1.0000 0.21840  0.86360  0.14630  Biso   1.000  O
  O18      1.0000 0.10060  0.92150  0.18110  Biso   1.000  O
  O19      1.0000 0.05650  0.87990  0.00320  Biso   1.000  O
  O20      1.0000 0.13170  0.76650  0.03460  Biso   1.000  O
  C32      1.0000 0.18420  0.91740  0.96970  Biso   1.000  C
  C33      1.0000 0.21360  0.95030  0.90440  Biso   1.000  C
  C34      1.0000 0.23710  0.92290  0.84080  Biso   1.000  C
  H42      1.0000 0.23550  0.88290  0.83800  Biso   1.000  H
  C35      1.0000 0.29190  0.92480  0.71030  Biso   1.000  C
  C36      1.0000 0.26400  0.95390  0.77840  Biso   1.000  C
  C37      1.0000 0.26630  0.01080  0.78310  Biso   1.000  C
  H43      1.0000 0.28540  0.03150  0.74230  Biso   1.000  H
  C38      1.0000 0.24050  0.04000  0.84840  Biso   1.000  C
  C39      1.0000 0.21450  0.00980  0.90940  Biso   1.000  C
  H44      1.0000 0.19770  0.02870  0.95380  Biso   1.000  H
  C40      1.0000 0.29800  0.12690  0.85680  Biso   1.000  C
  C41      1.0000 0.29870  0.18940  0.85700  Biso   1.000  C
  C42      1.0000 0.24870  0.21990  0.85670  Biso   1.000  C
  C43      1.0000 0.19630  0.19280  0.85540  Biso   1.000  C
  C44      1.0000 0.19150  0.13050  0.85040  Biso   1.000  C
  C45      1.0000 0.14660  0.22480  0.85630  Biso   1.000  C
  H45      1.0000 0.11100  0.20630  0.85540  Biso   1.000  H
  C46      1.0000 0.14900  0.28540  0.85860  Biso   1.000  C
  H46      1.0000 0.11560  0.30730  0.86110  Biso   1.000  H
  C47      1.0000 0.00620  0.88810  0.97990  Biso   1.000  C
  C48      1.0000 0.95530  0.84990  0.00440  Biso   1.000  C
  H47      1.0000 0.93320  0.86880  0.04640  Biso   1.000  H
  H48      1.0000 0.96940  0.81380  0.02500  Biso   1.000  H
  H49      1.0000 0.93140  0.84310  0.95710  Biso   1.000  H
  C49      1.0000 0.93650  0.94310  0.90570  Biso   1.000  C
  H50      1.0000 0.90840  0.92040  0.93470  Biso   1.000  H
  H51      1.0000 0.93560  0.93340  0.84820  Biso   1.000  H
  H52      1.0000 0.92780  0.98320  0.91240  Biso   1.000  H
  C50      1.0000 0.04380  0.96580  0.90480  Biso   1.000  C
  H53      1.0000 0.06460  0.98290  0.94980  Biso   1.000  H
  H54      1.0000 0.02990  0.99560  0.86900  Biso   1.000  H
  H55      1.0000 0.06900  0.94070  0.87460  Biso   1.000  H
  C51      1.0000 0.07930  0.94810  0.23640  Biso   1.000  C
  C52      1.0000 0.01290  0.92700  0.26110  Biso   1.000  C
  H56      1.0000 0.01450  0.90180  0.30780  Biso   1.000  H
  H57      1.0000 0.99600  0.90710  0.21530  Biso   1.000  H
  H58      1.0000 0.98990  0.96010  0.27440  Biso   1.000  H
  C53      1.0000 0.06320  0.01950  0.33850  Biso   1.000  C
  H59      1.0000 0.03670  0.04530  0.31220  Biso   1.000  H
  H60      1.0000 0.09020  0.04110  0.37070  Biso   1.000  H
  H61      1.0000 0.04230  0.99370  0.37380  Biso   1.000  H
  C54      1.0000 0.15290  0.00770  0.24100  Biso   1.000  C
  H62      1.0000 0.18370  0.98520  0.26370  Biso   1.000  H
  H63      1.0000 0.15760  0.04720  0.25690  Biso   1.000  H
  H64      1.0000 0.15350  0.00470  0.18210  Biso   1.000  H
  C55      1.0000 0.26270  0.88880  0.17900  Biso   1.000  C
  C56      1.0000 0.28100  0.94680  0.13920  Biso   1.000  C
  H65      1.0000 0.29530  0.97220  0.18110  Biso   1.000  H
  H66      1.0000 0.24840  0.96410  0.11250  Biso   1.000  H
  H67      1.0000 0.31080  0.93990  0.09930  Biso   1.000  H
  C57      1.0000 0.33390  0.89410  0.28670  Biso   1.000  C
  H68      1.0000 0.32590  0.93280  0.30440  Biso   1.000  H
  H69      1.0000 0.36680  0.89430  0.25080  Biso   1.000  H
  H70      1.0000 0.34190  0.87050  0.33380  Biso   1.000  H
  C58      1.0000 0.27460  0.81580  0.26440  Biso   1.000  C
  H71      1.0000 0.30870  0.79990  0.28880  Biso   1.000  H
  H72      1.0000 0.26460  0.79410  0.21620  Biso   1.000  H
  H73      1.0000 0.24360  0.81420  0.30330  Biso   1.000  H
  C59      1.0000 0.14120  0.72380  0.99690  Biso   1.000  C
  C60      1.0000 0.20030  0.69260  0.98440  Biso   1.000  C
  H74      1.0000 0.20960  0.69180  0.92680  Biso   1.000  H
  H75      1.0000 0.19780  0.65400  0.00500  Biso   1.000  H
  H76      1.0000 0.22980  0.71310  0.01380  Biso   1.000  H
  C61      1.0000 0.11700  0.65900  0.89140  Biso   1.000  C
  H77      1.0000 0.08280  0.63620  0.88520  Biso   1.000  H
  H78      1.0000 0.14770  0.63530  0.91200  Biso   1.000  H
  H79      1.0000 0.12790  0.67470  0.83890  Biso   1.000  H
  C62      1.0000 0.04740  0.72940  0.95130  Biso   1.000  C
  H80      1.0000 0.04450  0.75380  0.99890  Biso   1.000  H
  H81      1.0000 0.01950  0.69910  0.95530  Biso   1.000  H
  H82      1.0000 0.04020  0.75170  0.90260  Biso   1.000  H
  N6       1.0000 0.24300  0.10130  0.85350  Biso   1.000  N
  N7       1.0000 0.28450  0.87130  0.24300  Biso   1.000  N
  N8       1.0000 0.09510  0.98520  0.27370  Biso   1.000  N
  N9       1.0000 0.99310  0.93130  0.93840  Biso   1.000  N
  N10      1.0000 0.10640  0.70420  0.94710  Biso   1.000  N
  Ce3      1.0000 0.35442  0.87054  0.58940  Biso   1.000  Ce
  O21      1.0000 0.44290  0.83690  0.52890  Biso   1.000  O
  O22      1.0000 0.36330  0.81790  0.46440  Biso   1.000  O
  O23      1.0000 0.37180  0.70270  0.21130  Biso   1.000  O
  O24      1.0000 0.45310  0.69090  0.14990  Biso   1.000  O
  O25      1.0000 0.59700  0.65990  0.36060  Biso   1.000  O
  O26      1.0000 0.60640  0.85210  0.33990  Biso   1.000  O
  O27      1.0000 0.36360  0.78160  0.64630  Biso   1.000  O
  O28      1.0000 0.42150  0.89940  0.68110  Biso   1.000  O
  O29      1.0000 0.37990  0.94350  0.50320  Biso   1.000  O
  O30      1.0000 0.26650  0.86830  0.53460  Biso   1.000  O
  C63      1.0000 0.41740  0.81580  0.46970  Biso   1.000  C
  C64      1.0000 0.45030  0.78640  0.40440  Biso   1.000  C
  C65      1.0000 0.42290  0.76290  0.34080  Biso   1.000  C
  H83      1.0000 0.38290  0.76450  0.33800  Biso   1.000  H
  C66      1.0000 0.42480  0.70810  0.21030  Biso   1.000  C
  C67      1.0000 0.45390  0.73600  0.27840  Biso   1.000  C
  C68      1.0000 0.51080  0.73370  0.28310  Biso   1.000  C
  H84      1.0000 0.53150  0.71460  0.24230  Biso   1.000  H
  C69      1.0000 0.54000  0.75950  0.34840  Biso   1.000  C
  C70      1.0000 0.50980  0.78550  0.40940  Biso   1.000  C
  H85      1.0000 0.52870  0.80230  0.45380  Biso   1.000  H
  C71      1.0000 0.62690  0.70200  0.35680  Biso   1.000  C
  C72      1.0000 0.68940  0.70130  0.35700  Biso   1.000  C
  C73      1.0000 0.71990  0.75130  0.35670  Biso   1.000  C
  C74      1.0000 0.69280  0.80370  0.35540  Biso   1.000  C
  C75      1.0000 0.63050  0.80850  0.35040  Biso   1.000  C
  C76      1.0000 0.72480  0.85340  0.35630  Biso   1.000  C
  H86      1.0000 0.70630  0.88900  0.35540  Biso   1.000  H
  C77      1.0000 0.78540  0.85100  0.35860  Biso   1.000  C
  H87      1.0000 0.80730  0.88440  0.36110  Biso   1.000  H
  C78      1.0000 0.38810  0.99380  0.47990  Biso   1.000  C
  C79      1.0000 0.34990  0.04470  0.50440  Biso   1.000  C
  H88      1.0000 0.36880  0.06680  0.54640  Biso   1.000  H
  H89      1.0000 0.31380  0.03060  0.52500  Biso   1.000  H
  H90      1.0000 0.34310  0.06860  0.45710  Biso   1.000  H
  C80      1.0000 0.44310  0.06350  0.40570  Biso   1.000  C
  H91      1.0000 0.42040  0.09160  0.43470  Biso   1.000  H
  H92      1.0000 0.43340  0.06440  0.34820  Biso   1.000  H
  H93      1.0000 0.48320  0.07220  0.41240  Biso   1.000  H
  C81      1.0000 0.46580  0.95620  0.40480  Biso   1.000  C
  H94      1.0000 0.48290  0.93540  0.44980  Biso   1.000  H
  H95      1.0000 0.49560  0.97010  0.36900  Biso   1.000  H
  H96      1.0000 0.44070  0.93100  0.37460  Biso   1.000  H
  C82      1.0000 0.44810  0.92070  0.73640  Biso   1.000  C
  C83      1.0000 0.42700  0.98710  0.76110  Biso   1.000  C
  H97      1.0000 0.40180  0.98550  0.80780  Biso   1.000  H
  H98      1.0000 0.40710  0.00400  0.71530  Biso   1.000  H
  H99      1.0000 0.46010  0.01010  0.77440  Biso   1.000  H
  C84      1.0000 0.51950  0.93680  0.83850  Biso   1.000  C
  H100     1.0000 0.54530  0.96330  0.81220  Biso   1.000  H
  H101     1.0000 0.54110  0.90980  0.87070  Biso   1.000  H
  H102     1.0000 0.49370  0.95770  0.87380  Biso   1.000  H
  C85      1.0000 0.50770  0.84710  0.74100  Biso   1.000  C
  H103     1.0000 0.48520  0.81630  0.76370  Biso   1.000  H
  H104     1.0000 0.54720  0.84240  0.75690  Biso   1.000  H
  H105     1.0000 0.50470  0.84650  0.68210  Biso   1.000  H
  C86      1.0000 0.38880  0.73730  0.67900  Biso   1.000  C
  C87      1.0000 0.44680  0.71900  0.63920  Biso   1.000  C
  H106     1.0000 0.47220  0.70470  0.68110  Biso   1.000  H
  H107     1.0000 0.46410  0.75160  0.61250  Biso   1.000  H
  H108     1.0000 0.43990  0.68920  0.59930  Biso   1.000  H
  C88      1.0000 0.39410  0.66610  0.78670  Biso   1.000  C
  H109     1.0000 0.43280  0.67410  0.80440  Biso   1.000  H
  H110     1.0000 0.39430  0.63320  0.75080  Biso   1.000  H
  H111     1.0000 0.37050  0.65810  0.83380  Biso   1.000  H
  C89      1.0000 0.31580  0.72540  0.76440  Biso   1.000  C
  H112     1.0000 0.29990  0.69130  0.78880  Biso   1.000  H
  H113     1.0000 0.29410  0.73540  0.71620  Biso   1.000  H
  H114     1.0000 0.31420  0.75640  0.80330  Biso   1.000  H
  C90      1.0000 0.22380  0.85880  0.49690  Biso   1.000  C
  C91      1.0000 0.19260  0.79970  0.48440  Biso   1.000  C
  H115     1.0000 0.19180  0.79040  0.42680  Biso   1.000  H
  H116     1.0000 0.15400  0.80220  0.50500  Biso   1.000  H
  H117     1.0000 0.21310  0.77020  0.51380  Biso   1.000  H
  C92      1.0000 0.15900  0.88300  0.39140  Biso   1.000  C
  H118     1.0000 0.13620  0.91720  0.38520  Biso   1.000  H
  H119     1.0000 0.13530  0.85230  0.41200  Biso   1.000  H
  H120     1.0000 0.17470  0.87210  0.33890  Biso   1.000  H
  C93      1.0000 0.22940  0.95260  0.45130  Biso   1.000  C
  H121     1.0000 0.25380  0.95550  0.49890  Biso   1.000  H
  H122     1.0000 0.19910  0.98050  0.45530  Biso   1.000  H
  H123     1.0000 0.25170  0.95980  0.40260  Biso   1.000  H
  N11      1.0000 0.60130  0.75700  0.35350  Biso   1.000  N
  N12      1.0000 0.37130  0.71550  0.74300  Biso   1.000  N
  N13      1.0000 0.48520  0.90490  0.77370  Biso   1.000  N
  N14      1.0000 0.43130  0.00690  0.43840  Biso   1.000  N
  N15      1.0000 0.20420  0.89360  0.44710  Biso   1.000  N
  Ce4      1.0000 0.14558  0.62946  0.58940  Biso   1.000  Ce
  O31      1.0000 0.05710  0.66310  0.52890  Biso   1.000  O
  O32      1.0000 0.13670  0.68210  0.46440  Biso   1.000  O
  O33      1.0000 0.12820  0.79730  0.21130  Biso   1.000  O
  O34      1.0000 0.04690  0.80910  0.14990  Biso   1.000  O
  O35      1.0000 0.90300  0.84010  0.36060  Biso   1.000  O
  O36      1.0000 0.89360  0.64790  0.33990  Biso   1.000  O
  O37      1.0000 0.13640  0.71840  0.64630  Biso   1.000  O
  O38      1.0000 0.07850  0.60060  0.68110  Biso   1.000  O
  O39      1.0000 0.12010  0.55650  0.50320  Biso   1.000  O
  O40      1.0000 0.23350  0.63170  0.53460  Biso   1.000  O
  C94      1.0000 0.08260  0.68420  0.46970  Biso   1.000  C
  C95      1.0000 0.04970  0.71360  0.40440  Biso   1.000  C
  C96      1.0000 0.07710  0.73710  0.34080  Biso   1.000  C
  H124     1.0000 0.11710  0.73550  0.33800  Biso   1.000  H
  C97      1.0000 0.07520  0.79190  0.21030  Biso   1.000  C
  C98      1.0000 0.04610  0.76400  0.27840  Biso   1.000  C
  C99      1.0000 0.98920  0.76630  0.28310  Biso   1.000  C
  H125     1.0000 0.96850  0.78540  0.24230  Biso   1.000  H
  C100     1.0000 0.96000  0.74050  0.34840  Biso   1.000  C
  C101     1.0000 0.99020  0.71450  0.40940  Biso   1.000  C
  H126     1.0000 0.97130  0.69770  0.45380  Biso   1.000  H
  C102     1.0000 0.87310  0.79800  0.35680  Biso   1.000  C
  C103     1.0000 0.81060  0.79870  0.35700  Biso   1.000  C
  C104     1.0000 0.78010  0.74870  0.35670  Biso   1.000  C
  C105     1.0000 0.80720  0.69630  0.35540  Biso   1.000  C
  C106     1.0000 0.86950  0.69150  0.35040  Biso   1.000  C
  C107     1.0000 0.77520  0.64660  0.35630  Biso   1.000  C
  H127     1.0000 0.79370  0.61100  0.35540  Biso   1.000  H
  C108     1.0000 0.71460  0.64900  0.35860  Biso   1.000  C
  H128     1.0000 0.69270  0.61560  0.36110  Biso   1.000  H
  C109     1.0000 0.11190  0.50620  0.47990  Biso   1.000  C
  C110     1.0000 0.15010  0.45530  0.50440  Biso   1.000  C
  H129     1.0000 0.13120  0.43320  0.54640  Biso   1.000  H
  H130     1.0000 0.18620  0.46940  0.52500  Biso   1.000  H
  H131     1.0000 0.15690  0.43140  0.45710  Biso   1.000  H
  C111     1.0000 0.05690  0.43650  0.40570  Biso   1.000  C
  H132     1.0000 0.07960  0.40840  0.43470  Biso   1.000  H
  H133     1.0000 0.06660  0.43560  0.34820  Biso   1.000  H
  H134     1.0000 0.01680  0.42780  0.41240  Biso   1.000  H
  C112     1.0000 0.03420  0.54380  0.40480  Biso   1.000  C
  H135     1.0000 0.01710  0.56460  0.44980  Biso   1.000  H
  H136     1.0000 0.00440  0.52990  0.36900  Biso   1.000  H
  H137     1.0000 0.05930  0.56900  0.37460  Biso   1.000  H
  C113     1.0000 0.05190  0.57930  0.73640  Biso   1.000  C
  C114     1.0000 0.07300  0.51290  0.76110  Biso   1.000  C
  H138     1.0000 0.09820  0.51450  0.80780  Biso   1.000  H
  H139     1.0000 0.09290  0.49600  0.71530  Biso   1.000  H
  H140     1.0000 0.03990  0.48990  0.77440  Biso   1.000  H
  C115     1.0000 0.98050  0.56320  0.83850  Biso   1.000  C
  H141     1.0000 0.95470  0.53670  0.81220  Biso   1.000  H
  H142     1.0000 0.95890  0.59020  0.87070  Biso   1.000  H
  H143     1.0000 0.00630  0.54230  0.87380  Biso   1.000  H
  C116     1.0000 0.99230  0.65290  0.74100  Biso   1.000  C
  H144     1.0000 0.01480  0.68370  0.76370  Biso   1.000  H
  H145     1.0000 0.95280  0.65760  0.75690  Biso   1.000  H
  H146     1.0000 0.99530  0.65350  0.68210  Biso   1.000  H
  C117     1.0000 0.11120  0.76270  0.67900  Biso   1.000  C
  C118     1.0000 0.05320  0.78100  0.63920  Biso   1.000  C
  H147     1.0000 0.02780  0.79530  0.68110  Biso   1.000  H
  H148     1.0000 0.03590  0.74840  0.61250  Biso   1.000  H
  H149     1.0000 0.06010  0.81080  0.59930  Biso   1.000  H
  C119     1.0000 0.10590  0.83390  0.78670  Biso   1.000  C
  H150     1.0000 0.06720  0.82590  0.80440  Biso   1.000  H
  H151     1.0000 0.10570  0.86680  0.75080  Biso   1.000  H
  H152     1.0000 0.12950  0.84190  0.83380  Biso   1.000  H
  C120     1.0000 0.18420  0.77460  0.76440  Biso   1.000  C
  H153     1.0000 0.20010  0.80870  0.78880  Biso   1.000  H
  H154     1.0000 0.20590  0.76460  0.71620  Biso   1.000  H
  H155     1.0000 0.18580  0.74360  0.80330  Biso   1.000  H
  C121     1.0000 0.27620  0.64120  0.49690  Biso   1.000  C
  C122     1.0000 0.30740  0.70030  0.48440  Biso   1.000  C
  H156     1.0000 0.30820  0.70960  0.42680  Biso   1.000  H
  H157     1.0000 0.34600  0.69780  0.50500  Biso   1.000  H
  H158     1.0000 0.28690  0.72980  0.51380  Biso   1.000  H
  C123     1.0000 0.34100  0.61700  0.39140  Biso   1.000  C
  H159     1.0000 0.36380  0.58280  0.38520  Biso   1.000  H
  H160     1.0000 0.36470  0.64770  0.41200  Biso   1.000  H
  H161     1.0000 0.32530  0.62790  0.33890  Biso   1.000  H
  C124     1.0000 0.27060  0.54740  0.45130  Biso   1.000  C
  H162     1.0000 0.24620  0.54450  0.49890  Biso   1.000  H
  H163     1.0000 0.30090  0.51950  0.45530  Biso   1.000  H
  H164     1.0000 0.24830  0.54020  0.40260  Biso   1.000  H
  N16      1.0000 0.89870  0.74300  0.35350  Biso   1.000  N
  N17      1.0000 0.12870  0.78450  0.74300  Biso   1.000  N
  N18      1.0000 0.01480  0.59510  0.77370  Biso   1.000  N
  N19      1.0000 0.06870  0.49310  0.43840  Biso   1.000  N
  N20      1.0000 0.29580  0.60640  0.44710  Biso   1.000  N
  Ce5      1.0000 0.62946  0.35442  0.91060  Biso   1.000  Ce
  O41      1.0000 0.66310  0.44290  0.97110  Biso   1.000  O
  O42      1.0000 0.68210  0.36330  0.03560  Biso   1.000  O
  O43      1.0000 0.79730  0.37180  0.28870  Biso   1.000  O
  O44      1.0000 0.80910  0.45310  0.35010  Biso   1.000  O
  O45      1.0000 0.84010  0.59700  0.13940  Biso   1.000  O
  O46      1.0000 0.64790  0.60640  0.16010  Biso   1.000  O
  O47      1.0000 0.71840  0.36360  0.85370  Biso   1.000  O
  O48      1.0000 0.60060  0.42150  0.81890  Biso   1.000  O
  O49      1.0000 0.55650  0.37990  0.99680  Biso   1.000  O
  O50      1.0000 0.63170  0.26650  0.96540  Biso   1.000  O
  C125     1.0000 0.68420  0.41740  0.03030  Biso   1.000  C
  C126     1.0000 0.71360  0.45030  0.09560  Biso   1.000  C
  C127     1.0000 0.73710  0.42290  0.15920  Biso   1.000  C
  H165     1.0000 0.73550  0.38290  0.16200  Biso   1.000  H
  C128     1.0000 0.79190  0.42480  0.28970  Biso   1.000  C
  C129     1.0000 0.76400  0.45390  0.22160  Biso   1.000  C
  C130     1.0000 0.76630  0.51080  0.21690  Biso   1.000  C
  H166     1.0000 0.78540  0.53150  0.25770  Biso   1.000  H
  C131     1.0000 0.74050  0.54000  0.15160  Biso   1.000  C
  C132     1.0000 0.71450  0.50980  0.09060  Biso   1.000  C
  H167     1.0000 0.69770  0.52870  0.04620  Biso   1.000  H
  C133     1.0000 0.79800  0.62690  0.14320  Biso   1.000  C
  C134     1.0000 0.79870  0.68940  0.14300  Biso   1.000  C
  C135     1.0000 0.74870  0.71990  0.14330  Biso   1.000  C
  C136     1.0000 0.69630  0.69280  0.14460  Biso   1.000  C
  C137     1.0000 0.69150  0.63050  0.14960  Biso   1.000  C
  C138     1.0000 0.64660  0.72480  0.14370  Biso   1.000  C
  H168     1.0000 0.61100  0.70630  0.14460  Biso   1.000  H
  C139     1.0000 0.64900  0.78540  0.14140  Biso   1.000  C
  H169     1.0000 0.61560  0.80730  0.13890  Biso   1.000  H
  C140     1.0000 0.50620  0.38810  0.02010  Biso   1.000  C
  C141     1.0000 0.45530  0.34990  0.99560  Biso   1.000  C
  H170     1.0000 0.43320  0.36880  0.95360  Biso   1.000  H
  H171     1.0000 0.46940  0.31380  0.97500  Biso   1.000  H
  H172     1.0000 0.43140  0.34310  0.04290  Biso   1.000  H
  C142     1.0000 0.43650  0.44310  0.09430  Biso   1.000  C
  H173     1.0000 0.40840  0.42040  0.06530  Biso   1.000  H
  H174     1.0000 0.43560  0.43340  0.15180  Biso   1.000  H
  H175     1.0000 0.42780  0.48320  0.08760  Biso   1.000  H
  C143     1.0000 0.54380  0.46580  0.09520  Biso   1.000  C
  H176     1.0000 0.56460  0.48290  0.05020  Biso   1.000  H
  H177     1.0000 0.52990  0.49560  0.13100  Biso   1.000  H
  H178     1.0000 0.56900  0.44070  0.12540  Biso   1.000  H
  C144     1.0000 0.57930  0.44810  0.76360  Biso   1.000  C
  C145     1.0000 0.51290  0.42700  0.73890  Biso   1.000  C
  H179     1.0000 0.51450  0.40180  0.69220  Biso   1.000  H
  H180     1.0000 0.49600  0.40710  0.78470  Biso   1.000  H
  H181     1.0000 0.48990  0.46010  0.72560  Biso   1.000  H
  C146     1.0000 0.56320  0.51950  0.66150  Biso   1.000  C
  H182     1.0000 0.53670  0.54530  0.68780  Biso   1.000  H
  H183     1.0000 0.59020  0.54110  0.62930  Biso   1.000  H
  H184     1.0000 0.54230  0.49370  0.62620  Biso   1.000  H
  C147     1.0000 0.65290  0.50770  0.75900  Biso   1.000  C
  H185     1.0000 0.68370  0.48520  0.73630  Biso   1.000  H
  H186     1.0000 0.65760  0.54720  0.74310  Biso   1.000  H
  H187     1.0000 0.65350  0.50470  0.81790  Biso   1.000  H
  C148     1.0000 0.76270  0.38880  0.82100  Biso   1.000  C
  C149     1.0000 0.78100  0.44680  0.86080  Biso   1.000  C
  H188     1.0000 0.79530  0.47220  0.81890  Biso   1.000  H
  H189     1.0000 0.74840  0.46410  0.88750  Biso   1.000  H
  H190     1.0000 0.81080  0.43990  0.90070  Biso   1.000  H
  C150     1.0000 0.83390  0.39410  0.71330  Biso   1.000  C
  H191     1.0000 0.82590  0.43280  0.69560  Biso   1.000  H
  H192     1.0000 0.86680  0.39430  0.74920  Biso   1.000  H
  H193     1.0000 0.84190  0.37050  0.66620  Biso   1.000  H
  C151     1.0000 0.77460  0.31580  0.73560  Biso   1.000  C
  H194     1.0000 0.80870  0.29990  0.71120  Biso   1.000  H
  H195     1.0000 0.76460  0.29410  0.78380  Biso   1.000  H
  H196     1.0000 0.74360  0.31420  0.69670  Biso   1.000  H
  C152     1.0000 0.64120  0.22380  0.00310  Biso   1.000  C
  C153     1.0000 0.70030  0.19260  0.01560  Biso   1.000  C
  H197     1.0000 0.70960  0.19180  0.07320  Biso   1.000  H
  H198     1.0000 0.69780  0.15400  0.99500  Biso   1.000  H
  H199     1.0000 0.72980  0.21310  0.98620  Biso   1.000  H
  C154     1.0000 0.61700  0.15900  0.10860  Biso   1.000  C
  H200     1.0000 0.58280  0.13620  0.11480  Biso   1.000  H
  H201     1.0000 0.64770  0.13530  0.08800  Biso   1.000  H
  H202     1.0000 0.62790  0.17470  0.16110  Biso   1.000  H
  C155     1.0000 0.54740  0.22940  0.04870  Biso   1.000  C
  H203     1.0000 0.54450  0.25380  0.00110  Biso   1.000  H
  H204     1.0000 0.51950  0.19910  0.04470  Biso   1.000  H
  H205     1.0000 0.54020  0.25170  0.09740  Biso   1.000  H
  N21      1.0000 0.74300  0.60130  0.14650  Biso   1.000  N
  N22      1.0000 0.78450  0.37130  0.75700  Biso   1.000  N
  N23      1.0000 0.59510  0.48520  0.72630  Biso   1.000  N
  N24      1.0000 0.49310  0.43130  0.06160  Biso   1.000  N
  N25      1.0000 0.60640  0.20420  0.05290  Biso   1.000  N
  Ce6      1.0000 0.87054  0.14558  0.91060  Biso   1.000  Ce
  O51      1.0000 0.83690  0.05710  0.97110  Biso   1.000  O
  O52      1.0000 0.81790  0.13670  0.03560  Biso   1.000  O
  O53      1.0000 0.70270  0.12820  0.28870  Biso   1.000  O
  O54      1.0000 0.69090  0.04690  0.35010  Biso   1.000  O
  O55      1.0000 0.65990  0.90300  0.13940  Biso   1.000  O
  O56      1.0000 0.85210  0.89360  0.16010  Biso   1.000  O
  O57      1.0000 0.78160  0.13640  0.85370  Biso   1.000  O
  O58      1.0000 0.89940  0.07850  0.81890  Biso   1.000  O
  O59      1.0000 0.94350  0.12010  0.99680  Biso   1.000  O
  O60      1.0000 0.86830  0.23350  0.96540  Biso   1.000  O
  C156     1.0000 0.81580  0.08260  0.03030  Biso   1.000  C
  C157     1.0000 0.78640  0.04970  0.09560  Biso   1.000  C
  C158     1.0000 0.76290  0.07710  0.15920  Biso   1.000  C
  H206     1.0000 0.76450  0.11710  0.16200  Biso   1.000  H
  C159     1.0000 0.70810  0.07520  0.28970  Biso   1.000  C
  C160     1.0000 0.73600  0.04610  0.22160  Biso   1.000  C
  C161     1.0000 0.73370  0.98920  0.21690  Biso   1.000  C
  H207     1.0000 0.71460  0.96850  0.25770  Biso   1.000  H
  C162     1.0000 0.75950  0.96000  0.15160  Biso   1.000  C
  C163     1.0000 0.78550  0.99020  0.09060  Biso   1.000  C
  H208     1.0000 0.80230  0.97130  0.04620  Biso   1.000  H
  C164     1.0000 0.70200  0.87310  0.14320  Biso   1.000  C
  C165     1.0000 0.70130  0.81060  0.14300  Biso   1.000  C
  C166     1.0000 0.75130  0.78010  0.14330  Biso   1.000  C
  C167     1.0000 0.80370  0.80720  0.14460  Biso   1.000  C
  C168     1.0000 0.80850  0.86950  0.14960  Biso   1.000  C
  C169     1.0000 0.85340  0.77520  0.14370  Biso   1.000  C
  H209     1.0000 0.88900  0.79370  0.14460  Biso   1.000  H
  C170     1.0000 0.85100  0.71460  0.14140  Biso   1.000  C
  H210     1.0000 0.88440  0.69270  0.13890  Biso   1.000  H
  C171     1.0000 0.99380  0.11190  0.02010  Biso   1.000  C
  C172     1.0000 0.04470  0.15010  0.99560  Biso   1.000  C
  H211     1.0000 0.06680  0.13120  0.95360  Biso   1.000  H
  H212     1.0000 0.03060  0.18620  0.97500  Biso   1.000  H
  H213     1.0000 0.06860  0.15690  0.04290  Biso   1.000  H
  C173     1.0000 0.06350  0.05690  0.09430  Biso   1.000  C
  H214     1.0000 0.09160  0.07960  0.06530  Biso   1.000  H
  H215     1.0000 0.06440  0.06660  0.15180  Biso   1.000  H
  H216     1.0000 0.07220  0.01680  0.08760  Biso   1.000  H
  C174     1.0000 0.95620  0.03420  0.09520  Biso   1.000  C
  H217     1.0000 0.93540  0.01710  0.05020  Biso   1.000  H
  H218     1.0000 0.97010  0.00440  0.13100  Biso   1.000  H
  H219     1.0000 0.93100  0.05930  0.12540  Biso   1.000  H
  C175     1.0000 0.92070  0.05190  0.76360  Biso   1.000  C
  C176     1.0000 0.98710  0.07300  0.73890  Biso   1.000  C
  H220     1.0000 0.98550  0.09820  0.69220  Biso   1.000  H
  H221     1.0000 0.00400  0.09290  0.78470  Biso   1.000  H
  H222     1.0000 0.01010  0.03990  0.72560  Biso   1.000  H
  C177     1.0000 0.93680  0.98050  0.66150  Biso   1.000  C
  H223     1.0000 0.96330  0.95470  0.68780  Biso   1.000  H
  H224     1.0000 0.90980  0.95890  0.62930  Biso   1.000  H
  H225     1.0000 0.95770  0.00630  0.62620  Biso   1.000  H
  C178     1.0000 0.84710  0.99230  0.75900  Biso   1.000  C
  H226     1.0000 0.81630  0.01480  0.73630  Biso   1.000  H
  H227     1.0000 0.84240  0.95280  0.74310  Biso   1.000  H
  H228     1.0000 0.84650  0.99530  0.81790  Biso   1.000  H
  C179     1.0000 0.73730  0.11120  0.82100  Biso   1.000  C
  C180     1.0000 0.71900  0.05320  0.86080  Biso   1.000  C
  H229     1.0000 0.70470  0.02780  0.81890  Biso   1.000  H
  H230     1.0000 0.75160  0.03590  0.88750  Biso   1.000  H
  H231     1.0000 0.68920  0.06010  0.90070  Biso   1.000  H
  C181     1.0000 0.66610  0.10590  0.71330  Biso   1.000  C
  H232     1.0000 0.67410  0.06720  0.69560  Biso   1.000  H
  H233     1.0000 0.63320  0.10570  0.74920  Biso   1.000  H
  H234     1.0000 0.65810  0.12950  0.66620  Biso   1.000  H
  C182     1.0000 0.72540  0.18420  0.73560  Biso   1.000  C
  H235     1.0000 0.69130  0.20010  0.71120  Biso   1.000  H
  H236     1.0000 0.73540  0.20590  0.78380  Biso   1.000  H
  H237     1.0000 0.75640  0.18580  0.69670  Biso   1.000  H
  C183     1.0000 0.85880  0.27620  0.00310  Biso   1.000  C
  C184     1.0000 0.79970  0.30740  0.01560  Biso   1.000  C
  H238     1.0000 0.79040  0.30820  0.07320  Biso   1.000  H
  H239     1.0000 0.80220  0.34600  0.99500  Biso   1.000  H
  H240     1.0000 0.77020  0.28690  0.98620  Biso   1.000  H
  C185     1.0000 0.88300  0.34100  0.10860  Biso   1.000  C
  H241     1.0000 0.91720  0.36380  0.11480  Biso   1.000  H
  H242     1.0000 0.85230  0.36470  0.08800  Biso   1.000  H
  H243     1.0000 0.87210  0.32530  0.16110  Biso   1.000  H
  C186     1.0000 0.95260  0.27060  0.04870  Biso   1.000  C
  H244     1.0000 0.95550  0.24620  0.00110  Biso   1.000  H
  H245     1.0000 0.98050  0.30090  0.04470  Biso   1.000  H
  H246     1.0000 0.95980  0.24830  0.09740  Biso   1.000  H
  N26      1.0000 0.75700  0.89870  0.14650  Biso   1.000  N
  N27      1.0000 0.71550  0.12870  0.75700  Biso   1.000  N
  N28      1.0000 0.90490  0.01480  0.72630  Biso   1.000  N
  N29      1.0000 0.00690  0.06870  0.06160  Biso   1.000  N
  N30      1.0000 0.89360  0.29580  0.05290  Biso   1.000  N
  Ce7      1.0000 0.64558  0.12946  0.41060  Biso   1.000  Ce
  O61      1.0000 0.55710  0.16310  0.47110  Biso   1.000  O
  O62      1.0000 0.63670  0.18210  0.53560  Biso   1.000  O
  O63      1.0000 0.62820  0.29730  0.78870  Biso   1.000  O
  O64      1.0000 0.54690  0.30910  0.85010  Biso   1.000  O
  O65      1.0000 0.40300  0.34010  0.63940  Biso   1.000  O
  O66      1.0000 0.39360  0.14790  0.66010  Biso   1.000  O
  O67      1.0000 0.63640  0.21840  0.35370  Biso   1.000  O
  O68      1.0000 0.57850  0.10060  0.31890  Biso   1.000  O
  O69      1.0000 0.62010  0.05650  0.49680  Biso   1.000  O
  O70      1.0000 0.73350  0.13170  0.46540  Biso   1.000  O
  C187     1.0000 0.58260  0.18420  0.53030  Biso   1.000  C
  C188     1.0000 0.54970  0.21360  0.59560  Biso   1.000  C
  C189     1.0000 0.57710  0.23710  0.65920  Biso   1.000  C
  H247     1.0000 0.61710  0.23550  0.66200  Biso   1.000  H
  C190     1.0000 0.57520  0.29190  0.78970  Biso   1.000  C
  C191     1.0000 0.54610  0.26400  0.72160  Biso   1.000  C
  C192     1.0000 0.48920  0.26630  0.71690  Biso   1.000  C
  H248     1.0000 0.46850  0.28540  0.75770  Biso   1.000  H
  C193     1.0000 0.46000  0.24050  0.65160  Biso   1.000  C
  C194     1.0000 0.49020  0.21450  0.59060  Biso   1.000  C
  H249     1.0000 0.47130  0.19770  0.54620  Biso   1.000  H
  C195     1.0000 0.37310  0.29800  0.64320  Biso   1.000  C
  C196     1.0000 0.31060  0.29870  0.64300  Biso   1.000  C
  C197     1.0000 0.28010  0.24870  0.64330  Biso   1.000  C
  C198     1.0000 0.30720  0.19630  0.64460  Biso   1.000  C
  C199     1.0000 0.36950  0.19150  0.64960  Biso   1.000  C
  C200     1.0000 0.27520  0.14660  0.64370  Biso   1.000  C
  H250     1.0000 0.29370  0.11100  0.64460  Biso   1.000  H
  C201     1.0000 0.21460  0.14900  0.64140  Biso   1.000  C
  H251     1.0000 0.19270  0.11560  0.63890  Biso   1.000  H
  C202     1.0000 0.61190  0.00620  0.52010  Biso   1.000  C
  C203     1.0000 0.65010  0.95530  0.49560  Biso   1.000  C
  H252     1.0000 0.63120  0.93320  0.45360  Biso   1.000  H
  H253     1.0000 0.68620  0.96940  0.47500  Biso   1.000  H
  H254     1.0000 0.65690  0.93140  0.54290  Biso   1.000  H
  C204     1.0000 0.55690  0.93650  0.59430  Biso   1.000  C
  H255     1.0000 0.57960  0.90840  0.56530  Biso   1.000  H
  H256     1.0000 0.56660  0.93560  0.65180  Biso   1.000  H
  H257     1.0000 0.51680  0.92780  0.58760  Biso   1.000  H
  C205     1.0000 0.53420  0.04380  0.59520  Biso   1.000  C
  H258     1.0000 0.51710  0.06460  0.55020  Biso   1.000  H
  H259     1.0000 0.50440  0.02990  0.63100  Biso   1.000  H
  H260     1.0000 0.55930  0.06900  0.62540  Biso   1.000  H
  C206     1.0000 0.55190  0.07930  0.26360  Biso   1.000  C
  C207     1.0000 0.57300  0.01290  0.23890  Biso   1.000  C
  H261     1.0000 0.59820  0.01450  0.19220  Biso   1.000  H
  H262     1.0000 0.59290  0.99600  0.28470  Biso   1.000  H
  H263     1.0000 0.53990  0.98990  0.22560  Biso   1.000  H
  C208     1.0000 0.48050  0.06320  0.16150  Biso   1.000  C
  H264     1.0000 0.45470  0.03670  0.18780  Biso   1.000  H
  H265     1.0000 0.45890  0.09020  0.12930  Biso   1.000  H
  H266     1.0000 0.50630  0.04230  0.12620  Biso   1.000  H
  C209     1.0000 0.49230  0.15290  0.25900  Biso   1.000  C
  H267     1.0000 0.51480  0.18370  0.23630  Biso   1.000  H
  H268     1.0000 0.45280  0.15760  0.24310  Biso   1.000  H
  H269     1.0000 0.49530  0.15350  0.31790  Biso   1.000  H
  C210     1.0000 0.61120  0.26270  0.32100  Biso   1.000  C
  C211     1.0000 0.55320  0.28100  0.36080  Biso   1.000  C
  H270     1.0000 0.52780  0.29530  0.31890  Biso   1.000  H
  H271     1.0000 0.53590  0.24840  0.38750  Biso   1.000  H
  H272     1.0000 0.56010  0.31080  0.40070  Biso   1.000  H
  C212     1.0000 0.60590  0.33390  0.21330  Biso   1.000  C
  H273     1.0000 0.56720  0.32590  0.19560  Biso   1.000  H
  H274     1.0000 0.60570  0.36680  0.24920  Biso   1.000  H
  H275     1.0000 0.62950  0.34190  0.16620  Biso   1.000  H
  C213     1.0000 0.68420  0.27460  0.23560  Biso   1.000  C
  H276     1.0000 0.70010  0.30870  0.21120  Biso   1.000  H
  H277     1.0000 0.70590  0.26460  0.28380  Biso   1.000  H
  H278     1.0000 0.68580  0.24360  0.19670  Biso   1.000  H
  C214     1.0000 0.77620  0.14120  0.50310  Biso   1.000  C
  C215     1.0000 0.80740  0.20030  0.51560  Biso   1.000  C
  H279     1.0000 0.80820  0.20960  0.57320  Biso   1.000  H
  H280     1.0000 0.84600  0.19780  0.49500  Biso   1.000  H
  H281     1.0000 0.78690  0.22980  0.48620  Biso   1.000  H
  C216     1.0000 0.84100  0.11700  0.60860  Biso   1.000  C
  H282     1.0000 0.86380  0.08280  0.61480  Biso   1.000  H
  H283     1.0000 0.86470  0.14770  0.58800  Biso   1.000  H
  H284     1.0000 0.82530  0.12790  0.66110  Biso   1.000  H
  C217     1.0000 0.77060  0.04740  0.54870  Biso   1.000  C
  H285     1.0000 0.74620  0.04450  0.50110  Biso   1.000  H
  H286     1.0000 0.80090  0.01950  0.54470  Biso   1.000  H
  H287     1.0000 0.74830  0.04020  0.59740  Biso   1.000  H
  N31      1.0000 0.39870  0.24300  0.64650  Biso   1.000  N
  N32      1.0000 0.62870  0.28450  0.25700  Biso   1.000  N
  N33      1.0000 0.51480  0.09510  0.22630  Biso   1.000  N
  N34      1.0000 0.56870  0.99310  0.56160  Biso   1.000  N
  N35      1.0000 0.79580  0.10640  0.55290  Biso   1.000  N
  Ce8      1.0000 0.85442  0.37054  0.41060  Biso   1.000  Ce
  O71      1.0000 0.94290  0.33690  0.47110  Biso   1.000  O
  O72      1.0000 0.86330  0.31790  0.53560  Biso   1.000  O
  O73      1.0000 0.87180  0.20270  0.78870  Biso   1.000  O
  O74      1.0000 0.95310  0.19090  0.85010  Biso   1.000  O
  O75      1.0000 0.09700  0.15990  0.63940  Biso   1.000  O
  O76      1.0000 0.10640  0.35210  0.66010  Biso   1.000  O
  O77      1.0000 0.86360  0.28160  0.35370  Biso   1.000  O
  O78      1.0000 0.92150  0.39940  0.31890  Biso   1.000  O
  O79      1.0000 0.87990  0.44350  0.49680  Biso   1.000  O
  O80      1.0000 0.76650  0.36830  0.46540  Biso   1.000  O
  C218     1.0000 0.91740  0.31580  0.53030  Biso   1.000  C
  C219     1.0000 0.95030  0.28640  0.59560  Biso   1.000  C
  C220     1.0000 0.92290  0.26290  0.65920  Biso   1.000  C
  H288     1.0000 0.88290  0.26450  0.66200  Biso   1.000  H
  C221     1.0000 0.92480  0.20810  0.78970  Biso   1.000  C
  C222     1.0000 0.95390  0.23600  0.72160  Biso   1.000  C
  C223     1.0000 0.01080  0.23370  0.71690  Biso   1.000  C
  H289     1.0000 0.03150  0.21460  0.75770  Biso   1.000  H
  C224     1.0000 0.04000  0.25950  0.65160  Biso   1.000  C
  C225     1.0000 0.00980  0.28550  0.59060  Biso   1.000  C
  H290     1.0000 0.02870  0.30230  0.54620  Biso   1.000  H
  C226     1.0000 0.12690  0.20200  0.64320  Biso   1.000  C
  C227     1.0000 0.18940  0.20130  0.64300  Biso   1.000  C
  C228     1.0000 0.21990  0.25130  0.64330  Biso   1.000  C
  C229     1.0000 0.19280  0.30370  0.64460  Biso   1.000  C
  C230     1.0000 0.13050  0.30850  0.64960  Biso   1.000  C
  C231     1.0000 0.22480  0.35340  0.64370  Biso   1.000  C
  H291     1.0000 0.20630  0.38900  0.64460  Biso   1.000  H
  C232     1.0000 0.28540  0.35100  0.64140  Biso   1.000  C
  H292     1.0000 0.30730  0.38440  0.63890  Biso   1.000  H
  C233     1.0000 0.88810  0.49380  0.52010  Biso   1.000  C
  C234     1.0000 0.84990  0.54470  0.49560  Biso   1.000  C
  H293     1.0000 0.86880  0.56680  0.45360  Biso   1.000  H
  H294     1.0000 0.81380  0.53060  0.47500  Biso   1.000  H
  H295     1.0000 0.84310  0.56860  0.54290  Biso   1.000  H
  C235     1.0000 0.94310  0.56350  0.59430  Biso   1.000  C
  H296     1.0000 0.92040  0.59160  0.56530  Biso   1.000  H
  H297     1.0000 0.93340  0.56440  0.65180  Biso   1.000  H
  H298     1.0000 0.98320  0.57220  0.58760  Biso   1.000  H
  C236     1.0000 0.96580  0.45620  0.59520  Biso   1.000  C
  H299     1.0000 0.98290  0.43540  0.55020  Biso   1.000  H
  H300     1.0000 0.99560  0.47010  0.63100  Biso   1.000  H
  H301     1.0000 0.94070  0.43100  0.62540  Biso   1.000  H
  C237     1.0000 0.94810  0.42070  0.26360  Biso   1.000  C
  C238     1.0000 0.92700  0.48710  0.23890  Biso   1.000  C
  H302     1.0000 0.90180  0.48550  0.19220  Biso   1.000  H
  H303     1.0000 0.90710  0.50400  0.28470  Biso   1.000  H
  H304     1.0000 0.96010  0.51010  0.22560  Biso   1.000  H
  C239     1.0000 0.01950  0.43680  0.16150  Biso   1.000  C
  H305     1.0000 0.04530  0.46330  0.18780  Biso   1.000  H
  H306     1.0000 0.04110  0.40980  0.12930  Biso   1.000  H
  H307     1.0000 0.99370  0.45770  0.12620  Biso   1.000  H
  C240     1.0000 0.00770  0.34710  0.25900  Biso   1.000  C
  H308     1.0000 0.98520  0.31630  0.23630  Biso   1.000  H
  H309     1.0000 0.04720  0.34240  0.24310  Biso   1.000  H
  H310     1.0000 0.00470  0.34650  0.31790  Biso   1.000  H
  C241     1.0000 0.88880  0.23730  0.32100  Biso   1.000  C
  C242     1.0000 0.94680  0.21900  0.36080  Biso   1.000  C
  H311     1.0000 0.97220  0.20470  0.31890  Biso   1.000  H
  H312     1.0000 0.96410  0.25160  0.38750  Biso   1.000  H
  H313     1.0000 0.93990  0.18920  0.40070  Biso   1.000  H
  C243     1.0000 0.89410  0.16610  0.21330  Biso   1.000  C
  H314     1.0000 0.93280  0.17410  0.19560  Biso   1.000  H
  H315     1.0000 0.89430  0.13320  0.24920  Biso   1.000  H
  H316     1.0000 0.87050  0.15810  0.16620  Biso   1.000  H
  C244     1.0000 0.81580  0.22540  0.23560  Biso   1.000  C
  H317     1.0000 0.79990  0.19130  0.21120  Biso   1.000  H
  H318     1.0000 0.79410  0.23540  0.28380  Biso   1.000  H
  H319     1.0000 0.81420  0.25640  0.19670  Biso   1.000  H
  C245     1.0000 0.72380  0.35880  0.50310  Biso   1.000  C
  C246     1.0000 0.69260  0.29970  0.51560  Biso   1.000  C
  H320     1.0000 0.69180  0.29040  0.57320  Biso   1.000  H
  H321     1.0000 0.65400  0.30220  0.49500  Biso   1.000  H
  H322     1.0000 0.71310  0.27020  0.48620  Biso   1.000  H
  C247     1.0000 0.65900  0.38300  0.60860  Biso   1.000  C
  H323     1.0000 0.63620  0.41720  0.61480  Biso   1.000  H
  H324     1.0000 0.63530  0.35230  0.58800  Biso   1.000  H
  H325     1.0000 0.67470  0.37210  0.66110  Biso   1.000  H
  C248     1.0000 0.72940  0.45260  0.54870  Biso   1.000  C
  H326     1.0000 0.75380  0.45550  0.50110  Biso   1.000  H
  H327     1.0000 0.69910  0.48050  0.54470  Biso   1.000  H
  H328     1.0000 0.75170  0.45980  0.59740  Biso   1.000  H
  N36      1.0000 0.10130  0.25700  0.64650  Biso   1.000  N
  N37      1.0000 0.87130  0.21550  0.25700  Biso   1.000  N
  N38      1.0000 0.98520  0.40490  0.22630  Biso   1.000  N
  N39      1.0000 0.93130  0.50690  0.56160  Biso   1.000  N
  N40      1.0000 0.70420  0.39360  0.55290  Biso   1.000  N
