data_image0
_cell_length_a       30.7561
_cell_length_b       30.7561
_cell_length_c       30.7561
_cell_angle_alpha    90
_cell_angle_beta     90
_cell_angle_gamma    90

_symmetry_space_group_name_H-M    "P 1"
_symmetry_int_tables_number       1

loop_
  _symmetry_equiv_pos_as_xyz
  'x, y, z'

loop_
  _atom_site_label
  _atom_site_occupancy
  _atom_site_fract_x
  _atom_site_fract_y
  _atom_site_fract_z
  _atom_site_thermal_displace_type
  _atom_site_B_iso_or_equiv
  _atom_site_type_symbol
  N1       1.0000 0.22790  0.15880  0.08220  Biso   1.000  N
  C1       1.0000 0.23080  0.19840  0.06360  Biso   1.000  C
  H1       1.0000 0.20680  0.20910  0.04730  Biso   1.000  H
  C2       1.0000 0.26690  0.22320  0.06760  Biso   1.000  C
  H2       1.0000 0.26800  0.25090  0.05400  Biso   1.000  H
  C3       1.0000 0.30220  0.20840  0.09150  Biso   1.000  C
  H3       1.0000 0.32750  0.22590  0.09430  Biso   1.000  H
  C4       1.0000 0.30060  0.16780  0.11120  Biso   1.000  C
  C5       1.0000 0.26190  0.14460  0.10510  Biso   1.000  C
  H4       1.0000 0.25970  0.11680  0.11820  Biso   1.000  H
  C6       1.0000 0.32460  0.10790  0.18570  Biso   1.000  C
  H5       1.0000 0.30860  0.08410  0.17190  Biso   1.000  H
  H6       1.0000 0.34850  0.09590  0.20310  Biso   1.000  H
  H7       1.0000 0.30500  0.12440  0.20450  Biso   1.000  H
  C7       1.0000 0.37780  0.18970  0.16870  Biso   1.000  C
  H8       1.0000 0.38950  0.20870  0.14600  Biso   1.000  H
  H9       1.0000 0.35820  0.20640  0.18750  Biso   1.000  H
  H10      1.0000 0.40170  0.17790  0.18610  Biso   1.000  H
  Si1      1.0000 0.34709  0.14424  0.14314  Biso   1.000  Si
  N2       1.0000 0.72790  0.65880  0.58220  Biso   1.000  N
  C8       1.0000 0.73080  0.69840  0.56360  Biso   1.000  C
  H11      1.0000 0.70680  0.70910  0.54730  Biso   1.000  H
  C9       1.0000 0.76690  0.72320  0.56760  Biso   1.000  C
  H12      1.0000 0.76800  0.75090  0.55400  Biso   1.000  H
  C10      1.0000 0.80220  0.70840  0.59150  Biso   1.000  C
  H13      1.0000 0.82750  0.72590  0.59430  Biso   1.000  H
  C11      1.0000 0.80060  0.66780  0.61120  Biso   1.000  C
  C12      1.0000 0.76190  0.64460  0.60510  Biso   1.000  C
  H14      1.0000 0.75970  0.61680  0.61820  Biso   1.000  H
  C13      1.0000 0.82460  0.60790  0.68570  Biso   1.000  C
  H15      1.0000 0.80860  0.58410  0.67190  Biso   1.000  H
  H16      1.0000 0.84850  0.59590  0.70310  Biso   1.000  H
  H17      1.0000 0.80500  0.62440  0.70450  Biso   1.000  H
  C14      1.0000 0.87780  0.68970  0.66870  Biso   1.000  C
  H18      1.0000 0.88950  0.70870  0.64600  Biso   1.000  H
  H19      1.0000 0.85820  0.70640  0.68750  Biso   1.000  H
  H20      1.0000 0.90170  0.67790  0.68610  Biso   1.000  H
  Si2      1.0000 0.84709  0.64424  0.64314  Biso   1.000  Si
  N3       1.0000 0.27210  0.84120  0.58220  Biso   1.000  N
  C15      1.0000 0.26920  0.80160  0.56360  Biso   1.000  C
  H21      1.0000 0.29320  0.79090  0.54730  Biso   1.000  H
  C16      1.0000 0.23310  0.77680  0.56760  Biso   1.000  C
  H22      1.0000 0.23200  0.74910  0.55400  Biso   1.000  H
  C17      1.0000 0.19780  0.79160  0.59150  Biso   1.000  C
  H23      1.0000 0.17250  0.77410  0.59430  Biso   1.000  H
  C18      1.0000 0.19940  0.83220  0.61120  Biso   1.000  C
  C19      1.0000 0.23810  0.85540  0.60510  Biso   1.000  C
  H24      1.0000 0.24030  0.88320  0.61820  Biso   1.000  H
  C20      1.0000 0.17540  0.89210  0.68570  Biso   1.000  C
  H25      1.0000 0.19140  0.91590  0.67190  Biso   1.000  H
  H26      1.0000 0.15150  0.90410  0.70310  Biso   1.000  H
  H27      1.0000 0.19500  0.87560  0.70450  Biso   1.000  H
  C21      1.0000 0.12220  0.81030  0.66870  Biso   1.000  C
  H28      1.0000 0.11050  0.79130  0.64600  Biso   1.000  H
  H29      1.0000 0.14180  0.79360  0.68750  Biso   1.000  H
  H30      1.0000 0.09830  0.82210  0.68610  Biso   1.000  H
  Si3      1.0000 0.15291  0.85576  0.64314  Biso   1.000  Si
  N4       1.0000 0.77210  0.34120  0.08220  Biso   1.000  N
  C22      1.0000 0.76920  0.30160  0.06360  Biso   1.000  C
  H31      1.0000 0.79320  0.29090  0.04730  Biso   1.000  H
  C23      1.0000 0.73310  0.27680  0.06760  Biso   1.000  C
  H32      1.0000 0.73200  0.24910  0.05400  Biso   1.000  H
  C24      1.0000 0.69780  0.29160  0.09150  Biso   1.000  C
  H33      1.0000 0.67250  0.27410  0.09430  Biso   1.000  H
  C25      1.0000 0.69940  0.33220  0.11120  Biso   1.000  C
  C26      1.0000 0.73810  0.35540  0.10510  Biso   1.000  C
  H34      1.0000 0.74030  0.38320  0.11820  Biso   1.000  H
  C27      1.0000 0.67540  0.39210  0.18570  Biso   1.000  C
  H35      1.0000 0.69140  0.41590  0.17190  Biso   1.000  H
  H36      1.0000 0.65150  0.40410  0.20310  Biso   1.000  H
  H37      1.0000 0.69500  0.37560  0.20450  Biso   1.000  H
  C28      1.0000 0.62220  0.31030  0.16870  Biso   1.000  C
  H38      1.0000 0.61050  0.29130  0.14600  Biso   1.000  H
  H39      1.0000 0.64180  0.29360  0.18750  Biso   1.000  H
  H40      1.0000 0.59830  0.32210  0.18610  Biso   1.000  H
  Si4      1.0000 0.65291  0.35576  0.14314  Biso   1.000  Si
  N5       1.0000 0.77210  0.65880  0.41780  Biso   1.000  N
  C29      1.0000 0.76920  0.69840  0.43640  Biso   1.000  C
  H41      1.0000 0.79320  0.70910  0.45270  Biso   1.000  H
  C30      1.0000 0.73310  0.72320  0.43240  Biso   1.000  C
  H42      1.0000 0.73200  0.75090  0.44600  Biso   1.000  H
  C31      1.0000 0.69780  0.70840  0.40850  Biso   1.000  C
  H43      1.0000 0.67250  0.72590  0.40570  Biso   1.000  H
  C32      1.0000 0.69940  0.66780  0.38880  Biso   1.000  C
  C33      1.0000 0.73810  0.64460  0.39490  Biso   1.000  C
  H44      1.0000 0.74030  0.61680  0.38180  Biso   1.000  H
  C34      1.0000 0.67540  0.60790  0.31430  Biso   1.000  C
  H45      1.0000 0.69140  0.58410  0.32810  Biso   1.000  H
  H46      1.0000 0.65150  0.59590  0.29690  Biso   1.000  H
  H47      1.0000 0.69500  0.62440  0.29550  Biso   1.000  H
  C35      1.0000 0.62220  0.68970  0.33130  Biso   1.000  C
  H48      1.0000 0.61050  0.70870  0.35400  Biso   1.000  H
  H49      1.0000 0.64180  0.70640  0.31250  Biso   1.000  H
  H50      1.0000 0.59830  0.67790  0.31390  Biso   1.000  H
  Si5      1.0000 0.65291  0.64424  0.35686  Biso   1.000  Si
  N6       1.0000 0.27210  0.15880  0.91780  Biso   1.000  N
  C36      1.0000 0.26920  0.19840  0.93640  Biso   1.000  C
  H51      1.0000 0.29320  0.20910  0.95270  Biso   1.000  H
  C37      1.0000 0.23310  0.22320  0.93240  Biso   1.000  C
  H52      1.0000 0.23200  0.25090  0.94600  Biso   1.000  H
  C38      1.0000 0.19780  0.20840  0.90850  Biso   1.000  C
  H53      1.0000 0.17250  0.22590  0.90570  Biso   1.000  H
  C39      1.0000 0.19940  0.16780  0.88880  Biso   1.000  C
  C40      1.0000 0.23810  0.14460  0.89490  Biso   1.000  C
  H54      1.0000 0.24030  0.11680  0.88180  Biso   1.000  H
  C41      1.0000 0.17540  0.10790  0.81430  Biso   1.000  C
  H55      1.0000 0.19140  0.08410  0.82810  Biso   1.000  H
  H56      1.0000 0.15150  0.09590  0.79690  Biso   1.000  H
  H57      1.0000 0.19500  0.12440  0.79550  Biso   1.000  H
  C42      1.0000 0.12220  0.18970  0.83130  Biso   1.000  C
  H58      1.0000 0.11050  0.20870  0.85400  Biso   1.000  H
  H59      1.0000 0.14180  0.20640  0.81250  Biso   1.000  H
  H60      1.0000 0.09830  0.17790  0.81390  Biso   1.000  H
  Si6      1.0000 0.15291  0.14424  0.85686  Biso   1.000  Si
  N7       1.0000 0.72790  0.34120  0.91780  Biso   1.000  N
  C43      1.0000 0.73080  0.30160  0.93640  Biso   1.000  C
  H61      1.0000 0.70680  0.29090  0.95270  Biso   1.000  H
  C44      1.0000 0.76690  0.27680  0.93240  Biso   1.000  C
  H62      1.0000 0.76800  0.24910  0.94600  Biso   1.000  H
  C45      1.0000 0.80220  0.29160  0.90850  Biso   1.000  C
  H63      1.0000 0.82750  0.27410  0.90570  Biso   1.000  H
  C46      1.0000 0.80060  0.33220  0.88880  Biso   1.000  C
  C47      1.0000 0.76190  0.35540  0.89490  Biso   1.000  C
  H64      1.0000 0.75970  0.38320  0.88180  Biso   1.000  H
  C48      1.0000 0.82460  0.39210  0.81430  Biso   1.000  C
  H65      1.0000 0.80860  0.41590  0.82810  Biso   1.000  H
  H66      1.0000 0.84850  0.40410  0.79690  Biso   1.000  H
  H67      1.0000 0.80500  0.37560  0.79550  Biso   1.000  H
  C49      1.0000 0.87780  0.31030  0.83130  Biso   1.000  C
  H68      1.0000 0.88950  0.29130  0.85400  Biso   1.000  H
  H69      1.0000 0.85820  0.29360  0.81250  Biso   1.000  H
  H70      1.0000 0.90170  0.32210  0.81390  Biso   1.000  H
  Si7      1.0000 0.84709  0.35576  0.85686  Biso   1.000  Si
  N8       1.0000 0.22790  0.84120  0.41780  Biso   1.000  N
  C50      1.0000 0.23080  0.80160  0.43640  Biso   1.000  C
  H71      1.0000 0.20680  0.79090  0.45270  Biso   1.000  H
  C51      1.0000 0.26690  0.77680  0.43240  Biso   1.000  C
  H72      1.0000 0.26800  0.74910  0.44600  Biso   1.000  H
  C52      1.0000 0.30220  0.79160  0.40850  Biso   1.000  C
  H73      1.0000 0.32750  0.77410  0.40570  Biso   1.000  H
  C53      1.0000 0.30060  0.83220  0.38880  Biso   1.000  C
  C54      1.0000 0.26190  0.85540  0.39490  Biso   1.000  C
  H74      1.0000 0.25970  0.88320  0.38180  Biso   1.000  H
  C55      1.0000 0.32460  0.89210  0.31430  Biso   1.000  C
  H75      1.0000 0.30860  0.91590  0.32810  Biso   1.000  H
  H76      1.0000 0.34850  0.90410  0.29690  Biso   1.000  H
  H77      1.0000 0.30500  0.87560  0.29550  Biso   1.000  H
  C56      1.0000 0.37780  0.81030  0.33130  Biso   1.000  C
  H78      1.0000 0.38950  0.79130  0.35400  Biso   1.000  H
  H79      1.0000 0.35820  0.79360  0.31250  Biso   1.000  H
  H80      1.0000 0.40170  0.82210  0.31390  Biso   1.000  H
  Si8      1.0000 0.34709  0.85576  0.35686  Biso   1.000  Si
  N9       1.0000 0.08220  0.22790  0.15880  Biso   1.000  N
  C57      1.0000 0.06360  0.23080  0.19840  Biso   1.000  C
  H81      1.0000 0.04730  0.20680  0.20910  Biso   1.000  H
  C58      1.0000 0.06760  0.26690  0.22320  Biso   1.000  C
  H82      1.0000 0.05400  0.26800  0.25090  Biso   1.000  H
  C59      1.0000 0.09150  0.30220  0.20840  Biso   1.000  C
  H83      1.0000 0.09430  0.32750  0.22590  Biso   1.000  H
  C60      1.0000 0.11120  0.30060  0.16780  Biso   1.000  C
  C61      1.0000 0.10510  0.26190  0.14460  Biso   1.000  C
  H84      1.0000 0.11820  0.25970  0.11680  Biso   1.000  H
  C62      1.0000 0.18570  0.32460  0.10790  Biso   1.000  C
  H85      1.0000 0.17190  0.30860  0.08410  Biso   1.000  H
  H86      1.0000 0.20310  0.34850  0.09590  Biso   1.000  H
  H87      1.0000 0.20450  0.30500  0.12440  Biso   1.000  H
  C63      1.0000 0.16870  0.37780  0.18970  Biso   1.000  C
  H88      1.0000 0.14600  0.38950  0.20870  Biso   1.000  H
  H89      1.0000 0.18750  0.35820  0.20640  Biso   1.000  H
  H90      1.0000 0.18610  0.40170  0.17790  Biso   1.000  H
  Si9      1.0000 0.14314  0.34709  0.14424  Biso   1.000  Si
  N10      1.0000 0.58220  0.72790  0.65880  Biso   1.000  N
  C64      1.0000 0.56360  0.73080  0.69840  Biso   1.000  C
  H91      1.0000 0.54730  0.70680  0.70910  Biso   1.000  H
  C65      1.0000 0.56760  0.76690  0.72320  Biso   1.000  C
  H92      1.0000 0.55400  0.76800  0.75090  Biso   1.000  H
  C66      1.0000 0.59150  0.80220  0.70840  Biso   1.000  C
  H93      1.0000 0.59430  0.82750  0.72590  Biso   1.000  H
  C67      1.0000 0.61120  0.80060  0.66780  Biso   1.000  C
  C68      1.0000 0.60510  0.76190  0.64460  Biso   1.000  C
  H94      1.0000 0.61820  0.75970  0.61680  Biso   1.000  H
  C69      1.0000 0.68570  0.82460  0.60790  Biso   1.000  C
  H95      1.0000 0.67190  0.80860  0.58410  Biso   1.000  H
  H96      1.0000 0.70310  0.84850  0.59590  Biso   1.000  H
  H97      1.0000 0.70450  0.80500  0.62440  Biso   1.000  H
  C70      1.0000 0.66870  0.87780  0.68970  Biso   1.000  C
  H98      1.0000 0.64600  0.88950  0.70870  Biso   1.000  H
  H99      1.0000 0.68750  0.85820  0.70640  Biso   1.000  H
  H100     1.0000 0.68610  0.90170  0.67790  Biso   1.000  H
  Si10     1.0000 0.64314  0.84709  0.64424  Biso   1.000  Si
  N11      1.0000 0.58220  0.27210  0.84120  Biso   1.000  N
  C71      1.0000 0.56360  0.26920  0.80160  Biso   1.000  C
  H101     1.0000 0.54730  0.29320  0.79090  Biso   1.000  H
  C72      1.0000 0.56760  0.23310  0.77680  Biso   1.000  C
  H102     1.0000 0.55400  0.23200  0.74910  Biso   1.000  H
  C73      1.0000 0.59150  0.19780  0.79160  Biso   1.000  C
  H103     1.0000 0.59430  0.17250  0.77410  Biso   1.000  H
  C74      1.0000 0.61120  0.19940  0.83220  Biso   1.000  C
  C75      1.0000 0.60510  0.23810  0.85540  Biso   1.000  C
  H104     1.0000 0.61820  0.24030  0.88320  Biso   1.000  H
  C76      1.0000 0.68570  0.17540  0.89210  Biso   1.000  C
  H105     1.0000 0.67190  0.19140  0.91590  Biso   1.000  H
  H106     1.0000 0.70310  0.15150  0.90410  Biso   1.000  H
  H107     1.0000 0.70450  0.19500  0.87560  Biso   1.000  H
  C77      1.0000 0.66870  0.12220  0.81030  Biso   1.000  C
  H108     1.0000 0.64600  0.11050  0.79130  Biso   1.000  H
  H109     1.0000 0.68750  0.14180  0.79360  Biso   1.000  H
  H110     1.0000 0.68610  0.09830  0.82210  Biso   1.000  H
  Si11     1.0000 0.64314  0.15291  0.85576  Biso   1.000  Si
  N12      1.0000 0.08220  0.77210  0.34120  Biso   1.000  N
  C78      1.0000 0.06360  0.76920  0.30160  Biso   1.000  C
  H111     1.0000 0.04730  0.79320  0.29090  Biso   1.000  H
  C79      1.0000 0.06760  0.73310  0.27680  Biso   1.000  C
  H112     1.0000 0.05400  0.73200  0.24910  Biso   1.000  H
  C80      1.0000 0.09150  0.69780  0.29160  Biso   1.000  C
  H113     1.0000 0.09430  0.67250  0.27410  Biso   1.000  H
  C81      1.0000 0.11120  0.69940  0.33220  Biso   1.000  C
  C82      1.0000 0.10510  0.73810  0.35540  Biso   1.000  C
  H114     1.0000 0.11820  0.74030  0.38320  Biso   1.000  H
  C83      1.0000 0.18570  0.67540  0.39210  Biso   1.000  C
  H115     1.0000 0.17190  0.69140  0.41590  Biso   1.000  H
  H116     1.0000 0.20310  0.65150  0.40410  Biso   1.000  H
  H117     1.0000 0.20450  0.69500  0.37560  Biso   1.000  H
  C84      1.0000 0.16870  0.62220  0.31030  Biso   1.000  C
  H118     1.0000 0.14600  0.61050  0.29130  Biso   1.000  H
  H119     1.0000 0.18750  0.64180  0.29360  Biso   1.000  H
  H120     1.0000 0.18610  0.59830  0.32210  Biso   1.000  H
  Si12     1.0000 0.14314  0.65291  0.35576  Biso   1.000  Si
  N13      1.0000 0.41780  0.77210  0.65880  Biso   1.000  N
  C85      1.0000 0.43640  0.76920  0.69840  Biso   1.000  C
  H121     1.0000 0.45270  0.79320  0.70910  Biso   1.000  H
  C86      1.0000 0.43240  0.73310  0.72320  Biso   1.000  C
  H122     1.0000 0.44600  0.73200  0.75090  Biso   1.000  H
  C87      1.0000 0.40850  0.69780  0.70840  Biso   1.000  C
  H123     1.0000 0.40570  0.67250  0.72590  Biso   1.000  H
  C88      1.0000 0.38880  0.69940  0.66780  Biso   1.000  C
  C89      1.0000 0.39490  0.73810  0.64460  Biso   1.000  C
  H124     1.0000 0.38180  0.74030  0.61680  Biso   1.000  H
  C90      1.0000 0.31430  0.67540  0.60790  Biso   1.000  C
  H125     1.0000 0.32810  0.69140  0.58410  Biso   1.000  H
  H126     1.0000 0.29690  0.65150  0.59590  Biso   1.000  H
  H127     1.0000 0.29550  0.69500  0.62440  Biso   1.000  H
  C91      1.0000 0.33130  0.62220  0.68970  Biso   1.000  C
  H128     1.0000 0.35400  0.61050  0.70870  Biso   1.000  H
  H129     1.0000 0.31250  0.64180  0.70640  Biso   1.000  H
  H130     1.0000 0.31390  0.59830  0.67790  Biso   1.000  H
  Si13     1.0000 0.35686  0.65291  0.64424  Biso   1.000  Si
  N14      1.0000 0.91780  0.27210  0.15880  Biso   1.000  N
  C92      1.0000 0.93640  0.26920  0.19840  Biso   1.000  C
  H131     1.0000 0.95270  0.29320  0.20910  Biso   1.000  H
  C93      1.0000 0.93240  0.23310  0.22320  Biso   1.000  C
  H132     1.0000 0.94600  0.23200  0.25090  Biso   1.000  H
  C94      1.0000 0.90850  0.19780  0.20840  Biso   1.000  C
  H133     1.0000 0.90570  0.17250  0.22590  Biso   1.000  H
  C95      1.0000 0.88880  0.19940  0.16780  Biso   1.000  C
  C96      1.0000 0.89490  0.23810  0.14460  Biso   1.000  C
  H134     1.0000 0.88180  0.24030  0.11680  Biso   1.000  H
  C97      1.0000 0.81430  0.17540  0.10790  Biso   1.000  C
  H135     1.0000 0.82810  0.19140  0.08410  Biso   1.000  H
  H136     1.0000 0.79690  0.15150  0.09590  Biso   1.000  H
  H137     1.0000 0.79550  0.19500  0.12440  Biso   1.000  H
  C98      1.0000 0.83130  0.12220  0.18970  Biso   1.000  C
  H138     1.0000 0.85400  0.11050  0.20870  Biso   1.000  H
  H139     1.0000 0.81250  0.14180  0.20640  Biso   1.000  H
  H140     1.0000 0.81390  0.09830  0.17790  Biso   1.000  H
  Si14     1.0000 0.85686  0.15291  0.14424  Biso   1.000  Si
  N15      1.0000 0.91780  0.72790  0.34120  Biso   1.000  N
  C99      1.0000 0.93640  0.73080  0.30160  Biso   1.000  C
  H141     1.0000 0.95270  0.70680  0.29090  Biso   1.000  H
  C100     1.0000 0.93240  0.76690  0.27680  Biso   1.000  C
  H142     1.0000 0.94600  0.76800  0.24910  Biso   1.000  H
  C101     1.0000 0.90850  0.80220  0.29160  Biso   1.000  C
  H143     1.0000 0.90570  0.82750  0.27410  Biso   1.000  H
  C102     1.0000 0.88880  0.80060  0.33220  Biso   1.000  C
  C103     1.0000 0.89490  0.76190  0.35540  Biso   1.000  C
  H144     1.0000 0.88180  0.75970  0.38320  Biso   1.000  H
  C104     1.0000 0.81430  0.82460  0.39210  Biso   1.000  C
  H145     1.0000 0.82810  0.80860  0.41590  Biso   1.000  H
  H146     1.0000 0.79690  0.84850  0.40410  Biso   1.000  H
  H147     1.0000 0.79550  0.80500  0.37560  Biso   1.000  H
  C105     1.0000 0.83130  0.87780  0.31030  Biso   1.000  C
  H148     1.0000 0.85400  0.88950  0.29130  Biso   1.000  H
  H149     1.0000 0.81250  0.85820  0.29360  Biso   1.000  H
  H150     1.0000 0.81390  0.90170  0.32210  Biso   1.000  H
  Si15     1.0000 0.85686  0.84709  0.35576  Biso   1.000  Si
  N16      1.0000 0.41780  0.22790  0.84120  Biso   1.000  N
  C106     1.0000 0.43640  0.23080  0.80160  Biso   1.000  C
  H151     1.0000 0.45270  0.20680  0.79090  Biso   1.000  H
  C107     1.0000 0.43240  0.26690  0.77680  Biso   1.000  C
  H152     1.0000 0.44600  0.26800  0.74910  Biso   1.000  H
  C108     1.0000 0.40850  0.30220  0.79160  Biso   1.000  C
  H153     1.0000 0.40570  0.32750  0.77410  Biso   1.000  H
  C109     1.0000 0.38880  0.30060  0.83220  Biso   1.000  C
  C110     1.0000 0.39490  0.26190  0.85540  Biso   1.000  C
  H154     1.0000 0.38180  0.25970  0.88320  Biso   1.000  H
  C111     1.0000 0.31430  0.32460  0.89210  Biso   1.000  C
  H155     1.0000 0.32810  0.30860  0.91590  Biso   1.000  H
  H156     1.0000 0.29690  0.34850  0.90410  Biso   1.000  H
  H157     1.0000 0.29550  0.30500  0.87560  Biso   1.000  H
  C112     1.0000 0.33130  0.37780  0.81030  Biso   1.000  C
  H158     1.0000 0.35400  0.38950  0.79130  Biso   1.000  H
  H159     1.0000 0.31250  0.35820  0.79360  Biso   1.000  H
  H160     1.0000 0.31390  0.40170  0.82210  Biso   1.000  H
  Si16     1.0000 0.35686  0.34709  0.85576  Biso   1.000  Si
  N17      1.0000 0.15880  0.08220  0.22790  Biso   1.000  N
  C113     1.0000 0.19840  0.06360  0.23080  Biso   1.000  C
  H161     1.0000 0.20910  0.04730  0.20680  Biso   1.000  H
  C114     1.0000 0.22320  0.06760  0.26690  Biso   1.000  C
  H162     1.0000 0.25090  0.05400  0.26800  Biso   1.000  H
  C115     1.0000 0.20840  0.09150  0.30220  Biso   1.000  C
  H163     1.0000 0.22590  0.09430  0.32750  Biso   1.000  H
  C116     1.0000 0.16780  0.11120  0.30060  Biso   1.000  C
  C117     1.0000 0.14460  0.10510  0.26190  Biso   1.000  C
  H164     1.0000 0.11680  0.11820  0.25970  Biso   1.000  H
  C118     1.0000 0.10790  0.18570  0.32460  Biso   1.000  C
  H165     1.0000 0.08410  0.17190  0.30860  Biso   1.000  H
  H166     1.0000 0.09590  0.20310  0.34850  Biso   1.000  H
  H167     1.0000 0.12440  0.20450  0.30500  Biso   1.000  H
  C119     1.0000 0.18970  0.16870  0.37780  Biso   1.000  C
  H168     1.0000 0.20870  0.14600  0.38950  Biso   1.000  H
  H169     1.0000 0.20640  0.18750  0.35820  Biso   1.000  H
  H170     1.0000 0.17790  0.18610  0.40170  Biso   1.000  H
  Si17     1.0000 0.14424  0.14314  0.34709  Biso   1.000  Si
  N18      1.0000 0.65880  0.58220  0.72790  Biso   1.000  N
  C120     1.0000 0.69840  0.56360  0.73080  Biso   1.000  C
  H171     1.0000 0.70910  0.54730  0.70680  Biso   1.000  H
  C121     1.0000 0.72320  0.56760  0.76690  Biso   1.000  C
  H172     1.0000 0.75090  0.55400  0.76800  Biso   1.000  H
  C122     1.0000 0.70840  0.59150  0.80220  Biso   1.000  C
  H173     1.0000 0.72590  0.59430  0.82750  Biso   1.000  H
  C123     1.0000 0.66780  0.61120  0.80060  Biso   1.000  C
  C124     1.0000 0.64460  0.60510  0.76190  Biso   1.000  C
  H174     1.0000 0.61680  0.61820  0.75970  Biso   1.000  H
  C125     1.0000 0.60790  0.68570  0.82460  Biso   1.000  C
  H175     1.0000 0.58410  0.67190  0.80860  Biso   1.000  H
  H176     1.0000 0.59590  0.70310  0.84850  Biso   1.000  H
  H177     1.0000 0.62440  0.70450  0.80500  Biso   1.000  H
  C126     1.0000 0.68970  0.66870  0.87780  Biso   1.000  C
  H178     1.0000 0.70870  0.64600  0.88950  Biso   1.000  H
  H179     1.0000 0.70640  0.68750  0.85820  Biso   1.000  H
  H180     1.0000 0.67790  0.68610  0.90170  Biso   1.000  H
  Si18     1.0000 0.64424  0.64314  0.84709  Biso   1.000  Si
  N19      1.0000 0.84120  0.58220  0.27210  Biso   1.000  N
  C127     1.0000 0.80160  0.56360  0.26920  Biso   1.000  C
  H181     1.0000 0.79090  0.54730  0.29320  Biso   1.000  H
  C128     1.0000 0.77680  0.56760  0.23310  Biso   1.000  C
  H182     1.0000 0.74910  0.55400  0.23200  Biso   1.000  H
  C129     1.0000 0.79160  0.59150  0.19780  Biso   1.000  C
  H183     1.0000 0.77410  0.59430  0.17250  Biso   1.000  H
  C130     1.0000 0.83220  0.61120  0.19940  Biso   1.000  C
  C131     1.0000 0.85540  0.60510  0.23810  Biso   1.000  C
  H184     1.0000 0.88320  0.61820  0.24030  Biso   1.000  H
  C132     1.0000 0.89210  0.68570  0.17540  Biso   1.000  C
  H185     1.0000 0.91590  0.67190  0.19140  Biso   1.000  H
  H186     1.0000 0.90410  0.70310  0.15150  Biso   1.000  H
  H187     1.0000 0.87560  0.70450  0.19500  Biso   1.000  H
  C133     1.0000 0.81030  0.66870  0.12220  Biso   1.000  C
  H188     1.0000 0.79130  0.64600  0.11050  Biso   1.000  H
  H189     1.0000 0.79360  0.68750  0.14180  Biso   1.000  H
  H190     1.0000 0.82210  0.68610  0.09830  Biso   1.000  H
  Si19     1.0000 0.85576  0.64314  0.15291  Biso   1.000  Si
  N20      1.0000 0.34120  0.08220  0.77210  Biso   1.000  N
  C134     1.0000 0.30160  0.06360  0.76920  Biso   1.000  C
  H191     1.0000 0.29090  0.04730  0.79320  Biso   1.000  H
  C135     1.0000 0.27680  0.06760  0.73310  Biso   1.000  C
  H192     1.0000 0.24910  0.05400  0.73200  Biso   1.000  H
  C136     1.0000 0.29160  0.09150  0.69780  Biso   1.000  C
  H193     1.0000 0.27410  0.09430  0.67250  Biso   1.000  H
  C137     1.0000 0.33220  0.11120  0.69940  Biso   1.000  C
  C138     1.0000 0.35540  0.10510  0.73810  Biso   1.000  C
  H194     1.0000 0.38320  0.11820  0.74030  Biso   1.000  H
  C139     1.0000 0.39210  0.18570  0.67540  Biso   1.000  C
  H195     1.0000 0.41590  0.17190  0.69140  Biso   1.000  H
  H196     1.0000 0.40410  0.20310  0.65150  Biso   1.000  H
  H197     1.0000 0.37560  0.20450  0.69500  Biso   1.000  H
  C140     1.0000 0.31030  0.16870  0.62220  Biso   1.000  C
  H198     1.0000 0.29130  0.14600  0.61050  Biso   1.000  H
  H199     1.0000 0.29360  0.18750  0.64180  Biso   1.000  H
  H200     1.0000 0.32210  0.18610  0.59830  Biso   1.000  H
  Si20     1.0000 0.35576  0.14314  0.65291  Biso   1.000  Si
  N21      1.0000 0.65880  0.41780  0.77210  Biso   1.000  N
  C141     1.0000 0.69840  0.43640  0.76920  Biso   1.000  C
  H201     1.0000 0.70910  0.45270  0.79320  Biso   1.000  H
  C142     1.0000 0.72320  0.43240  0.73310  Biso   1.000  C
  H202     1.0000 0.75090  0.44600  0.73200  Biso   1.000  H
  C143     1.0000 0.70840  0.40850  0.69780  Biso   1.000  C
  H203     1.0000 0.72590  0.40570  0.67250  Biso   1.000  H
  C144     1.0000 0.66780  0.38880  0.69940  Biso   1.000  C
  C145     1.0000 0.64460  0.39490  0.73810  Biso   1.000  C
  H204     1.0000 0.61680  0.38180  0.74030  Biso   1.000  H
  C146     1.0000 0.60790  0.31430  0.67540  Biso   1.000  C
  H205     1.0000 0.58410  0.32810  0.69140  Biso   1.000  H
  H206     1.0000 0.59590  0.29690  0.65150  Biso   1.000  H
  H207     1.0000 0.62440  0.29550  0.69500  Biso   1.000  H
  C147     1.0000 0.68970  0.33130  0.62220  Biso   1.000  C
  H208     1.0000 0.70870  0.35400  0.61050  Biso   1.000  H
  H209     1.0000 0.70640  0.31250  0.64180  Biso   1.000  H
  H210     1.0000 0.67790  0.31390  0.59830  Biso   1.000  H
  Si21     1.0000 0.64424  0.35686  0.65291  Biso   1.000  Si
  N22      1.0000 0.15880  0.91780  0.27210  Biso   1.000  N
  C148     1.0000 0.19840  0.93640  0.26920  Biso   1.000  C
  H211     1.0000 0.20910  0.95270  0.29320  Biso   1.000  H
  C149     1.0000 0.22320  0.93240  0.23310  Biso   1.000  C
  H212     1.0000 0.25090  0.94600  0.23200  Biso   1.000  H
  C150     1.0000 0.20840  0.90850  0.19780  Biso   1.000  C
  H213     1.0000 0.22590  0.90570  0.17250  Biso   1.000  H
  C151     1.0000 0.16780  0.88880  0.19940  Biso   1.000  C
  C152     1.0000 0.14460  0.89490  0.23810  Biso   1.000  C
  H214     1.0000 0.11680  0.88180  0.24030  Biso   1.000  H
  C153     1.0000 0.10790  0.81430  0.17540  Biso   1.000  C
  H215     1.0000 0.08410  0.82810  0.19140  Biso   1.000  H
  H216     1.0000 0.09590  0.79690  0.15150  Biso   1.000  H
  H217     1.0000 0.12440  0.79550  0.19500  Biso   1.000  H
  C154     1.0000 0.18970  0.83130  0.12220  Biso   1.000  C
  H218     1.0000 0.20870  0.85400  0.11050  Biso   1.000  H
  H219     1.0000 0.20640  0.81250  0.14180  Biso   1.000  H
  H220     1.0000 0.17790  0.81390  0.09830  Biso   1.000  H
  Si22     1.0000 0.14424  0.85686  0.15291  Biso   1.000  Si
  N23      1.0000 0.34120  0.91780  0.72790  Biso   1.000  N
  C155     1.0000 0.30160  0.93640  0.73080  Biso   1.000  C
  H221     1.0000 0.29090  0.95270  0.70680  Biso   1.000  H
  C156     1.0000 0.27680  0.93240  0.76690  Biso   1.000  C
  H222     1.0000 0.24910  0.94600  0.76800  Biso   1.000  H
  C157     1.0000 0.29160  0.90850  0.80220  Biso   1.000  C
  H223     1.0000 0.27410  0.90570  0.82750  Biso   1.000  H
  C158     1.0000 0.33220  0.88880  0.80060  Biso   1.000  C
  C159     1.0000 0.35540  0.89490  0.76190  Biso   1.000  C
  H224     1.0000 0.38320  0.88180  0.75970  Biso   1.000  H
  C160     1.0000 0.39210  0.81430  0.82460  Biso   1.000  C
  H225     1.0000 0.41590  0.82810  0.80860  Biso   1.000  H
  H226     1.0000 0.40410  0.79690  0.84850  Biso   1.000  H
  H227     1.0000 0.37560  0.79550  0.80500  Biso   1.000  H
  C161     1.0000 0.31030  0.83130  0.87780  Biso   1.000  C
  H228     1.0000 0.29130  0.85400  0.88950  Biso   1.000  H
  H229     1.0000 0.29360  0.81250  0.85820  Biso   1.000  H
  H230     1.0000 0.32210  0.81390  0.90170  Biso   1.000  H
  Si23     1.0000 0.35576  0.85686  0.84709  Biso   1.000  Si
  N24      1.0000 0.84120  0.41780  0.22790  Biso   1.000  N
  C162     1.0000 0.80160  0.43640  0.23080  Biso   1.000  C
  H231     1.0000 0.79090  0.45270  0.20680  Biso   1.000  H
  C163     1.0000 0.77680  0.43240  0.26690  Biso   1.000  C
  H232     1.0000 0.74910  0.44600  0.26800  Biso   1.000  H
  C164     1.0000 0.79160  0.40850  0.30220  Biso   1.000  C
  H233     1.0000 0.77410  0.40570  0.32750  Biso   1.000  H
  C165     1.0000 0.83220  0.38880  0.30060  Biso   1.000  C
  C166     1.0000 0.85540  0.39490  0.26190  Biso   1.000  C
  H234     1.0000 0.88320  0.38180  0.25970  Biso   1.000  H
  C167     1.0000 0.89210  0.31430  0.32460  Biso   1.000  C
  H235     1.0000 0.91590  0.32810  0.30860  Biso   1.000  H
  H236     1.0000 0.90410  0.29690  0.34850  Biso   1.000  H
  H237     1.0000 0.87560  0.29550  0.30500  Biso   1.000  H
  C168     1.0000 0.81030  0.33130  0.37780  Biso   1.000  C
  H238     1.0000 0.79130  0.35400  0.38950  Biso   1.000  H
  H239     1.0000 0.79360  0.31250  0.35820  Biso   1.000  H
  H240     1.0000 0.82210  0.31390  0.40170  Biso   1.000  H
  Si24     1.0000 0.85576  0.35686  0.34709  Biso   1.000  Si
  N25      1.0000 0.90880  0.47790  0.16780  Biso   1.000  N
  C169     1.0000 0.94840  0.48080  0.18640  Biso   1.000  C
  H241     1.0000 0.95910  0.45680  0.20270  Biso   1.000  H
  C170     1.0000 0.97320  0.51690  0.18240  Biso   1.000  C
  H242     1.0000 0.00090  0.51800  0.19600  Biso   1.000  H
  C171     1.0000 0.95840  0.55220  0.15850  Biso   1.000  C
  H243     1.0000 0.97590  0.57750  0.15570  Biso   1.000  H
  C172     1.0000 0.91780  0.55060  0.13880  Biso   1.000  C
  C173     1.0000 0.89460  0.51190  0.14490  Biso   1.000  C
  H244     1.0000 0.86680  0.50970  0.13180  Biso   1.000  H
  C174     1.0000 0.85790  0.57460  0.06430  Biso   1.000  C
  H245     1.0000 0.83410  0.55860  0.07810  Biso   1.000  H
  H246     1.0000 0.84590  0.59850  0.04690  Biso   1.000  H
  H247     1.0000 0.87440  0.55500  0.04550  Biso   1.000  H
  C175     1.0000 0.93970  0.62780  0.08130  Biso   1.000  C
  H248     1.0000 0.95870  0.63950  0.10400  Biso   1.000  H
  H249     1.0000 0.95640  0.60820  0.06250  Biso   1.000  H
  H250     1.0000 0.92790  0.65170  0.06390  Biso   1.000  H
  Si25     1.0000 0.89424  0.59709  0.10686  Biso   1.000  Si
  N26      1.0000 0.40880  0.97790  0.66780  Biso   1.000  N
  C176     1.0000 0.44840  0.98080  0.68640  Biso   1.000  C
  H251     1.0000 0.45910  0.95680  0.70270  Biso   1.000  H
  C177     1.0000 0.47320  0.01690  0.68240  Biso   1.000  C
  H252     1.0000 0.50090  0.01800  0.69600  Biso   1.000  H
  C178     1.0000 0.45840  0.05220  0.65850  Biso   1.000  C
  H253     1.0000 0.47590  0.07750  0.65570  Biso   1.000  H
  C179     1.0000 0.41780  0.05060  0.63880  Biso   1.000  C
  C180     1.0000 0.39460  0.01190  0.64490  Biso   1.000  C
  H254     1.0000 0.36680  0.00970  0.63180  Biso   1.000  H
  C181     1.0000 0.35790  0.07460  0.56430  Biso   1.000  C
  H255     1.0000 0.33410  0.05860  0.57810  Biso   1.000  H
  H256     1.0000 0.34590  0.09850  0.54690  Biso   1.000  H
  H257     1.0000 0.37440  0.05500  0.54550  Biso   1.000  H
  C182     1.0000 0.43970  0.12780  0.58130  Biso   1.000  C
  H258     1.0000 0.45870  0.13950  0.60400  Biso   1.000  H
  H259     1.0000 0.45640  0.10820  0.56250  Biso   1.000  H
  H260     1.0000 0.42790  0.15170  0.56390  Biso   1.000  H
  Si26     1.0000 0.39424  0.09709  0.60686  Biso   1.000  Si
  N27      1.0000 0.59120  0.52210  0.66780  Biso   1.000  N
  C183     1.0000 0.55160  0.51920  0.68640  Biso   1.000  C
  H261     1.0000 0.54090  0.54320  0.70270  Biso   1.000  H
  C184     1.0000 0.52680  0.48310  0.68240  Biso   1.000  C
  H262     1.0000 0.49910  0.48200  0.69600  Biso   1.000  H
  C185     1.0000 0.54160  0.44780  0.65850  Biso   1.000  C
  H263     1.0000 0.52410  0.42250  0.65570  Biso   1.000  H
  C186     1.0000 0.58220  0.44940  0.63880  Biso   1.000  C
  C187     1.0000 0.60540  0.48810  0.64490  Biso   1.000  C
  H264     1.0000 0.63320  0.49030  0.63180  Biso   1.000  H
  C188     1.0000 0.64210  0.42540  0.56430  Biso   1.000  C
  H265     1.0000 0.66590  0.44140  0.57810  Biso   1.000  H
  H266     1.0000 0.65410  0.40150  0.54690  Biso   1.000  H
  H267     1.0000 0.62560  0.44500  0.54550  Biso   1.000  H
  C189     1.0000 0.56030  0.37220  0.58130  Biso   1.000  C
  H268     1.0000 0.54130  0.36050  0.60400  Biso   1.000  H
  H269     1.0000 0.54360  0.39180  0.56250  Biso   1.000  H
  H270     1.0000 0.57210  0.34830  0.56390  Biso   1.000  H
  Si27     1.0000 0.60576  0.40291  0.60686  Biso   1.000  Si
  N28      1.0000 0.09120  0.02210  0.16780  Biso   1.000  N
  C190     1.0000 0.05160  0.01920  0.18640  Biso   1.000  C
  H271     1.0000 0.04090  0.04320  0.20270  Biso   1.000  H
  C191     1.0000 0.02680  0.98310  0.18240  Biso   1.000  C
  H272     1.0000 0.99910  0.98200  0.19600  Biso   1.000  H
  C192     1.0000 0.04160  0.94780  0.15850  Biso   1.000  C
  H273     1.0000 0.02410  0.92250  0.15570  Biso   1.000  H
  C193     1.0000 0.08220  0.94940  0.13880  Biso   1.000  C
  C194     1.0000 0.10540  0.98810  0.14490  Biso   1.000  C
  H274     1.0000 0.13320  0.99030  0.13180  Biso   1.000  H
  C195     1.0000 0.14210  0.92540  0.06430  Biso   1.000  C
  H275     1.0000 0.16590  0.94140  0.07810  Biso   1.000  H
  H276     1.0000 0.15410  0.90150  0.04690  Biso   1.000  H
  H277     1.0000 0.12560  0.94500  0.04550  Biso   1.000  H
  C196     1.0000 0.06030  0.87220  0.08130  Biso   1.000  C
  H278     1.0000 0.04130  0.86050  0.10400  Biso   1.000  H
  H279     1.0000 0.04360  0.89180  0.06250  Biso   1.000  H
  H280     1.0000 0.07210  0.84830  0.06390  Biso   1.000  H
  Si28     1.0000 0.10576  0.90291  0.10686  Biso   1.000  Si
  N29      1.0000 0.40880  0.02210  0.83220  Biso   1.000  N
  C197     1.0000 0.44840  0.01920  0.81360  Biso   1.000  C
  H281     1.0000 0.45910  0.04320  0.79730  Biso   1.000  H
  C198     1.0000 0.47320  0.98310  0.81760  Biso   1.000  C
  H282     1.0000 0.50090  0.98200  0.80400  Biso   1.000  H
  C199     1.0000 0.45840  0.94780  0.84150  Biso   1.000  C
  H283     1.0000 0.47590  0.92250  0.84430  Biso   1.000  H
  C200     1.0000 0.41780  0.94940  0.86120  Biso   1.000  C
  C201     1.0000 0.39460  0.98810  0.85510  Biso   1.000  C
  H284     1.0000 0.36680  0.99030  0.86820  Biso   1.000  H
  C202     1.0000 0.35790  0.92540  0.93570  Biso   1.000  C
  H285     1.0000 0.33410  0.94140  0.92190  Biso   1.000  H
  H286     1.0000 0.34590  0.90150  0.95310  Biso   1.000  H
  H287     1.0000 0.37440  0.94500  0.95450  Biso   1.000  H
  C203     1.0000 0.43970  0.87220  0.91870  Biso   1.000  C
  H288     1.0000 0.45870  0.86050  0.89600  Biso   1.000  H
  H289     1.0000 0.45640  0.89180  0.93750  Biso   1.000  H
  H290     1.0000 0.42790  0.84830  0.93610  Biso   1.000  H
  Si29     1.0000 0.39424  0.90291  0.89314  Biso   1.000  Si
  N30      1.0000 0.90880  0.52210  0.33220  Biso   1.000  N
  C204     1.0000 0.94840  0.51920  0.31360  Biso   1.000  C
  H291     1.0000 0.95910  0.54320  0.29730  Biso   1.000  H
  C205     1.0000 0.97320  0.48310  0.31760  Biso   1.000  C
  H292     1.0000 0.00090  0.48200  0.30400  Biso   1.000  H
  C206     1.0000 0.95840  0.44780  0.34150  Biso   1.000  C
  H293     1.0000 0.97590  0.42250  0.34430  Biso   1.000  H
  C207     1.0000 0.91780  0.44940  0.36120  Biso   1.000  C
  C208     1.0000 0.89460  0.48810  0.35510  Biso   1.000  C
  H294     1.0000 0.86680  0.49030  0.36820  Biso   1.000  H
  C209     1.0000 0.85790  0.42540  0.43570  Biso   1.000  C
  H295     1.0000 0.83410  0.44140  0.42190  Biso   1.000  H
  H296     1.0000 0.84590  0.40150  0.45310  Biso   1.000  H
  H297     1.0000 0.87440  0.44500  0.45450  Biso   1.000  H
  C210     1.0000 0.93970  0.37220  0.41870  Biso   1.000  C
  H298     1.0000 0.95870  0.36050  0.39600  Biso   1.000  H
  H299     1.0000 0.95640  0.39180  0.43750  Biso   1.000  H
  H300     1.0000 0.92790  0.34830  0.43610  Biso   1.000  H
  Si30     1.0000 0.89424  0.40291  0.39314  Biso   1.000  Si
  N31      1.0000 0.09120  0.97790  0.33220  Biso   1.000  N
  C211     1.0000 0.05160  0.98080  0.31360  Biso   1.000  C
  H301     1.0000 0.04090  0.95680  0.29730  Biso   1.000  H
  C212     1.0000 0.02680  0.01690  0.31760  Biso   1.000  C
  H302     1.0000 0.99910  0.01800  0.30400  Biso   1.000  H
  C213     1.0000 0.04160  0.05220  0.34150  Biso   1.000  C
  H303     1.0000 0.02410  0.07750  0.34430  Biso   1.000  H
  C214     1.0000 0.08220  0.05060  0.36120  Biso   1.000  C
  C215     1.0000 0.10540  0.01190  0.35510  Biso   1.000  C
  H304     1.0000 0.13320  0.00970  0.36820  Biso   1.000  H
  C216     1.0000 0.14210  0.07460  0.43570  Biso   1.000  C
  H305     1.0000 0.16590  0.05860  0.42190  Biso   1.000  H
  H306     1.0000 0.15410  0.09850  0.45310  Biso   1.000  H
  H307     1.0000 0.12560  0.05500  0.45450  Biso   1.000  H
  C217     1.0000 0.06030  0.12780  0.41870  Biso   1.000  C
  H308     1.0000 0.04130  0.13950  0.39600  Biso   1.000  H
  H309     1.0000 0.04360  0.10820  0.43750  Biso   1.000  H
  H310     1.0000 0.07210  0.15170  0.43610  Biso   1.000  H
  Si31     1.0000 0.10576  0.09709  0.39314  Biso   1.000  Si
  N32      1.0000 0.59120  0.47790  0.83220  Biso   1.000  N
  C218     1.0000 0.55160  0.48080  0.81360  Biso   1.000  C
  H311     1.0000 0.54090  0.45680  0.79730  Biso   1.000  H
  C219     1.0000 0.52680  0.51690  0.81760  Biso   1.000  C
  H312     1.0000 0.49910  0.51800  0.80400  Biso   1.000  H
  C220     1.0000 0.54160  0.55220  0.84150  Biso   1.000  C
  H313     1.0000 0.52410  0.57750  0.84430  Biso   1.000  H
  C221     1.0000 0.58220  0.55060  0.86120  Biso   1.000  C
  C222     1.0000 0.60540  0.51190  0.85510  Biso   1.000  C
  H314     1.0000 0.63320  0.50970  0.86820  Biso   1.000  H
  C223     1.0000 0.64210  0.57460  0.93570  Biso   1.000  C
  H315     1.0000 0.66590  0.55860  0.92190  Biso   1.000  H
  H316     1.0000 0.65410  0.59850  0.95310  Biso   1.000  H
  H317     1.0000 0.62560  0.55500  0.95450  Biso   1.000  H
  C224     1.0000 0.56030  0.62780  0.91870  Biso   1.000  C
  H318     1.0000 0.54130  0.63950  0.89600  Biso   1.000  H
  H319     1.0000 0.54360  0.60820  0.93750  Biso   1.000  H
  H320     1.0000 0.57210  0.65170  0.93610  Biso   1.000  H
  Si32     1.0000 0.60576  0.59709  0.89314  Biso   1.000  Si
  N33      1.0000 0.97790  0.33220  0.09120  Biso   1.000  N
  C225     1.0000 0.98080  0.31360  0.05160  Biso   1.000  C
  H321     1.0000 0.95680  0.29730  0.04090  Biso   1.000  H
  C226     1.0000 0.01690  0.31760  0.02680  Biso   1.000  C
  H322     1.0000 0.01800  0.30400  0.99910  Biso   1.000  H
  C227     1.0000 0.05220  0.34150  0.04160  Biso   1.000  C
  H323     1.0000 0.07750  0.34430  0.02410  Biso   1.000  H
  C228     1.0000 0.05060  0.36120  0.08220  Biso   1.000  C
  C229     1.0000 0.01190  0.35510  0.10540  Biso   1.000  C
  H324     1.0000 0.00970  0.36820  0.13320  Biso   1.000  H
  C230     1.0000 0.07460  0.43570  0.14210  Biso   1.000  C
  H325     1.0000 0.05860  0.42190  0.16590  Biso   1.000  H
  H326     1.0000 0.09850  0.45310  0.15410  Biso   1.000  H
  H327     1.0000 0.05500  0.45450  0.12560  Biso   1.000  H
  C231     1.0000 0.12780  0.41870  0.06030  Biso   1.000  C
  H328     1.0000 0.13950  0.39600  0.04130  Biso   1.000  H
  H329     1.0000 0.10820  0.43750  0.04360  Biso   1.000  H
  H330     1.0000 0.15170  0.43610  0.07210  Biso   1.000  H
  Si33     1.0000 0.09709  0.39314  0.10576  Biso   1.000  Si
  N34      1.0000 0.47790  0.83220  0.59120  Biso   1.000  N
  C232     1.0000 0.48080  0.81360  0.55160  Biso   1.000  C
  H331     1.0000 0.45680  0.79730  0.54090  Biso   1.000  H
  C233     1.0000 0.51690  0.81760  0.52680  Biso   1.000  C
  H332     1.0000 0.51800  0.80400  0.49910  Biso   1.000  H
  C234     1.0000 0.55220  0.84150  0.54160  Biso   1.000  C
  H333     1.0000 0.57750  0.84430  0.52410  Biso   1.000  H
  C235     1.0000 0.55060  0.86120  0.58220  Biso   1.000  C
  C236     1.0000 0.51190  0.85510  0.60540  Biso   1.000  C
  H334     1.0000 0.50970  0.86820  0.63320  Biso   1.000  H
  C237     1.0000 0.57460  0.93570  0.64210  Biso   1.000  C
  H335     1.0000 0.55860  0.92190  0.66590  Biso   1.000  H
  H336     1.0000 0.59850  0.95310  0.65410  Biso   1.000  H
  H337     1.0000 0.55500  0.95450  0.62560  Biso   1.000  H
  C238     1.0000 0.62780  0.91870  0.56030  Biso   1.000  C
  H338     1.0000 0.63950  0.89600  0.54130  Biso   1.000  H
  H339     1.0000 0.60820  0.93750  0.54360  Biso   1.000  H
  H340     1.0000 0.65170  0.93610  0.57210  Biso   1.000  H
  Si34     1.0000 0.59709  0.89314  0.60576  Biso   1.000  Si
  N35      1.0000 0.02210  0.83220  0.40880  Biso   1.000  N
  C239     1.0000 0.01920  0.81360  0.44840  Biso   1.000  C
  H341     1.0000 0.04320  0.79730  0.45910  Biso   1.000  H
  C240     1.0000 0.98310  0.81760  0.47320  Biso   1.000  C
  H342     1.0000 0.98200  0.80400  0.50090  Biso   1.000  H
  C241     1.0000 0.94780  0.84150  0.45840  Biso   1.000  C
  H343     1.0000 0.92250  0.84430  0.47590  Biso   1.000  H
  C242     1.0000 0.94940  0.86120  0.41780  Biso   1.000  C
  C243     1.0000 0.98810  0.85510  0.39460  Biso   1.000  C
  H344     1.0000 0.99030  0.86820  0.36680  Biso   1.000  H
  C244     1.0000 0.92540  0.93570  0.35790  Biso   1.000  C
  H345     1.0000 0.94140  0.92190  0.33410  Biso   1.000  H
  H346     1.0000 0.90150  0.95310  0.34590  Biso   1.000  H
  H347     1.0000 0.94500  0.95450  0.37440  Biso   1.000  H
  C245     1.0000 0.87220  0.91870  0.43970  Biso   1.000  C
  H348     1.0000 0.86050  0.89600  0.45870  Biso   1.000  H
  H349     1.0000 0.89180  0.93750  0.45640  Biso   1.000  H
  H350     1.0000 0.84830  0.93610  0.42790  Biso   1.000  H
  Si35     1.0000 0.90291  0.89314  0.39424  Biso   1.000  Si
  N36      1.0000 0.52210  0.33220  0.90880  Biso   1.000  N
  C246     1.0000 0.51920  0.31360  0.94840  Biso   1.000  C
  H351     1.0000 0.54320  0.29730  0.95910  Biso   1.000  H
  C247     1.0000 0.48310  0.31760  0.97320  Biso   1.000  C
  H352     1.0000 0.48200  0.30400  0.00090  Biso   1.000  H
  C248     1.0000 0.44780  0.34150  0.95840  Biso   1.000  C
  H353     1.0000 0.42250  0.34430  0.97590  Biso   1.000  H
  C249     1.0000 0.44940  0.36120  0.91780  Biso   1.000  C
  C250     1.0000 0.48810  0.35510  0.89460  Biso   1.000  C
  H354     1.0000 0.49030  0.36820  0.86680  Biso   1.000  H
  C251     1.0000 0.42540  0.43570  0.85790  Biso   1.000  C
  H355     1.0000 0.44140  0.42190  0.83410  Biso   1.000  H
  H356     1.0000 0.40150  0.45310  0.84590  Biso   1.000  H
  H357     1.0000 0.44500  0.45450  0.87440  Biso   1.000  H
  C252     1.0000 0.37220  0.41870  0.93970  Biso   1.000  C
  H358     1.0000 0.36050  0.39600  0.95870  Biso   1.000  H
  H359     1.0000 0.39180  0.43750  0.95640  Biso   1.000  H
  H360     1.0000 0.34830  0.43610  0.92790  Biso   1.000  H
  Si36     1.0000 0.40291  0.39314  0.89424  Biso   1.000  Si
  N37      1.0000 0.52210  0.66780  0.59120  Biso   1.000  N
  C253     1.0000 0.51920  0.68640  0.55160  Biso   1.000  C
  H361     1.0000 0.54320  0.70270  0.54090  Biso   1.000  H
  C254     1.0000 0.48310  0.68240  0.52680  Biso   1.000  C
  H362     1.0000 0.48200  0.69600  0.49910  Biso   1.000  H
  C255     1.0000 0.44780  0.65850  0.54160  Biso   1.000  C
  H363     1.0000 0.42250  0.65570  0.52410  Biso   1.000  H
  C256     1.0000 0.44940  0.63880  0.58220  Biso   1.000  C
  C257     1.0000 0.48810  0.64490  0.60540  Biso   1.000  C
  H364     1.0000 0.49030  0.63180  0.63320  Biso   1.000  H
  C258     1.0000 0.42540  0.56430  0.64210  Biso   1.000  C
  H365     1.0000 0.44140  0.57810  0.66590  Biso   1.000  H
  H366     1.0000 0.40150  0.54690  0.65410  Biso   1.000  H
  H367     1.0000 0.44500  0.54550  0.62560  Biso   1.000  H
  C259     1.0000 0.37220  0.58130  0.56030  Biso   1.000  C
  H368     1.0000 0.36050  0.60400  0.54130  Biso   1.000  H
  H369     1.0000 0.39180  0.56250  0.54360  Biso   1.000  H
  H370     1.0000 0.34830  0.56390  0.57210  Biso   1.000  H
  Si37     1.0000 0.40291  0.60686  0.60576  Biso   1.000  Si
  N38      1.0000 0.02210  0.16780  0.09120  Biso   1.000  N
  C260     1.0000 0.01920  0.18640  0.05160  Biso   1.000  C
  H371     1.0000 0.04320  0.20270  0.04090  Biso   1.000  H
  C261     1.0000 0.98310  0.18240  0.02680  Biso   1.000  C
  H372     1.0000 0.98200  0.19600  0.99910  Biso   1.000  H
  C262     1.0000 0.94780  0.15850  0.04160  Biso   1.000  C
  H373     1.0000 0.92250  0.15570  0.02410  Biso   1.000  H
  C263     1.0000 0.94940  0.13880  0.08220  Biso   1.000  C
  C264     1.0000 0.98810  0.14490  0.10540  Biso   1.000  C
  H374     1.0000 0.99030  0.13180  0.13320  Biso   1.000  H
  C265     1.0000 0.92540  0.06430  0.14210  Biso   1.000  C
  H375     1.0000 0.94140  0.07810  0.16590  Biso   1.000  H
  H376     1.0000 0.90150  0.04690  0.15410  Biso   1.000  H
  H377     1.0000 0.94500  0.04550  0.12560  Biso   1.000  H
  C266     1.0000 0.87220  0.08130  0.06030  Biso   1.000  C
  H378     1.0000 0.86050  0.10400  0.04130  Biso   1.000  H
  H379     1.0000 0.89180  0.06250  0.04360  Biso   1.000  H
  H380     1.0000 0.84830  0.06390  0.07210  Biso   1.000  H
  Si38     1.0000 0.90291  0.10686  0.10576  Biso   1.000  Si
  N39      1.0000 0.47790  0.16780  0.90880  Biso   1.000  N
  C267     1.0000 0.48080  0.18640  0.94840  Biso   1.000  C
  H381     1.0000 0.45680  0.20270  0.95910  Biso   1.000  H
  C268     1.0000 0.51690  0.18240  0.97320  Biso   1.000  C
  H382     1.0000 0.51800  0.19600  0.00090  Biso   1.000  H
  C269     1.0000 0.55220  0.15850  0.95840  Biso   1.000  C
  H383     1.0000 0.57750  0.15570  0.97590  Biso   1.000  H
  C270     1.0000 0.55060  0.13880  0.91780  Biso   1.000  C
  C271     1.0000 0.51190  0.14490  0.89460  Biso   1.000  C
  H384     1.0000 0.50970  0.13180  0.86680  Biso   1.000  H
  C272     1.0000 0.57460  0.06430  0.85790  Biso   1.000  C
  H385     1.0000 0.55860  0.07810  0.83410  Biso   1.000  H
  H386     1.0000 0.59850  0.04690  0.84590  Biso   1.000  H
  H387     1.0000 0.55500  0.04550  0.87440  Biso   1.000  H
  C273     1.0000 0.62780  0.08130  0.93970  Biso   1.000  C
  H388     1.0000 0.63950  0.10400  0.95870  Biso   1.000  H
  H389     1.0000 0.60820  0.06250  0.95640  Biso   1.000  H
  H390     1.0000 0.65170  0.06390  0.92790  Biso   1.000  H
  Si39     1.0000 0.59709  0.10686  0.89424  Biso   1.000  Si
  N40      1.0000 0.97790  0.66780  0.40880  Biso   1.000  N
  C274     1.0000 0.98080  0.68640  0.44840  Biso   1.000  C
  H391     1.0000 0.95680  0.70270  0.45910  Biso   1.000  H
  C275     1.0000 0.01690  0.68240  0.47320  Biso   1.000  C
  H392     1.0000 0.01800  0.69600  0.50090  Biso   1.000  H
  C276     1.0000 0.05220  0.65850  0.45840  Biso   1.000  C
  H393     1.0000 0.07750  0.65570  0.47590  Biso   1.000  H
  C277     1.0000 0.05060  0.63880  0.41780  Biso   1.000  C
  C278     1.0000 0.01190  0.64490  0.39460  Biso   1.000  C
  H394     1.0000 0.00970  0.63180  0.36680  Biso   1.000  H
  C279     1.0000 0.07460  0.56430  0.35790  Biso   1.000  C
  H395     1.0000 0.05860  0.57810  0.33410  Biso   1.000  H
  H396     1.0000 0.09850  0.54690  0.34590  Biso   1.000  H
  H397     1.0000 0.05500  0.54550  0.37440  Biso   1.000  H
  C280     1.0000 0.12780  0.58130  0.43970  Biso   1.000  C
  H398     1.0000 0.13950  0.60400  0.45870  Biso   1.000  H
  H399     1.0000 0.10820  0.56250  0.45640  Biso   1.000  H
  H400     1.0000 0.15170  0.56390  0.42790  Biso   1.000  H
  Si40     1.0000 0.09709  0.60686  0.39424  Biso   1.000  Si
  N41      1.0000 0.83220  0.40880  0.02210  Biso   1.000  N
  C281     1.0000 0.81360  0.44840  0.01920  Biso   1.000  C
  H401     1.0000 0.79730  0.45910  0.04320  Biso   1.000  H
  C282     1.0000 0.81760  0.47320  0.98310  Biso   1.000  C
  H402     1.0000 0.80400  0.50090  0.98200  Biso   1.000  H
  C283     1.0000 0.84150  0.45840  0.94780  Biso   1.000  C
  H403     1.0000 0.84430  0.47590  0.92250  Biso   1.000  H
  C284     1.0000 0.86120  0.41780  0.94940  Biso   1.000  C
  C285     1.0000 0.85510  0.39460  0.98810  Biso   1.000  C
  H404     1.0000 0.86820  0.36680  0.99030  Biso   1.000  H
  C286     1.0000 0.93570  0.35790  0.92540  Biso   1.000  C
  H405     1.0000 0.92190  0.33410  0.94140  Biso   1.000  H
  H406     1.0000 0.95310  0.34590  0.90150  Biso   1.000  H
  H407     1.0000 0.95450  0.37440  0.94500  Biso   1.000  H
  C287     1.0000 0.91870  0.43970  0.87220  Biso   1.000  C
  H408     1.0000 0.89600  0.45870  0.86050  Biso   1.000  H
  H409     1.0000 0.93750  0.45640  0.89180  Biso   1.000  H
  H410     1.0000 0.93610  0.42790  0.84830  Biso   1.000  H
  Si41     1.0000 0.89314  0.39424  0.90291  Biso   1.000  Si
  N42      1.0000 0.33220  0.90880  0.52210  Biso   1.000  N
  C288     1.0000 0.31360  0.94840  0.51920  Biso   1.000  C
  H411     1.0000 0.29730  0.95910  0.54320  Biso   1.000  H
  C289     1.0000 0.31760  0.97320  0.48310  Biso   1.000  C
  H412     1.0000 0.30400  0.00090  0.48200  Biso   1.000  H
  C290     1.0000 0.34150  0.95840  0.44780  Biso   1.000  C
  H413     1.0000 0.34430  0.97590  0.42250  Biso   1.000  H
  C291     1.0000 0.36120  0.91780  0.44940  Biso   1.000  C
  C292     1.0000 0.35510  0.89460  0.48810  Biso   1.000  C
  H414     1.0000 0.36820  0.86680  0.49030  Biso   1.000  H
  C293     1.0000 0.43570  0.85790  0.42540  Biso   1.000  C
  H415     1.0000 0.42190  0.83410  0.44140  Biso   1.000  H
  H416     1.0000 0.45310  0.84590  0.40150  Biso   1.000  H
  H417     1.0000 0.45450  0.87440  0.44500  Biso   1.000  H
  C294     1.0000 0.41870  0.93970  0.37220  Biso   1.000  C
  H418     1.0000 0.39600  0.95870  0.36050  Biso   1.000  H
  H419     1.0000 0.43750  0.95640  0.39180  Biso   1.000  H
  H420     1.0000 0.43610  0.92790  0.34830  Biso   1.000  H
  Si42     1.0000 0.39314  0.89424  0.40291  Biso   1.000  Si
  N43      1.0000 0.33220  0.09120  0.97790  Biso   1.000  N
  C295     1.0000 0.31360  0.05160  0.98080  Biso   1.000  C
  H421     1.0000 0.29730  0.04090  0.95680  Biso   1.000  H
  C296     1.0000 0.31760  0.02680  0.01690  Biso   1.000  C
  H422     1.0000 0.30400  0.99910  0.01800  Biso   1.000  H
  C297     1.0000 0.34150  0.04160  0.05220  Biso   1.000  C
  H423     1.0000 0.34430  0.02410  0.07750  Biso   1.000  H
  C298     1.0000 0.36120  0.08220  0.05060  Biso   1.000  C
  C299     1.0000 0.35510  0.10540  0.01190  Biso   1.000  C
  H424     1.0000 0.36820  0.13320  0.00970  Biso   1.000  H
  C300     1.0000 0.43570  0.14210  0.07460  Biso   1.000  C
  H425     1.0000 0.42190  0.16590  0.05860  Biso   1.000  H
  H426     1.0000 0.45310  0.15410  0.09850  Biso   1.000  H
  H427     1.0000 0.45450  0.12560  0.05500  Biso   1.000  H
  C301     1.0000 0.41870  0.06030  0.12780  Biso   1.000  C
  H428     1.0000 0.39600  0.04130  0.13950  Biso   1.000  H
  H429     1.0000 0.43750  0.04360  0.10820  Biso   1.000  H
  H430     1.0000 0.43610  0.07210  0.15170  Biso   1.000  H
  Si43     1.0000 0.39314  0.10576  0.09709  Biso   1.000  Si
  N44      1.0000 0.83220  0.59120  0.47790  Biso   1.000  N
  C302     1.0000 0.81360  0.55160  0.48080  Biso   1.000  C
  H431     1.0000 0.79730  0.54090  0.45680  Biso   1.000  H
  C303     1.0000 0.81760  0.52680  0.51690  Biso   1.000  C
  H432     1.0000 0.80400  0.49910  0.51800  Biso   1.000  H
  C304     1.0000 0.84150  0.54160  0.55220  Biso   1.000  C
  H433     1.0000 0.84430  0.52410  0.57750  Biso   1.000  H
  C305     1.0000 0.86120  0.58220  0.55060  Biso   1.000  C
  C306     1.0000 0.85510  0.60540  0.51190  Biso   1.000  C
  H434     1.0000 0.86820  0.63320  0.50970  Biso   1.000  H
  C307     1.0000 0.93570  0.64210  0.57460  Biso   1.000  C
  H435     1.0000 0.92190  0.66590  0.55860  Biso   1.000  H
  H436     1.0000 0.95310  0.65410  0.59850  Biso   1.000  H
  H437     1.0000 0.95450  0.62560  0.55500  Biso   1.000  H
  C308     1.0000 0.91870  0.56030  0.62780  Biso   1.000  C
  H438     1.0000 0.89600  0.54130  0.63950  Biso   1.000  H
  H439     1.0000 0.93750  0.54360  0.60820  Biso   1.000  H
  H440     1.0000 0.93610  0.57210  0.65170  Biso   1.000  H
  Si44     1.0000 0.89314  0.60576  0.59709  Biso   1.000  Si
  N45      1.0000 0.16780  0.90880  0.47790  Biso   1.000  N
  C309     1.0000 0.18640  0.94840  0.48080  Biso   1.000  C
  H441     1.0000 0.20270  0.95910  0.45680  Biso   1.000  H
  C310     1.0000 0.18240  0.97320  0.51690  Biso   1.000  C
  H442     1.0000 0.19600  0.00090  0.51800  Biso   1.000  H
  C311     1.0000 0.15850  0.95840  0.55220  Biso   1.000  C
  H443     1.0000 0.15570  0.97590  0.57750  Biso   1.000  H
  C312     1.0000 0.13880  0.91780  0.55060  Biso   1.000  C
  C313     1.0000 0.14490  0.89460  0.51190  Biso   1.000  C
  H444     1.0000 0.13180  0.86680  0.50970  Biso   1.000  H
  C314     1.0000 0.06430  0.85790  0.57460  Biso   1.000  C
  H445     1.0000 0.07810  0.83410  0.55860  Biso   1.000  H
  H446     1.0000 0.04690  0.84590  0.59850  Biso   1.000  H
  H447     1.0000 0.04550  0.87440  0.55500  Biso   1.000  H
  C315     1.0000 0.08130  0.93970  0.62780  Biso   1.000  C
  H448     1.0000 0.10400  0.95870  0.63950  Biso   1.000  H
  H449     1.0000 0.06250  0.95640  0.60820  Biso   1.000  H
  H450     1.0000 0.06390  0.92790  0.65170  Biso   1.000  H
  Si45     1.0000 0.10686  0.89424  0.59709  Biso   1.000  Si
  N46      1.0000 0.66780  0.40880  0.97790  Biso   1.000  N
  C316     1.0000 0.68640  0.44840  0.98080  Biso   1.000  C
  H451     1.0000 0.70270  0.45910  0.95680  Biso   1.000  H
  C317     1.0000 0.68240  0.47320  0.01690  Biso   1.000  C
  H452     1.0000 0.69600  0.50090  0.01800  Biso   1.000  H
  C318     1.0000 0.65850  0.45840  0.05220  Biso   1.000  C
  H453     1.0000 0.65570  0.47590  0.07750  Biso   1.000  H
  C319     1.0000 0.63880  0.41780  0.05060  Biso   1.000  C
  C320     1.0000 0.64490  0.39460  0.01190  Biso   1.000  C
  H454     1.0000 0.63180  0.36680  0.00970  Biso   1.000  H
  C321     1.0000 0.56430  0.35790  0.07460  Biso   1.000  C
  H455     1.0000 0.57810  0.33410  0.05860  Biso   1.000  H
  H456     1.0000 0.54690  0.34590  0.09850  Biso   1.000  H
  H457     1.0000 0.54550  0.37440  0.05500  Biso   1.000  H
  C322     1.0000 0.58130  0.43970  0.12780  Biso   1.000  C
  H458     1.0000 0.60400  0.45870  0.13950  Biso   1.000  H
  H459     1.0000 0.56250  0.45640  0.10820  Biso   1.000  H
  H460     1.0000 0.56390  0.42790  0.15170  Biso   1.000  H
  Si46     1.0000 0.60686  0.39424  0.09709  Biso   1.000  Si
  N47      1.0000 0.66780  0.59120  0.52210  Biso   1.000  N
  C323     1.0000 0.68640  0.55160  0.51920  Biso   1.000  C
  H461     1.0000 0.70270  0.54090  0.54320  Biso   1.000  H
  C324     1.0000 0.68240  0.52680  0.48310  Biso   1.000  C
  H462     1.0000 0.69600  0.49910  0.48200  Biso   1.000  H
  C325     1.0000 0.65850  0.54160  0.44780  Biso   1.000  C
  H463     1.0000 0.65570  0.52410  0.42250  Biso   1.000  H
  C326     1.0000 0.63880  0.58220  0.44940  Biso   1.000  C
  C327     1.0000 0.64490  0.60540  0.48810  Biso   1.000  C
  H464     1.0000 0.63180  0.63320  0.49030  Biso   1.000  H
  C328     1.0000 0.56430  0.64210  0.42540  Biso   1.000  C
  H465     1.0000 0.57810  0.66590  0.44140  Biso   1.000  H
  H466     1.0000 0.54690  0.65410  0.40150  Biso   1.000  H
  H467     1.0000 0.54550  0.62560  0.44500  Biso   1.000  H
  C329     1.0000 0.58130  0.56030  0.37220  Biso   1.000  C
  H468     1.0000 0.60400  0.54130  0.36050  Biso   1.000  H
  H469     1.0000 0.56250  0.54360  0.39180  Biso   1.000  H
  H470     1.0000 0.56390  0.57210  0.34830  Biso   1.000  H
  Si47     1.0000 0.60686  0.60576  0.40291  Biso   1.000  Si
  N48      1.0000 0.16780  0.09120  0.02210  Biso   1.000  N
  C330     1.0000 0.18640  0.05160  0.01920  Biso   1.000  C
  H471     1.0000 0.20270  0.04090  0.04320  Biso   1.000  H
  C331     1.0000 0.18240  0.02680  0.98310  Biso   1.000  C
  H472     1.0000 0.19600  0.99910  0.98200  Biso   1.000  H
  C332     1.0000 0.15850  0.04160  0.94780  Biso   1.000  C
  H473     1.0000 0.15570  0.02410  0.92250  Biso   1.000  H
  C333     1.0000 0.13880  0.08220  0.94940  Biso   1.000  C
  C334     1.0000 0.14490  0.10540  0.98810  Biso   1.000  C
  H474     1.0000 0.13180  0.13320  0.99030  Biso   1.000  H
  C335     1.0000 0.06430  0.14210  0.92540  Biso   1.000  C
  H475     1.0000 0.07810  0.16590  0.94140  Biso   1.000  H
  H476     1.0000 0.04690  0.15410  0.90150  Biso   1.000  H
  H477     1.0000 0.04550  0.12560  0.94500  Biso   1.000  H
  C336     1.0000 0.08130  0.06030  0.87220  Biso   1.000  C
  H478     1.0000 0.10400  0.04130  0.86050  Biso   1.000  H
  H479     1.0000 0.06250  0.04360  0.89180  Biso   1.000  H
  H480     1.0000 0.06390  0.07210  0.84830  Biso   1.000  H
  Si48     1.0000 0.10686  0.10576  0.90291  Biso   1.000  Si
  Zn1      1.0000 0.17146  0.12500  0.07854  Biso   1.000  Zn
  Zn2      1.0000 0.67146  0.62500  0.57854  Biso   1.000  Zn
  Zn3      1.0000 0.32854  0.87500  0.57854  Biso   1.000  Zn
  Zn4      1.0000 0.82854  0.62500  0.42146  Biso   1.000  Zn
  Zn5      1.0000 0.67146  0.37500  0.92146  Biso   1.000  Zn
  Zn6      1.0000 0.07854  0.17146  0.12500  Biso   1.000  Zn
  Zn7      1.0000 0.57854  0.67146  0.62500  Biso   1.000  Zn
  Zn8      1.0000 0.57854  0.32854  0.87500  Biso   1.000  Zn
  Zn9      1.0000 0.42146  0.82854  0.62500  Biso   1.000  Zn
  Zn10     1.0000 0.92146  0.67146  0.37500  Biso   1.000  Zn
  Zn11     1.0000 0.12500  0.07854  0.17146  Biso   1.000  Zn
  Zn12     1.0000 0.62500  0.57854  0.67146  Biso   1.000  Zn
  Zn13     1.0000 0.87500  0.57854  0.32854  Biso   1.000  Zn
  Zn14     1.0000 0.62500  0.42146  0.82854  Biso   1.000  Zn
  Zn15     1.0000 0.37500  0.92146  0.67146  Biso   1.000  Zn
  Zn16     1.0000 0.87500  0.42146  0.17146  Biso   1.000  Zn
  Zn17     1.0000 0.37500  0.07854  0.82854  Biso   1.000  Zn
  Zn18     1.0000 0.12500  0.92146  0.32854  Biso   1.000  Zn
  Zn19     1.0000 0.92146  0.32854  0.12500  Biso   1.000  Zn
  Zn20     1.0000 0.07854  0.82854  0.37500  Biso   1.000  Zn
  Zn21     1.0000 0.42146  0.17146  0.87500  Biso   1.000  Zn
  Zn22     1.0000 0.82854  0.37500  0.07854  Biso   1.000  Zn
  Zn23     1.0000 0.32854  0.12500  0.92146  Biso   1.000  Zn
  Zn24     1.0000 0.17146  0.87500  0.42146  Biso   1.000  Zn
  O1       1.0000 0.16664  0.08336  0.12500  Biso   1.000  O
  H481     1.0000 0.18850  0.06150  0.12500  Biso   1.000  H
  O2       1.0000 0.66664  0.58336  0.62500  Biso   1.000  O
  H482     1.0000 0.68850  0.56150  0.62500  Biso   1.000  H
  O3       1.0000 0.33336  0.91664  0.62500  Biso   1.000  O
  H483     1.0000 0.31150  0.93850  0.62500  Biso   1.000  H
  O4       1.0000 0.83336  0.58336  0.37500  Biso   1.000  O
  H484     1.0000 0.81150  0.56150  0.37500  Biso   1.000  H
  O5       1.0000 0.66664  0.41664  0.87500  Biso   1.000  O
  H485     1.0000 0.68850  0.43850  0.87500  Biso   1.000  H
  O6       1.0000 0.12500  0.16664  0.08336  Biso   1.000  O
  H486     1.0000 0.12500  0.18850  0.06150  Biso   1.000  H
  O7       1.0000 0.62500  0.66664  0.58336  Biso   1.000  O
  H487     1.0000 0.62500  0.68850  0.56150  Biso   1.000  H
  O8       1.0000 0.62500  0.33336  0.91664  Biso   1.000  O
  H488     1.0000 0.62500  0.31150  0.93850  Biso   1.000  H
  O9       1.0000 0.37500  0.83336  0.58336  Biso   1.000  O
  H489     1.0000 0.37500  0.81150  0.56150  Biso   1.000  H
  O10      1.0000 0.87500  0.66664  0.41664  Biso   1.000  O
  H490     1.0000 0.87500  0.68850  0.43850  Biso   1.000  H
  O11      1.0000 0.08336  0.12500  0.16664  Biso   1.000  O
  H491     1.0000 0.06150  0.12500  0.18850  Biso   1.000  H
  O12      1.0000 0.58336  0.62500  0.66664  Biso   1.000  O
  H492     1.0000 0.56150  0.62500  0.68850  Biso   1.000  H
  O13      1.0000 0.91664  0.62500  0.33336  Biso   1.000  O
  H493     1.0000 0.93850  0.62500  0.31150  Biso   1.000  H
  O14      1.0000 0.58336  0.37500  0.83336  Biso   1.000  O
  H494     1.0000 0.56150  0.37500  0.81150  Biso   1.000  H
  O15      1.0000 0.41664  0.87500  0.66664  Biso   1.000  O
  H495     1.0000 0.43850  0.87500  0.68850  Biso   1.000  H
  O16      1.0000 0.83336  0.41664  0.12500  Biso   1.000  O
  H496     1.0000 0.81150  0.43850  0.12500  Biso   1.000  H
  O17      1.0000 0.33336  0.08336  0.87500  Biso   1.000  O
  H497     1.0000 0.31150  0.06150  0.87500  Biso   1.000  H
  O18      1.0000 0.16664  0.91664  0.37500  Biso   1.000  O
  H498     1.0000 0.18850  0.93850  0.37500  Biso   1.000  H
  O19      1.0000 0.91664  0.37500  0.16664  Biso   1.000  O
  H499     1.0000 0.93850  0.37500  0.18850  Biso   1.000  H
  O20      1.0000 0.08336  0.87500  0.33336  Biso   1.000  O
  H500     1.0000 0.06150  0.87500  0.31150  Biso   1.000  H
  O21      1.0000 0.41664  0.12500  0.83336  Biso   1.000  O
  H501     1.0000 0.43850  0.12500  0.81150  Biso   1.000  H
  O22      1.0000 0.87500  0.33336  0.08336  Biso   1.000  O
  H502     1.0000 0.87500  0.31150  0.06150  Biso   1.000  H
  O23      1.0000 0.37500  0.16664  0.91664  Biso   1.000  O
  H503     1.0000 0.37500  0.18850  0.93850  Biso   1.000  H
  O24      1.0000 0.12500  0.83336  0.41664  Biso   1.000  O
  H504     1.0000 0.12500  0.81150  0.43850  Biso   1.000  H
  N49      1.0000 0.77210  0.84120  0.91780  Biso   1.000  N
  C337     1.0000 0.76920  0.80160  0.93640  Biso   1.000  C
  H505     1.0000 0.79320  0.79090  0.95270  Biso   1.000  H
  C338     1.0000 0.73310  0.77680  0.93240  Biso   1.000  C
  H506     1.0000 0.73200  0.74910  0.94600  Biso   1.000  H
  C339     1.0000 0.69780  0.79160  0.90850  Biso   1.000  C
  H507     1.0000 0.67250  0.77410  0.90570  Biso   1.000  H
  C340     1.0000 0.69940  0.83220  0.88880  Biso   1.000  C
  C341     1.0000 0.73810  0.85540  0.89490  Biso   1.000  C
  H508     1.0000 0.74030  0.88320  0.88180  Biso   1.000  H
  C342     1.0000 0.67540  0.89210  0.81430  Biso   1.000  C
  H509     1.0000 0.69140  0.91590  0.82810  Biso   1.000  H
  H510     1.0000 0.65150  0.90410  0.79690  Biso   1.000  H
  H511     1.0000 0.69500  0.87560  0.79550  Biso   1.000  H
  C343     1.0000 0.62220  0.81030  0.83130  Biso   1.000  C
  H512     1.0000 0.61050  0.79130  0.85400  Biso   1.000  H
  H513     1.0000 0.64180  0.79360  0.81250  Biso   1.000  H
  H514     1.0000 0.59830  0.82210  0.81390  Biso   1.000  H
  Si49     1.0000 0.65291  0.85576  0.85686  Biso   1.000  Si
  N50      1.0000 0.27210  0.34120  0.41780  Biso   1.000  N
  C344     1.0000 0.26920  0.30160  0.43640  Biso   1.000  C
  H515     1.0000 0.29320  0.29090  0.45270  Biso   1.000  H
  C345     1.0000 0.23310  0.27680  0.43240  Biso   1.000  C
  H516     1.0000 0.23200  0.24910  0.44600  Biso   1.000  H
  C346     1.0000 0.19780  0.29160  0.40850  Biso   1.000  C
  H517     1.0000 0.17250  0.27410  0.40570  Biso   1.000  H
  C347     1.0000 0.19940  0.33220  0.38880  Biso   1.000  C
  C348     1.0000 0.23810  0.35540  0.39490  Biso   1.000  C
  H518     1.0000 0.24030  0.38320  0.38180  Biso   1.000  H
  C349     1.0000 0.17540  0.39210  0.31430  Biso   1.000  C
  H519     1.0000 0.19140  0.41590  0.32810  Biso   1.000  H
  H520     1.0000 0.15150  0.40410  0.29690  Biso   1.000  H
  H521     1.0000 0.19500  0.37560  0.29550  Biso   1.000  H
  C350     1.0000 0.12220  0.31030  0.33130  Biso   1.000  C
  H522     1.0000 0.11050  0.29130  0.35400  Biso   1.000  H
  H523     1.0000 0.14180  0.29360  0.31250  Biso   1.000  H
  H524     1.0000 0.09830  0.32210  0.31390  Biso   1.000  H
  Si50     1.0000 0.15291  0.35576  0.35686  Biso   1.000  Si
  N51      1.0000 0.72790  0.15880  0.41780  Biso   1.000  N
  C351     1.0000 0.73080  0.19840  0.43640  Biso   1.000  C
  H525     1.0000 0.70680  0.20910  0.45270  Biso   1.000  H
  C352     1.0000 0.76690  0.22320  0.43240  Biso   1.000  C
  H526     1.0000 0.76800  0.25090  0.44600  Biso   1.000  H
  C353     1.0000 0.80220  0.20840  0.40850  Biso   1.000  C
  H527     1.0000 0.82750  0.22590  0.40570  Biso   1.000  H
  C354     1.0000 0.80060  0.16780  0.38880  Biso   1.000  C
  C355     1.0000 0.76190  0.14460  0.39490  Biso   1.000  C
  H528     1.0000 0.75970  0.11680  0.38180  Biso   1.000  H
  C356     1.0000 0.82460  0.10790  0.31430  Biso   1.000  C
  H529     1.0000 0.80860  0.08410  0.32810  Biso   1.000  H
  H530     1.0000 0.84850  0.09590  0.29690  Biso   1.000  H
  H531     1.0000 0.80500  0.12440  0.29550  Biso   1.000  H
  C357     1.0000 0.87780  0.18970  0.33130  Biso   1.000  C
  H532     1.0000 0.88950  0.20870  0.35400  Biso   1.000  H
  H533     1.0000 0.85820  0.20640  0.31250  Biso   1.000  H
  H534     1.0000 0.90170  0.17790  0.31390  Biso   1.000  H
  Si51     1.0000 0.84709  0.14424  0.35686  Biso   1.000  Si
  N52      1.0000 0.22790  0.65880  0.91780  Biso   1.000  N
  C358     1.0000 0.23080  0.69840  0.93640  Biso   1.000  C
  H535     1.0000 0.20680  0.70910  0.95270  Biso   1.000  H
  C359     1.0000 0.26690  0.72320  0.93240  Biso   1.000  C
  H536     1.0000 0.26800  0.75090  0.94600  Biso   1.000  H
  C360     1.0000 0.30220  0.70840  0.90850  Biso   1.000  C
  H537     1.0000 0.32750  0.72590  0.90570  Biso   1.000  H
  C361     1.0000 0.30060  0.66780  0.88880  Biso   1.000  C
  C362     1.0000 0.26190  0.64460  0.89490  Biso   1.000  C
  H538     1.0000 0.25970  0.61680  0.88180  Biso   1.000  H
  C363     1.0000 0.32460  0.60790  0.81430  Biso   1.000  C
  H539     1.0000 0.30860  0.58410  0.82810  Biso   1.000  H
  H540     1.0000 0.34850  0.59590  0.79690  Biso   1.000  H
  H541     1.0000 0.30500  0.62440  0.79550  Biso   1.000  H
  C364     1.0000 0.37780  0.68970  0.83130  Biso   1.000  C
  H542     1.0000 0.38950  0.70870  0.85400  Biso   1.000  H
  H543     1.0000 0.35820  0.70640  0.81250  Biso   1.000  H
  H544     1.0000 0.40170  0.67790  0.81390  Biso   1.000  H
  Si52     1.0000 0.34709  0.64424  0.85686  Biso   1.000  Si
  N53      1.0000 0.22790  0.34120  0.58220  Biso   1.000  N
  C365     1.0000 0.23080  0.30160  0.56360  Biso   1.000  C
  H545     1.0000 0.20680  0.29090  0.54730  Biso   1.000  H
  C366     1.0000 0.26690  0.27680  0.56760  Biso   1.000  C
  H546     1.0000 0.26800  0.24910  0.55400  Biso   1.000  H
  C367     1.0000 0.30220  0.29160  0.59150  Biso   1.000  C
  H547     1.0000 0.32750  0.27410  0.59430  Biso   1.000  H
  C368     1.0000 0.30060  0.33220  0.61120  Biso   1.000  C
  C369     1.0000 0.26190  0.35540  0.60510  Biso   1.000  C
  H548     1.0000 0.25970  0.38320  0.61820  Biso   1.000  H
  C370     1.0000 0.32460  0.39210  0.68570  Biso   1.000  C
  H549     1.0000 0.30860  0.41590  0.67190  Biso   1.000  H
  H550     1.0000 0.34850  0.40410  0.70310  Biso   1.000  H
  H551     1.0000 0.30500  0.37560  0.70450  Biso   1.000  H
  C371     1.0000 0.37780  0.31030  0.66870  Biso   1.000  C
  H552     1.0000 0.38950  0.29130  0.64600  Biso   1.000  H
  H553     1.0000 0.35820  0.29360  0.68750  Biso   1.000  H
  H554     1.0000 0.40170  0.32210  0.68610  Biso   1.000  H
  Si53     1.0000 0.34709  0.35576  0.64314  Biso   1.000  Si
  N54      1.0000 0.72790  0.84120  0.08220  Biso   1.000  N
  C372     1.0000 0.73080  0.80160  0.06360  Biso   1.000  C
  H555     1.0000 0.70680  0.79090  0.04730  Biso   1.000  H
  C373     1.0000 0.76690  0.77680  0.06760  Biso   1.000  C
  H556     1.0000 0.76800  0.74910  0.05400  Biso   1.000  H
  C374     1.0000 0.80220  0.79160  0.09150  Biso   1.000  C
  H557     1.0000 0.82750  0.77410  0.09430  Biso   1.000  H
  C375     1.0000 0.80060  0.83220  0.11120  Biso   1.000  C
  C376     1.0000 0.76190  0.85540  0.10510  Biso   1.000  C
  H558     1.0000 0.75970  0.88320  0.11820  Biso   1.000  H
  C377     1.0000 0.82460  0.89210  0.18570  Biso   1.000  C
  H559     1.0000 0.80860  0.91590  0.17190  Biso   1.000  H
  H560     1.0000 0.84850  0.90410  0.20310  Biso   1.000  H
  H561     1.0000 0.80500  0.87560  0.20450  Biso   1.000  H
  C378     1.0000 0.87780  0.81030  0.16870  Biso   1.000  C
  H562     1.0000 0.88950  0.79130  0.14600  Biso   1.000  H
  H563     1.0000 0.85820  0.79360  0.18750  Biso   1.000  H
  H564     1.0000 0.90170  0.82210  0.18610  Biso   1.000  H
  Si54     1.0000 0.84709  0.85576  0.14314  Biso   1.000  Si
  N55      1.0000 0.27210  0.65880  0.08220  Biso   1.000  N
  C379     1.0000 0.26920  0.69840  0.06360  Biso   1.000  C
  H565     1.0000 0.29320  0.70910  0.04730  Biso   1.000  H
  C380     1.0000 0.23310  0.72320  0.06760  Biso   1.000  C
  H566     1.0000 0.23200  0.75090  0.05400  Biso   1.000  H
  C381     1.0000 0.19780  0.70840  0.09150  Biso   1.000  C
  H567     1.0000 0.17250  0.72590  0.09430  Biso   1.000  H
  C382     1.0000 0.19940  0.66780  0.11120  Biso   1.000  C
  C383     1.0000 0.23810  0.64460  0.10510  Biso   1.000  C
  H568     1.0000 0.24030  0.61680  0.11820  Biso   1.000  H
  C384     1.0000 0.17540  0.60790  0.18570  Biso   1.000  C
  H569     1.0000 0.19140  0.58410  0.17190  Biso   1.000  H
  H570     1.0000 0.15150  0.59590  0.20310  Biso   1.000  H
  H571     1.0000 0.19500  0.62440  0.20450  Biso   1.000  H
  C385     1.0000 0.12220  0.68970  0.16870  Biso   1.000  C
  H572     1.0000 0.11050  0.70870  0.14600  Biso   1.000  H
  H573     1.0000 0.14180  0.70640  0.18750  Biso   1.000  H
  H574     1.0000 0.09830  0.67790  0.18610  Biso   1.000  H
  Si55     1.0000 0.15291  0.64424  0.14314  Biso   1.000  Si
  N56      1.0000 0.77210  0.15880  0.58220  Biso   1.000  N
  C386     1.0000 0.76920  0.19840  0.56360  Biso   1.000  C
  H575     1.0000 0.79320  0.20910  0.54730  Biso   1.000  H
  C387     1.0000 0.73310  0.22320  0.56760  Biso   1.000  C
  H576     1.0000 0.73200  0.25090  0.55400  Biso   1.000  H
  C388     1.0000 0.69780  0.20840  0.59150  Biso   1.000  C
  H577     1.0000 0.67250  0.22590  0.59430  Biso   1.000  H
  C389     1.0000 0.69940  0.16780  0.61120  Biso   1.000  C
  C390     1.0000 0.73810  0.14460  0.60510  Biso   1.000  C
  H578     1.0000 0.74030  0.11680  0.61820  Biso   1.000  H
  C391     1.0000 0.67540  0.10790  0.68570  Biso   1.000  C
  H579     1.0000 0.69140  0.08410  0.67190  Biso   1.000  H
  H580     1.0000 0.65150  0.09590  0.70310  Biso   1.000  H
  H581     1.0000 0.69500  0.12440  0.70450  Biso   1.000  H
  C392     1.0000 0.62220  0.18970  0.66870  Biso   1.000  C
  H582     1.0000 0.61050  0.20870  0.64600  Biso   1.000  H
  H583     1.0000 0.64180  0.20640  0.68750  Biso   1.000  H
  H584     1.0000 0.59830  0.17790  0.68610  Biso   1.000  H
  Si56     1.0000 0.65291  0.14424  0.64314  Biso   1.000  Si
  N57      1.0000 0.91780  0.77210  0.84120  Biso   1.000  N
  C393     1.0000 0.93640  0.76920  0.80160  Biso   1.000  C
  H585     1.0000 0.95270  0.79320  0.79090  Biso   1.000  H
  C394     1.0000 0.93240  0.73310  0.77680  Biso   1.000  C
  H586     1.0000 0.94600  0.73200  0.74910  Biso   1.000  H
  C395     1.0000 0.90850  0.69780  0.79160  Biso   1.000  C
  H587     1.0000 0.90570  0.67250  0.77410  Biso   1.000  H
  C396     1.0000 0.88880  0.69940  0.83220  Biso   1.000  C
  C397     1.0000 0.89490  0.73810  0.85540  Biso   1.000  C
  H588     1.0000 0.88180  0.74030  0.88320  Biso   1.000  H
  C398     1.0000 0.81430  0.67540  0.89210  Biso   1.000  C
  H589     1.0000 0.82810  0.69140  0.91590  Biso   1.000  H
  H590     1.0000 0.79690  0.65150  0.90410  Biso   1.000  H
  H591     1.0000 0.79550  0.69500  0.87560  Biso   1.000  H
  C399     1.0000 0.83130  0.62220  0.81030  Biso   1.000  C
  H592     1.0000 0.85400  0.61050  0.79130  Biso   1.000  H
  H593     1.0000 0.81250  0.64180  0.79360  Biso   1.000  H
  H594     1.0000 0.81390  0.59830  0.82210  Biso   1.000  H
  Si57     1.0000 0.85686  0.65291  0.85576  Biso   1.000  Si
  N58      1.0000 0.41780  0.27210  0.34120  Biso   1.000  N
  C400     1.0000 0.43640  0.26920  0.30160  Biso   1.000  C
  H595     1.0000 0.45270  0.29320  0.29090  Biso   1.000  H
  C401     1.0000 0.43240  0.23310  0.27680  Biso   1.000  C
  H596     1.0000 0.44600  0.23200  0.24910  Biso   1.000  H
  C402     1.0000 0.40850  0.19780  0.29160  Biso   1.000  C
  H597     1.0000 0.40570  0.17250  0.27410  Biso   1.000  H
  C403     1.0000 0.38880  0.19940  0.33220  Biso   1.000  C
  C404     1.0000 0.39490  0.23810  0.35540  Biso   1.000  C
  H598     1.0000 0.38180  0.24030  0.38320  Biso   1.000  H
  C405     1.0000 0.31430  0.17540  0.39210  Biso   1.000  C
  H599     1.0000 0.32810  0.19140  0.41590  Biso   1.000  H
  H600     1.0000 0.29690  0.15150  0.40410  Biso   1.000  H
  H601     1.0000 0.29550  0.19500  0.37560  Biso   1.000  H
  C406     1.0000 0.33130  0.12220  0.31030  Biso   1.000  C
  H602     1.0000 0.35400  0.11050  0.29130  Biso   1.000  H
  H603     1.0000 0.31250  0.14180  0.29360  Biso   1.000  H
  H604     1.0000 0.31390  0.09830  0.32210  Biso   1.000  H
  Si58     1.0000 0.35686  0.15291  0.35576  Biso   1.000  Si
  N59      1.0000 0.41780  0.72790  0.15880  Biso   1.000  N
  C407     1.0000 0.43640  0.73080  0.19840  Biso   1.000  C
  H605     1.0000 0.45270  0.70680  0.20910  Biso   1.000  H
  C408     1.0000 0.43240  0.76690  0.22320  Biso   1.000  C
  H606     1.0000 0.44600  0.76800  0.25090  Biso   1.000  H
  C409     1.0000 0.40850  0.80220  0.20840  Biso   1.000  C
  H607     1.0000 0.40570  0.82750  0.22590  Biso   1.000  H
  C410     1.0000 0.38880  0.80060  0.16780  Biso   1.000  C
  C411     1.0000 0.39490  0.76190  0.14460  Biso   1.000  C
  H608     1.0000 0.38180  0.75970  0.11680  Biso   1.000  H
  C412     1.0000 0.31430  0.82460  0.10790  Biso   1.000  C
  H609     1.0000 0.32810  0.80860  0.08410  Biso   1.000  H
  H610     1.0000 0.29690  0.84850  0.09590  Biso   1.000  H
  H611     1.0000 0.29550  0.80500  0.12440  Biso   1.000  H
  C413     1.0000 0.33130  0.87780  0.18970  Biso   1.000  C
  H612     1.0000 0.35400  0.88950  0.20870  Biso   1.000  H
  H613     1.0000 0.31250  0.85820  0.20640  Biso   1.000  H
  H614     1.0000 0.31390  0.90170  0.17790  Biso   1.000  H
  Si59     1.0000 0.35686  0.84709  0.14424  Biso   1.000  Si
  N60      1.0000 0.91780  0.22790  0.65880  Biso   1.000  N
  C414     1.0000 0.93640  0.23080  0.69840  Biso   1.000  C
  H615     1.0000 0.95270  0.20680  0.70910  Biso   1.000  H
  C415     1.0000 0.93240  0.26690  0.72320  Biso   1.000  C
  H616     1.0000 0.94600  0.26800  0.75090  Biso   1.000  H
  C416     1.0000 0.90850  0.30220  0.70840  Biso   1.000  C
  H617     1.0000 0.90570  0.32750  0.72590  Biso   1.000  H
  C417     1.0000 0.88880  0.30060  0.66780  Biso   1.000  C
  C418     1.0000 0.89490  0.26190  0.64460  Biso   1.000  C
  H618     1.0000 0.88180  0.25970  0.61680  Biso   1.000  H
  C419     1.0000 0.81430  0.32460  0.60790  Biso   1.000  C
  H619     1.0000 0.82810  0.30860  0.58410  Biso   1.000  H
  H620     1.0000 0.79690  0.34850  0.59590  Biso   1.000  H
  H621     1.0000 0.79550  0.30500  0.62440  Biso   1.000  H
  C420     1.0000 0.83130  0.37780  0.68970  Biso   1.000  C
  H622     1.0000 0.85400  0.38950  0.70870  Biso   1.000  H
  H623     1.0000 0.81250  0.35820  0.70640  Biso   1.000  H
  H624     1.0000 0.81390  0.40170  0.67790  Biso   1.000  H
  Si60     1.0000 0.85686  0.34709  0.64424  Biso   1.000  Si
  N61      1.0000 0.58220  0.22790  0.34120  Biso   1.000  N
  C421     1.0000 0.56360  0.23080  0.30160  Biso   1.000  C
  H625     1.0000 0.54730  0.20680  0.29090  Biso   1.000  H
  C422     1.0000 0.56760  0.26690  0.27680  Biso   1.000  C
  H626     1.0000 0.55400  0.26800  0.24910  Biso   1.000  H
  C423     1.0000 0.59150  0.30220  0.29160  Biso   1.000  C
  H627     1.0000 0.59430  0.32750  0.27410  Biso   1.000  H
  C424     1.0000 0.61120  0.30060  0.33220  Biso   1.000  C
  C425     1.0000 0.60510  0.26190  0.35540  Biso   1.000  C
  H628     1.0000 0.61820  0.25970  0.38320  Biso   1.000  H
  C426     1.0000 0.68570  0.32460  0.39210  Biso   1.000  C
  H629     1.0000 0.67190  0.30860  0.41590  Biso   1.000  H
  H630     1.0000 0.70310  0.34850  0.40410  Biso   1.000  H
  H631     1.0000 0.70450  0.30500  0.37560  Biso   1.000  H
  C427     1.0000 0.66870  0.37780  0.31030  Biso   1.000  C
  H632     1.0000 0.64600  0.38950  0.29130  Biso   1.000  H
  H633     1.0000 0.68750  0.35820  0.29360  Biso   1.000  H
  H634     1.0000 0.68610  0.40170  0.32210  Biso   1.000  H
  Si61     1.0000 0.64314  0.34709  0.35576  Biso   1.000  Si
  N62      1.0000 0.08220  0.72790  0.84120  Biso   1.000  N
  C428     1.0000 0.06360  0.73080  0.80160  Biso   1.000  C
  H635     1.0000 0.04730  0.70680  0.79090  Biso   1.000  H
  C429     1.0000 0.06760  0.76690  0.77680  Biso   1.000  C
  H636     1.0000 0.05400  0.76800  0.74910  Biso   1.000  H
  C430     1.0000 0.09150  0.80220  0.79160  Biso   1.000  C
  H637     1.0000 0.09430  0.82750  0.77410  Biso   1.000  H
  C431     1.0000 0.11120  0.80060  0.83220  Biso   1.000  C
  C432     1.0000 0.10510  0.76190  0.85540  Biso   1.000  C
  H638     1.0000 0.11820  0.75970  0.88320  Biso   1.000  H
  C433     1.0000 0.18570  0.82460  0.89210  Biso   1.000  C
  H639     1.0000 0.17190  0.80860  0.91590  Biso   1.000  H
  H640     1.0000 0.20310  0.84850  0.90410  Biso   1.000  H
  H641     1.0000 0.20450  0.80500  0.87560  Biso   1.000  H
  C434     1.0000 0.16870  0.87780  0.81030  Biso   1.000  C
  H642     1.0000 0.14600  0.88950  0.79130  Biso   1.000  H
  H643     1.0000 0.18750  0.85820  0.79360  Biso   1.000  H
  H644     1.0000 0.18610  0.90170  0.82210  Biso   1.000  H
  Si62     1.0000 0.14314  0.84709  0.85576  Biso   1.000  Si
  N63      1.0000 0.08220  0.27210  0.65880  Biso   1.000  N
  C435     1.0000 0.06360  0.26920  0.69840  Biso   1.000  C
  H645     1.0000 0.04730  0.29320  0.70910  Biso   1.000  H
  C436     1.0000 0.06760  0.23310  0.72320  Biso   1.000  C
  H646     1.0000 0.05400  0.23200  0.75090  Biso   1.000  H
  C437     1.0000 0.09150  0.19780  0.70840  Biso   1.000  C
  H647     1.0000 0.09430  0.17250  0.72590  Biso   1.000  H
  C438     1.0000 0.11120  0.19940  0.66780  Biso   1.000  C
  C439     1.0000 0.10510  0.23810  0.64460  Biso   1.000  C
  H648     1.0000 0.11820  0.24030  0.61680  Biso   1.000  H
  C440     1.0000 0.18570  0.17540  0.60790  Biso   1.000  C
  H649     1.0000 0.17190  0.19140  0.58410  Biso   1.000  H
  H650     1.0000 0.20310  0.15150  0.59590  Biso   1.000  H
  H651     1.0000 0.20450  0.19500  0.62440  Biso   1.000  H
  C441     1.0000 0.16870  0.12220  0.68970  Biso   1.000  C
  H652     1.0000 0.14600  0.11050  0.70870  Biso   1.000  H
  H653     1.0000 0.18750  0.14180  0.70640  Biso   1.000  H
  H654     1.0000 0.18610  0.09830  0.67790  Biso   1.000  H
  Si63     1.0000 0.14314  0.15291  0.64424  Biso   1.000  Si
  N64      1.0000 0.58220  0.77210  0.15880  Biso   1.000  N
  C442     1.0000 0.56360  0.76920  0.19840  Biso   1.000  C
  H655     1.0000 0.54730  0.79320  0.20910  Biso   1.000  H
  C443     1.0000 0.56760  0.73310  0.22320  Biso   1.000  C
  H656     1.0000 0.55400  0.73200  0.25090  Biso   1.000  H
  C444     1.0000 0.59150  0.69780  0.20840  Biso   1.000  C
  H657     1.0000 0.59430  0.67250  0.22590  Biso   1.000  H
  C445     1.0000 0.61120  0.69940  0.16780  Biso   1.000  C
  C446     1.0000 0.60510  0.73810  0.14460  Biso   1.000  C
  H658     1.0000 0.61820  0.74030  0.11680  Biso   1.000  H
  C447     1.0000 0.68570  0.67540  0.10790  Biso   1.000  C
  H659     1.0000 0.67190  0.69140  0.08410  Biso   1.000  H
  H660     1.0000 0.70310  0.65150  0.09590  Biso   1.000  H
  H661     1.0000 0.70450  0.69500  0.12440  Biso   1.000  H
  C448     1.0000 0.66870  0.62220  0.18970  Biso   1.000  C
  H662     1.0000 0.64600  0.61050  0.20870  Biso   1.000  H
  H663     1.0000 0.68750  0.64180  0.20640  Biso   1.000  H
  H664     1.0000 0.68610  0.59830  0.17790  Biso   1.000  H
  Si64     1.0000 0.64314  0.65291  0.14424  Biso   1.000  Si
  N65      1.0000 0.84120  0.91780  0.77210  Biso   1.000  N
  C449     1.0000 0.80160  0.93640  0.76920  Biso   1.000  C
  H665     1.0000 0.79090  0.95270  0.79320  Biso   1.000  H
  C450     1.0000 0.77680  0.93240  0.73310  Biso   1.000  C
  H666     1.0000 0.74910  0.94600  0.73200  Biso   1.000  H
  C451     1.0000 0.79160  0.90850  0.69780  Biso   1.000  C
  H667     1.0000 0.77410  0.90570  0.67250  Biso   1.000  H
  C452     1.0000 0.83220  0.88880  0.69940  Biso   1.000  C
  C453     1.0000 0.85540  0.89490  0.73810  Biso   1.000  C
  H668     1.0000 0.88320  0.88180  0.74030  Biso   1.000  H
  C454     1.0000 0.89210  0.81430  0.67540  Biso   1.000  C
  H669     1.0000 0.91590  0.82810  0.69140  Biso   1.000  H
  H670     1.0000 0.90410  0.79690  0.65150  Biso   1.000  H
  H671     1.0000 0.87560  0.79550  0.69500  Biso   1.000  H
  C455     1.0000 0.81030  0.83130  0.62220  Biso   1.000  C
  H672     1.0000 0.79130  0.85400  0.61050  Biso   1.000  H
  H673     1.0000 0.79360  0.81250  0.64180  Biso   1.000  H
  H674     1.0000 0.82210  0.81390  0.59830  Biso   1.000  H
  Si65     1.0000 0.85576  0.85686  0.65291  Biso   1.000  Si
  N66      1.0000 0.34120  0.41780  0.27210  Biso   1.000  N
  C456     1.0000 0.30160  0.43640  0.26920  Biso   1.000  C
  H675     1.0000 0.29090  0.45270  0.29320  Biso   1.000  H
  C457     1.0000 0.27680  0.43240  0.23310  Biso   1.000  C
  H676     1.0000 0.24910  0.44600  0.23200  Biso   1.000  H
  C458     1.0000 0.29160  0.40850  0.19780  Biso   1.000  C
  H677     1.0000 0.27410  0.40570  0.17250  Biso   1.000  H
  C459     1.0000 0.33220  0.38880  0.19940  Biso   1.000  C
  C460     1.0000 0.35540  0.39490  0.23810  Biso   1.000  C
  H678     1.0000 0.38320  0.38180  0.24030  Biso   1.000  H
  C461     1.0000 0.39210  0.31430  0.17540  Biso   1.000  C
  H679     1.0000 0.41590  0.32810  0.19140  Biso   1.000  H
  H680     1.0000 0.40410  0.29690  0.15150  Biso   1.000  H
  H681     1.0000 0.37560  0.29550  0.19500  Biso   1.000  H
  C462     1.0000 0.31030  0.33130  0.12220  Biso   1.000  C
  H682     1.0000 0.29130  0.35400  0.11050  Biso   1.000  H
  H683     1.0000 0.29360  0.31250  0.14180  Biso   1.000  H
  H684     1.0000 0.32210  0.31390  0.09830  Biso   1.000  H
  Si66     1.0000 0.35576  0.35686  0.15291  Biso   1.000  Si
  N67      1.0000 0.15880  0.41780  0.72790  Biso   1.000  N
  C463     1.0000 0.19840  0.43640  0.73080  Biso   1.000  C
  H685     1.0000 0.20910  0.45270  0.70680  Biso   1.000  H
  C464     1.0000 0.22320  0.43240  0.76690  Biso   1.000  C
  H686     1.0000 0.25090  0.44600  0.76800  Biso   1.000  H
  C465     1.0000 0.20840  0.40850  0.80220  Biso   1.000  C
  H687     1.0000 0.22590  0.40570  0.82750  Biso   1.000  H
  C466     1.0000 0.16780  0.38880  0.80060  Biso   1.000  C
  C467     1.0000 0.14460  0.39490  0.76190  Biso   1.000  C
  H688     1.0000 0.11680  0.38180  0.75970  Biso   1.000  H
  C468     1.0000 0.10790  0.31430  0.82460  Biso   1.000  C
  H689     1.0000 0.08410  0.32810  0.80860  Biso   1.000  H
  H690     1.0000 0.09590  0.29690  0.84850  Biso   1.000  H
  H691     1.0000 0.12440  0.29550  0.80500  Biso   1.000  H
  C469     1.0000 0.18970  0.33130  0.87780  Biso   1.000  C
  H692     1.0000 0.20870  0.35400  0.88950  Biso   1.000  H
  H693     1.0000 0.20640  0.31250  0.85820  Biso   1.000  H
  H694     1.0000 0.17790  0.31390  0.90170  Biso   1.000  H
  Si67     1.0000 0.14424  0.35686  0.84709  Biso   1.000  Si
  N68      1.0000 0.65880  0.91780  0.22790  Biso   1.000  N
  C470     1.0000 0.69840  0.93640  0.23080  Biso   1.000  C
  H695     1.0000 0.70910  0.95270  0.20680  Biso   1.000  H
  C471     1.0000 0.72320  0.93240  0.26690  Biso   1.000  C
  H696     1.0000 0.75090  0.94600  0.26800  Biso   1.000  H
  C472     1.0000 0.70840  0.90850  0.30220  Biso   1.000  C
  H697     1.0000 0.72590  0.90570  0.32750  Biso   1.000  H
  C473     1.0000 0.66780  0.88880  0.30060  Biso   1.000  C
  C474     1.0000 0.64460  0.89490  0.26190  Biso   1.000  C
  H698     1.0000 0.61680  0.88180  0.25970  Biso   1.000  H
  C475     1.0000 0.60790  0.81430  0.32460  Biso   1.000  C
  H699     1.0000 0.58410  0.82810  0.30860  Biso   1.000  H
  H700     1.0000 0.59590  0.79690  0.34850  Biso   1.000  H
  H701     1.0000 0.62440  0.79550  0.30500  Biso   1.000  H
  C476     1.0000 0.68970  0.83130  0.37780  Biso   1.000  C
  H702     1.0000 0.70870  0.85400  0.38950  Biso   1.000  H
  H703     1.0000 0.70640  0.81250  0.35820  Biso   1.000  H
  H704     1.0000 0.67790  0.81390  0.40170  Biso   1.000  H
  Si68     1.0000 0.64424  0.85686  0.34709  Biso   1.000  Si
  N69      1.0000 0.34120  0.58220  0.22790  Biso   1.000  N
  C477     1.0000 0.30160  0.56360  0.23080  Biso   1.000  C
  H705     1.0000 0.29090  0.54730  0.20680  Biso   1.000  H
  C478     1.0000 0.27680  0.56760  0.26690  Biso   1.000  C
  H706     1.0000 0.24910  0.55400  0.26800  Biso   1.000  H
  C479     1.0000 0.29160  0.59150  0.30220  Biso   1.000  C
  H707     1.0000 0.27410  0.59430  0.32750  Biso   1.000  H
  C480     1.0000 0.33220  0.61120  0.30060  Biso   1.000  C
  C481     1.0000 0.35540  0.60510  0.26190  Biso   1.000  C
  H708     1.0000 0.38320  0.61820  0.25970  Biso   1.000  H
  C482     1.0000 0.39210  0.68570  0.32460  Biso   1.000  C
  H709     1.0000 0.41590  0.67190  0.30860  Biso   1.000  H
  H710     1.0000 0.40410  0.70310  0.34850  Biso   1.000  H
  H711     1.0000 0.37560  0.70450  0.30500  Biso   1.000  H
  C483     1.0000 0.31030  0.66870  0.37780  Biso   1.000  C
  H712     1.0000 0.29130  0.64600  0.38950  Biso   1.000  H
  H713     1.0000 0.29360  0.68750  0.35820  Biso   1.000  H
  H714     1.0000 0.32210  0.68610  0.40170  Biso   1.000  H
  Si69     1.0000 0.35576  0.64314  0.34709  Biso   1.000  Si
  N70      1.0000 0.84120  0.08220  0.72790  Biso   1.000  N
  C484     1.0000 0.80160  0.06360  0.73080  Biso   1.000  C
  H715     1.0000 0.79090  0.04730  0.70680  Biso   1.000  H
  C485     1.0000 0.77680  0.06760  0.76690  Biso   1.000  C
  H716     1.0000 0.74910  0.05400  0.76800  Biso   1.000  H
  C486     1.0000 0.79160  0.09150  0.80220  Biso   1.000  C
  H717     1.0000 0.77410  0.09430  0.82750  Biso   1.000  H
  C487     1.0000 0.83220  0.11120  0.80060  Biso   1.000  C
  C488     1.0000 0.85540  0.10510  0.76190  Biso   1.000  C
  H718     1.0000 0.88320  0.11820  0.75970  Biso   1.000  H
  C489     1.0000 0.89210  0.18570  0.82460  Biso   1.000  C
  H719     1.0000 0.91590  0.17190  0.80860  Biso   1.000  H
  H720     1.0000 0.90410  0.20310  0.84850  Biso   1.000  H
  H721     1.0000 0.87560  0.20450  0.80500  Biso   1.000  H
  C490     1.0000 0.81030  0.16870  0.87780  Biso   1.000  C
  H722     1.0000 0.79130  0.14600  0.88950  Biso   1.000  H
  H723     1.0000 0.79360  0.18750  0.85820  Biso   1.000  H
  H724     1.0000 0.82210  0.18610  0.90170  Biso   1.000  H
  Si70     1.0000 0.85576  0.14314  0.84709  Biso   1.000  Si
  N71      1.0000 0.65880  0.08220  0.27210  Biso   1.000  N
  C491     1.0000 0.69840  0.06360  0.26920  Biso   1.000  C
  H725     1.0000 0.70910  0.04730  0.29320  Biso   1.000  H
  C492     1.0000 0.72320  0.06760  0.23310  Biso   1.000  C
  H726     1.0000 0.75090  0.05400  0.23200  Biso   1.000  H
  C493     1.0000 0.70840  0.09150  0.19780  Biso   1.000  C
  H727     1.0000 0.72590  0.09430  0.17250  Biso   1.000  H
  C494     1.0000 0.66780  0.11120  0.19940  Biso   1.000  C
  C495     1.0000 0.64460  0.10510  0.23810  Biso   1.000  C
  H728     1.0000 0.61680  0.11820  0.24030  Biso   1.000  H
  C496     1.0000 0.60790  0.18570  0.17540  Biso   1.000  C
  H729     1.0000 0.58410  0.17190  0.19140  Biso   1.000  H
  H730     1.0000 0.59590  0.20310  0.15150  Biso   1.000  H
  H731     1.0000 0.62440  0.20450  0.19500  Biso   1.000  H
  C497     1.0000 0.68970  0.16870  0.12220  Biso   1.000  C
  H732     1.0000 0.70870  0.14600  0.11050  Biso   1.000  H
  H733     1.0000 0.70640  0.18750  0.14180  Biso   1.000  H
  H734     1.0000 0.67790  0.18610  0.09830  Biso   1.000  H
  Si71     1.0000 0.64424  0.14314  0.15291  Biso   1.000  Si
  N72      1.0000 0.15880  0.58220  0.77210  Biso   1.000  N
  C498     1.0000 0.19840  0.56360  0.76920  Biso   1.000  C
  H735     1.0000 0.20910  0.54730  0.79320  Biso   1.000  H
  C499     1.0000 0.22320  0.56760  0.73310  Biso   1.000  C
  H736     1.0000 0.25090  0.55400  0.73200  Biso   1.000  H
  C500     1.0000 0.20840  0.59150  0.69780  Biso   1.000  C
  H737     1.0000 0.22590  0.59430  0.67250  Biso   1.000  H
  C501     1.0000 0.16780  0.61120  0.69940  Biso   1.000  C
  C502     1.0000 0.14460  0.60510  0.73810  Biso   1.000  C
  H738     1.0000 0.11680  0.61820  0.74030  Biso   1.000  H
  C503     1.0000 0.10790  0.68570  0.67540  Biso   1.000  C
  H739     1.0000 0.08410  0.67190  0.69140  Biso   1.000  H
  H740     1.0000 0.09590  0.70310  0.65150  Biso   1.000  H
  H741     1.0000 0.12440  0.70450  0.69500  Biso   1.000  H
  C504     1.0000 0.18970  0.66870  0.62220  Biso   1.000  C
  H742     1.0000 0.20870  0.64600  0.61050  Biso   1.000  H
  H743     1.0000 0.20640  0.68750  0.64180  Biso   1.000  H
  H744     1.0000 0.17790  0.68610  0.59830  Biso   1.000  H
  Si72     1.0000 0.14424  0.64314  0.65291  Biso   1.000  Si
  N73      1.0000 0.09120  0.52210  0.83220  Biso   1.000  N
  C505     1.0000 0.05160  0.51920  0.81360  Biso   1.000  C
  H745     1.0000 0.04090  0.54320  0.79730  Biso   1.000  H
  C506     1.0000 0.02680  0.48310  0.81760  Biso   1.000  C
  H746     1.0000 0.99910  0.48200  0.80400  Biso   1.000  H
  C507     1.0000 0.04160  0.44780  0.84150  Biso   1.000  C
  H747     1.0000 0.02410  0.42250  0.84430  Biso   1.000  H
  C508     1.0000 0.08220  0.44940  0.86120  Biso   1.000  C
  C509     1.0000 0.10540  0.48810  0.85510  Biso   1.000  C
  H748     1.0000 0.13320  0.49030  0.86820  Biso   1.000  H
  C510     1.0000 0.14210  0.42540  0.93570  Biso   1.000  C
  H749     1.0000 0.16590  0.44140  0.92190  Biso   1.000  H
  H750     1.0000 0.15410  0.40150  0.95310  Biso   1.000  H
  H751     1.0000 0.12560  0.44500  0.95450  Biso   1.000  H
  C511     1.0000 0.06030  0.37220  0.91870  Biso   1.000  C
  H752     1.0000 0.04130  0.36050  0.89600  Biso   1.000  H
  H753     1.0000 0.04360  0.39180  0.93750  Biso   1.000  H
  H754     1.0000 0.07210  0.34830  0.93610  Biso   1.000  H
  Si73     1.0000 0.10576  0.40291  0.89314  Biso   1.000  Si
  N74      1.0000 0.59120  0.02210  0.33220  Biso   1.000  N
  C512     1.0000 0.55160  0.01920  0.31360  Biso   1.000  C
  H755     1.0000 0.54090  0.04320  0.29730  Biso   1.000  H
  C513     1.0000 0.52680  0.98310  0.31760  Biso   1.000  C
  H756     1.0000 0.49910  0.98200  0.30400  Biso   1.000  H
  C514     1.0000 0.54160  0.94780  0.34150  Biso   1.000  C
  H757     1.0000 0.52410  0.92250  0.34430  Biso   1.000  H
  C515     1.0000 0.58220  0.94940  0.36120  Biso   1.000  C
  C516     1.0000 0.60540  0.98810  0.35510  Biso   1.000  C
  H758     1.0000 0.63320  0.99030  0.36820  Biso   1.000  H
  C517     1.0000 0.64210  0.92540  0.43570  Biso   1.000  C
  H759     1.0000 0.66590  0.94140  0.42190  Biso   1.000  H
  H760     1.0000 0.65410  0.90150  0.45310  Biso   1.000  H
  H761     1.0000 0.62560  0.94500  0.45450  Biso   1.000  H
  C518     1.0000 0.56030  0.87220  0.41870  Biso   1.000  C
  H762     1.0000 0.54130  0.86050  0.39600  Biso   1.000  H
  H763     1.0000 0.54360  0.89180  0.43750  Biso   1.000  H
  H764     1.0000 0.57210  0.84830  0.43610  Biso   1.000  H
  Si74     1.0000 0.60576  0.90291  0.39314  Biso   1.000  Si
  N75      1.0000 0.40880  0.47790  0.33220  Biso   1.000  N
  C519     1.0000 0.44840  0.48080  0.31360  Biso   1.000  C
  H765     1.0000 0.45910  0.45680  0.29730  Biso   1.000  H
  C520     1.0000 0.47320  0.51690  0.31760  Biso   1.000  C
  H766     1.0000 0.50090  0.51800  0.30400  Biso   1.000  H
  C521     1.0000 0.45840  0.55220  0.34150  Biso   1.000  C
  H767     1.0000 0.47590  0.57750  0.34430  Biso   1.000  H
  C522     1.0000 0.41780  0.55060  0.36120  Biso   1.000  C
  C523     1.0000 0.39460  0.51190  0.35510  Biso   1.000  C
  H768     1.0000 0.36680  0.50970  0.36820  Biso   1.000  H
  C524     1.0000 0.35790  0.57460  0.43570  Biso   1.000  C
  H769     1.0000 0.33410  0.55860  0.42190  Biso   1.000  H
  H770     1.0000 0.34590  0.59850  0.45310  Biso   1.000  H
  H771     1.0000 0.37440  0.55500  0.45450  Biso   1.000  H
  C525     1.0000 0.43970  0.62780  0.41870  Biso   1.000  C
  H772     1.0000 0.45870  0.63950  0.39600  Biso   1.000  H
  H773     1.0000 0.45640  0.60820  0.43750  Biso   1.000  H
  H774     1.0000 0.42790  0.65170  0.43610  Biso   1.000  H
  Si75     1.0000 0.39424  0.59709  0.39314  Biso   1.000  Si
  N76      1.0000 0.90880  0.97790  0.83220  Biso   1.000  N
  C526     1.0000 0.94840  0.98080  0.81360  Biso   1.000  C
  H775     1.0000 0.95910  0.95680  0.79730  Biso   1.000  H
  C527     1.0000 0.97320  0.01690  0.81760  Biso   1.000  C
  H776     1.0000 0.00090  0.01800  0.80400  Biso   1.000  H
  C528     1.0000 0.95840  0.05220  0.84150  Biso   1.000  C
  H777     1.0000 0.97590  0.07750  0.84430  Biso   1.000  H
  C529     1.0000 0.91780  0.05060  0.86120  Biso   1.000  C
  C530     1.0000 0.89460  0.01190  0.85510  Biso   1.000  C
  H778     1.0000 0.86680  0.00970  0.86820  Biso   1.000  H
  C531     1.0000 0.85790  0.07460  0.93570  Biso   1.000  C
  H779     1.0000 0.83410  0.05860  0.92190  Biso   1.000  H
  H780     1.0000 0.84590  0.09850  0.95310  Biso   1.000  H
  H781     1.0000 0.87440  0.05500  0.95450  Biso   1.000  H
  C532     1.0000 0.93970  0.12780  0.91870  Biso   1.000  C
  H782     1.0000 0.95870  0.13950  0.89600  Biso   1.000  H
  H783     1.0000 0.95640  0.10820  0.93750  Biso   1.000  H
  H784     1.0000 0.92790  0.15170  0.93610  Biso   1.000  H
  Si76     1.0000 0.89424  0.09709  0.89314  Biso   1.000  Si
  N77      1.0000 0.59120  0.97790  0.16780  Biso   1.000  N
  C533     1.0000 0.55160  0.98080  0.18640  Biso   1.000  C
  H785     1.0000 0.54090  0.95680  0.20270  Biso   1.000  H
  C534     1.0000 0.52680  0.01690  0.18240  Biso   1.000  C
  H786     1.0000 0.49910  0.01800  0.19600  Biso   1.000  H
  C535     1.0000 0.54160  0.05220  0.15850  Biso   1.000  C
  H787     1.0000 0.52410  0.07750  0.15570  Biso   1.000  H
  C536     1.0000 0.58220  0.05060  0.13880  Biso   1.000  C
  C537     1.0000 0.60540  0.01190  0.14490  Biso   1.000  C
  H788     1.0000 0.63320  0.00970  0.13180  Biso   1.000  H
  C538     1.0000 0.64210  0.07460  0.06430  Biso   1.000  C
  H789     1.0000 0.66590  0.05860  0.07810  Biso   1.000  H
  H790     1.0000 0.65410  0.09850  0.04690  Biso   1.000  H
  H791     1.0000 0.62560  0.05500  0.04550  Biso   1.000  H
  C539     1.0000 0.56030  0.12780  0.08130  Biso   1.000  C
  H792     1.0000 0.54130  0.13950  0.10400  Biso   1.000  H
  H793     1.0000 0.54360  0.10820  0.06250  Biso   1.000  H
  H794     1.0000 0.57210  0.15170  0.06390  Biso   1.000  H
  Si77     1.0000 0.60576  0.09709  0.10686  Biso   1.000  Si
  N78      1.0000 0.09120  0.47790  0.66780  Biso   1.000  N
  C540     1.0000 0.05160  0.48080  0.68640  Biso   1.000  C
  H795     1.0000 0.04090  0.45680  0.70270  Biso   1.000  H
  C541     1.0000 0.02680  0.51690  0.68240  Biso   1.000  C
  H796     1.0000 0.99910  0.51800  0.69600  Biso   1.000  H
  C542     1.0000 0.04160  0.55220  0.65850  Biso   1.000  C
  H797     1.0000 0.02410  0.57750  0.65570  Biso   1.000  H
  C543     1.0000 0.08220  0.55060  0.63880  Biso   1.000  C
  C544     1.0000 0.10540  0.51190  0.64490  Biso   1.000  C
  H798     1.0000 0.13320  0.50970  0.63180  Biso   1.000  H
  C545     1.0000 0.14210  0.57460  0.56430  Biso   1.000  C
  H799     1.0000 0.16590  0.55860  0.57810  Biso   1.000  H
  H800     1.0000 0.15410  0.59850  0.54690  Biso   1.000  H
  H801     1.0000 0.12560  0.55500  0.54550  Biso   1.000  H
  C546     1.0000 0.06030  0.62780  0.58130  Biso   1.000  C
  H802     1.0000 0.04130  0.63950  0.60400  Biso   1.000  H
  H803     1.0000 0.04360  0.60820  0.56250  Biso   1.000  H
  H804     1.0000 0.07210  0.65170  0.56390  Biso   1.000  H
  Si78     1.0000 0.10576  0.59709  0.60686  Biso   1.000  Si
  N79      1.0000 0.90880  0.02210  0.66780  Biso   1.000  N
  C547     1.0000 0.94840  0.01920  0.68640  Biso   1.000  C
  H805     1.0000 0.95910  0.04320  0.70270  Biso   1.000  H
  C548     1.0000 0.97320  0.98310  0.68240  Biso   1.000  C
  H806     1.0000 0.00090  0.98200  0.69600  Biso   1.000  H
  C549     1.0000 0.95840  0.94780  0.65850  Biso   1.000  C
  H807     1.0000 0.97590  0.92250  0.65570  Biso   1.000  H
  C550     1.0000 0.91780  0.94940  0.63880  Biso   1.000  C
  C551     1.0000 0.89460  0.98810  0.64490  Biso   1.000  C
  H808     1.0000 0.86680  0.99030  0.63180  Biso   1.000  H
  C552     1.0000 0.85790  0.92540  0.56430  Biso   1.000  C
  H809     1.0000 0.83410  0.94140  0.57810  Biso   1.000  H
  H810     1.0000 0.84590  0.90150  0.54690  Biso   1.000  H
  H811     1.0000 0.87440  0.94500  0.54550  Biso   1.000  H
  C553     1.0000 0.93970  0.87220  0.58130  Biso   1.000  C
  H812     1.0000 0.95870  0.86050  0.60400  Biso   1.000  H
  H813     1.0000 0.95640  0.89180  0.56250  Biso   1.000  H
  H814     1.0000 0.92790  0.84830  0.56390  Biso   1.000  H
  Si79     1.0000 0.89424  0.90291  0.60686  Biso   1.000  Si
  N80      1.0000 0.40880  0.52210  0.16780  Biso   1.000  N
  C554     1.0000 0.44840  0.51920  0.18640  Biso   1.000  C
  H815     1.0000 0.45910  0.54320  0.20270  Biso   1.000  H
  C555     1.0000 0.47320  0.48310  0.18240  Biso   1.000  C
  H816     1.0000 0.50090  0.48200  0.19600  Biso   1.000  H
  C556     1.0000 0.45840  0.44780  0.15850  Biso   1.000  C
  H817     1.0000 0.47590  0.42250  0.15570  Biso   1.000  H
  C557     1.0000 0.41780  0.44940  0.13880  Biso   1.000  C
  C558     1.0000 0.39460  0.48810  0.14490  Biso   1.000  C
  H818     1.0000 0.36680  0.49030  0.13180  Biso   1.000  H
  C559     1.0000 0.35790  0.42540  0.06430  Biso   1.000  C
  H819     1.0000 0.33410  0.44140  0.07810  Biso   1.000  H
  H820     1.0000 0.34590  0.40150  0.04690  Biso   1.000  H
  H821     1.0000 0.37440  0.44500  0.04550  Biso   1.000  H
  C560     1.0000 0.43970  0.37220  0.08130  Biso   1.000  C
  H822     1.0000 0.45870  0.36050  0.10400  Biso   1.000  H
  H823     1.0000 0.45640  0.39180  0.06250  Biso   1.000  H
  H824     1.0000 0.42790  0.34830  0.06390  Biso   1.000  H
  Si80     1.0000 0.39424  0.40291  0.10686  Biso   1.000  Si
  N81      1.0000 0.02210  0.66780  0.90880  Biso   1.000  N
  C561     1.0000 0.01920  0.68640  0.94840  Biso   1.000  C
  H825     1.0000 0.04320  0.70270  0.95910  Biso   1.000  H
  C562     1.0000 0.98310  0.68240  0.97320  Biso   1.000  C
  H826     1.0000 0.98200  0.69600  0.00090  Biso   1.000  H
  C563     1.0000 0.94780  0.65850  0.95840  Biso   1.000  C
  H827     1.0000 0.92250  0.65570  0.97590  Biso   1.000  H
  C564     1.0000 0.94940  0.63880  0.91780  Biso   1.000  C
  C565     1.0000 0.98810  0.64490  0.89460  Biso   1.000  C
  H828     1.0000 0.99030  0.63180  0.86680  Biso   1.000  H
  C566     1.0000 0.92540  0.56430  0.85790  Biso   1.000  C
  H829     1.0000 0.94140  0.57810  0.83410  Biso   1.000  H
  H830     1.0000 0.90150  0.54690  0.84590  Biso   1.000  H
  H831     1.0000 0.94500  0.54550  0.87440  Biso   1.000  H
  C567     1.0000 0.87220  0.58130  0.93970  Biso   1.000  C
  H832     1.0000 0.86050  0.60400  0.95870  Biso   1.000  H
  H833     1.0000 0.89180  0.56250  0.95640  Biso   1.000  H
  H834     1.0000 0.84830  0.56390  0.92790  Biso   1.000  H
  Si81     1.0000 0.90291  0.60686  0.89424  Biso   1.000  Si
  N82      1.0000 0.52210  0.16780  0.40880  Biso   1.000  N
  C568     1.0000 0.51920  0.18640  0.44840  Biso   1.000  C
  H835     1.0000 0.54320  0.20270  0.45910  Biso   1.000  H
  C569     1.0000 0.48310  0.18240  0.47320  Biso   1.000  C
  H836     1.0000 0.48200  0.19600  0.50090  Biso   1.000  H
  C570     1.0000 0.44780  0.15850  0.45840  Biso   1.000  C
  H837     1.0000 0.42250  0.15570  0.47590  Biso   1.000  H
  C571     1.0000 0.44940  0.13880  0.41780  Biso   1.000  C
  C572     1.0000 0.48810  0.14490  0.39460  Biso   1.000  C
  H838     1.0000 0.49030  0.13180  0.36680  Biso   1.000  H
  C573     1.0000 0.42540  0.06430  0.35790  Biso   1.000  C
  H839     1.0000 0.44140  0.07810  0.33410  Biso   1.000  H
  H840     1.0000 0.40150  0.04690  0.34590  Biso   1.000  H
  H841     1.0000 0.44500  0.04550  0.37440  Biso   1.000  H
  C574     1.0000 0.37220  0.08130  0.43970  Biso   1.000  C
  H842     1.0000 0.36050  0.10400  0.45870  Biso   1.000  H
  H843     1.0000 0.39180  0.06250  0.45640  Biso   1.000  H
  H844     1.0000 0.34830  0.06390  0.42790  Biso   1.000  H
  Si82     1.0000 0.40291  0.10686  0.39424  Biso   1.000  Si
  N83      1.0000 0.97790  0.16780  0.59120  Biso   1.000  N
  C575     1.0000 0.98080  0.18640  0.55160  Biso   1.000  C
  H845     1.0000 0.95680  0.20270  0.54090  Biso   1.000  H
  C576     1.0000 0.01690  0.18240  0.52680  Biso   1.000  C
  H846     1.0000 0.01800  0.19600  0.49910  Biso   1.000  H
  C577     1.0000 0.05220  0.15850  0.54160  Biso   1.000  C
  H847     1.0000 0.07750  0.15570  0.52410  Biso   1.000  H
  C578     1.0000 0.05060  0.13880  0.58220  Biso   1.000  C
  C579     1.0000 0.01190  0.14490  0.60540  Biso   1.000  C
  H848     1.0000 0.00970  0.13180  0.63320  Biso   1.000  H
  C580     1.0000 0.07460  0.06430  0.64210  Biso   1.000  C
  H849     1.0000 0.05860  0.07810  0.66590  Biso   1.000  H
  H850     1.0000 0.09850  0.04690  0.65410  Biso   1.000  H
  H851     1.0000 0.05500  0.04550  0.62560  Biso   1.000  H
  C581     1.0000 0.12780  0.08130  0.56030  Biso   1.000  C
  H852     1.0000 0.13950  0.10400  0.54130  Biso   1.000  H
  H853     1.0000 0.10820  0.06250  0.54360  Biso   1.000  H
  H854     1.0000 0.15170  0.06390  0.57210  Biso   1.000  H
  Si83     1.0000 0.09709  0.10686  0.60576  Biso   1.000  Si
  N84      1.0000 0.47790  0.66780  0.09120  Biso   1.000  N
  C582     1.0000 0.48080  0.68640  0.05160  Biso   1.000  C
  H855     1.0000 0.45680  0.70270  0.04090  Biso   1.000  H
  C583     1.0000 0.51690  0.68240  0.02680  Biso   1.000  C
  H856     1.0000 0.51800  0.69600  0.99910  Biso   1.000  H
  C584     1.0000 0.55220  0.65850  0.04160  Biso   1.000  C
  H857     1.0000 0.57750  0.65570  0.02410  Biso   1.000  H
  C585     1.0000 0.55060  0.63880  0.08220  Biso   1.000  C
  C586     1.0000 0.51190  0.64490  0.10540  Biso   1.000  C
  H858     1.0000 0.50970  0.63180  0.13320  Biso   1.000  H
  C587     1.0000 0.57460  0.56430  0.14210  Biso   1.000  C
  H859     1.0000 0.55860  0.57810  0.16590  Biso   1.000  H
  H860     1.0000 0.59850  0.54690  0.15410  Biso   1.000  H
  H861     1.0000 0.55500  0.54550  0.12560  Biso   1.000  H
  C588     1.0000 0.62780  0.58130  0.06030  Biso   1.000  C
  H862     1.0000 0.63950  0.60400  0.04130  Biso   1.000  H
  H863     1.0000 0.60820  0.56250  0.04360  Biso   1.000  H
  H864     1.0000 0.65170  0.56390  0.07210  Biso   1.000  H
  Si84     1.0000 0.59709  0.60686  0.10576  Biso   1.000  Si
  N85      1.0000 0.47790  0.33220  0.40880  Biso   1.000  N
  C589     1.0000 0.48080  0.31360  0.44840  Biso   1.000  C
  H865     1.0000 0.45680  0.29730  0.45910  Biso   1.000  H
  C590     1.0000 0.51690  0.31760  0.47320  Biso   1.000  C
  H866     1.0000 0.51800  0.30400  0.50090  Biso   1.000  H
  C591     1.0000 0.55220  0.34150  0.45840  Biso   1.000  C
  H867     1.0000 0.57750  0.34430  0.47590  Biso   1.000  H
  C592     1.0000 0.55060  0.36120  0.41780  Biso   1.000  C
  C593     1.0000 0.51190  0.35510  0.39460  Biso   1.000  C
  H868     1.0000 0.50970  0.36820  0.36680  Biso   1.000  H
  C594     1.0000 0.57460  0.43570  0.35790  Biso   1.000  C
  H869     1.0000 0.55860  0.42190  0.33410  Biso   1.000  H
  H870     1.0000 0.59850  0.45310  0.34590  Biso   1.000  H
  H871     1.0000 0.55500  0.45450  0.37440  Biso   1.000  H
  C595     1.0000 0.62780  0.41870  0.43970  Biso   1.000  C
  H872     1.0000 0.63950  0.39600  0.45870  Biso   1.000  H
  H873     1.0000 0.60820  0.43750  0.45640  Biso   1.000  H
  H874     1.0000 0.65170  0.43610  0.42790  Biso   1.000  H
  Si85     1.0000 0.59709  0.39314  0.39424  Biso   1.000  Si
  N86      1.0000 0.97790  0.83220  0.90880  Biso   1.000  N
  C596     1.0000 0.98080  0.81360  0.94840  Biso   1.000  C
  H875     1.0000 0.95680  0.79730  0.95910  Biso   1.000  H
  C597     1.0000 0.01690  0.81760  0.97320  Biso   1.000  C
  H876     1.0000 0.01800  0.80400  0.00090  Biso   1.000  H
  C598     1.0000 0.05220  0.84150  0.95840  Biso   1.000  C
  H877     1.0000 0.07750  0.84430  0.97590  Biso   1.000  H
  C599     1.0000 0.05060  0.86120  0.91780  Biso   1.000  C
  C600     1.0000 0.01190  0.85510  0.89460  Biso   1.000  C
  H878     1.0000 0.00970  0.86820  0.86680  Biso   1.000  H
  C601     1.0000 0.07460  0.93570  0.85790  Biso   1.000  C
  H879     1.0000 0.05860  0.92190  0.83410  Biso   1.000  H
  H880     1.0000 0.09850  0.95310  0.84590  Biso   1.000  H
  H881     1.0000 0.05500  0.95450  0.87440  Biso   1.000  H
  C602     1.0000 0.12780  0.91870  0.93970  Biso   1.000  C
  H882     1.0000 0.13950  0.89600  0.95870  Biso   1.000  H
  H883     1.0000 0.10820  0.93750  0.95640  Biso   1.000  H
  H884     1.0000 0.15170  0.93610  0.92790  Biso   1.000  H
  Si86     1.0000 0.09709  0.89314  0.89424  Biso   1.000  Si
  N87      1.0000 0.52210  0.83220  0.09120  Biso   1.000  N
  C603     1.0000 0.51920  0.81360  0.05160  Biso   1.000  C
  H885     1.0000 0.54320  0.79730  0.04090  Biso   1.000  H
  C604     1.0000 0.48310  0.81760  0.02680  Biso   1.000  C
  H886     1.0000 0.48200  0.80400  0.99910  Biso   1.000  H
  C605     1.0000 0.44780  0.84150  0.04160  Biso   1.000  C
  H887     1.0000 0.42250  0.84430  0.02410  Biso   1.000  H
  C606     1.0000 0.44940  0.86120  0.08220  Biso   1.000  C
  C607     1.0000 0.48810  0.85510  0.10540  Biso   1.000  C
  H888     1.0000 0.49030  0.86820  0.13320  Biso   1.000  H
  C608     1.0000 0.42540  0.93570  0.14210  Biso   1.000  C
  H889     1.0000 0.44140  0.92190  0.16590  Biso   1.000  H
  H890     1.0000 0.40150  0.95310  0.15410  Biso   1.000  H
  H891     1.0000 0.44500  0.95450  0.12560  Biso   1.000  H
  C609     1.0000 0.37220  0.91870  0.06030  Biso   1.000  C
  H892     1.0000 0.36050  0.89600  0.04130  Biso   1.000  H
  H893     1.0000 0.39180  0.93750  0.04360  Biso   1.000  H
  H894     1.0000 0.34830  0.93610  0.07210  Biso   1.000  H
  Si87     1.0000 0.40291  0.89314  0.10576  Biso   1.000  Si
  N88      1.0000 0.02210  0.33220  0.59120  Biso   1.000  N
  C610     1.0000 0.01920  0.31360  0.55160  Biso   1.000  C
  H895     1.0000 0.04320  0.29730  0.54090  Biso   1.000  H
  C611     1.0000 0.98310  0.31760  0.52680  Biso   1.000  C
  H896     1.0000 0.98200  0.30400  0.49910  Biso   1.000  H
  C612     1.0000 0.94780  0.34150  0.54160  Biso   1.000  C
  H897     1.0000 0.92250  0.34430  0.52410  Biso   1.000  H
  C613     1.0000 0.94940  0.36120  0.58220  Biso   1.000  C
  C614     1.0000 0.98810  0.35510  0.60540  Biso   1.000  C
  H898     1.0000 0.99030  0.36820  0.63320  Biso   1.000  H
  C615     1.0000 0.92540  0.43570  0.64210  Biso   1.000  C
  H899     1.0000 0.94140  0.42190  0.66590  Biso   1.000  H
  H900     1.0000 0.90150  0.45310  0.65410  Biso   1.000  H
  H901     1.0000 0.94500  0.45450  0.62560  Biso   1.000  H
  C616     1.0000 0.87220  0.41870  0.56030  Biso   1.000  C
  H902     1.0000 0.86050  0.39600  0.54130  Biso   1.000  H
  H903     1.0000 0.89180  0.43750  0.54360  Biso   1.000  H
  H904     1.0000 0.84830  0.43610  0.57210  Biso   1.000  H
  Si88     1.0000 0.90291  0.39314  0.60576  Biso   1.000  Si
  N89      1.0000 0.16780  0.59120  0.97790  Biso   1.000  N
  C617     1.0000 0.18640  0.55160  0.98080  Biso   1.000  C
  H905     1.0000 0.20270  0.54090  0.95680  Biso   1.000  H
  C618     1.0000 0.18240  0.52680  0.01690  Biso   1.000  C
  H906     1.0000 0.19600  0.49910  0.01800  Biso   1.000  H
  C619     1.0000 0.15850  0.54160  0.05220  Biso   1.000  C
  H907     1.0000 0.15570  0.52410  0.07750  Biso   1.000  H
  C620     1.0000 0.13880  0.58220  0.05060  Biso   1.000  C
  C621     1.0000 0.14490  0.60540  0.01190  Biso   1.000  C
  H908     1.0000 0.13180  0.63320  0.00970  Biso   1.000  H
  C622     1.0000 0.06430  0.64210  0.07460  Biso   1.000  C
  H909     1.0000 0.07810  0.66590  0.05860  Biso   1.000  H
  H910     1.0000 0.04690  0.65410  0.09850  Biso   1.000  H
  H911     1.0000 0.04550  0.62560  0.05500  Biso   1.000  H
  C623     1.0000 0.08130  0.56030  0.12780  Biso   1.000  C
  H912     1.0000 0.10400  0.54130  0.13950  Biso   1.000  H
  H913     1.0000 0.06250  0.54360  0.10820  Biso   1.000  H
  H914     1.0000 0.06390  0.57210  0.15170  Biso   1.000  H
  Si89     1.0000 0.10686  0.60576  0.09709  Biso   1.000  Si
  N90      1.0000 0.66780  0.09120  0.47790  Biso   1.000  N
  C624     1.0000 0.68640  0.05160  0.48080  Biso   1.000  C
  H915     1.0000 0.70270  0.04090  0.45680  Biso   1.000  H
  C625     1.0000 0.68240  0.02680  0.51690  Biso   1.000  C
  H916     1.0000 0.69600  0.99910  0.51800  Biso   1.000  H
  C626     1.0000 0.65850  0.04160  0.55220  Biso   1.000  C
  H917     1.0000 0.65570  0.02410  0.57750  Biso   1.000  H
  C627     1.0000 0.63880  0.08220  0.55060  Biso   1.000  C
  C628     1.0000 0.64490  0.10540  0.51190  Biso   1.000  C
  H918     1.0000 0.63180  0.13320  0.50970  Biso   1.000  H
  C629     1.0000 0.56430  0.14210  0.57460  Biso   1.000  C
  H919     1.0000 0.57810  0.16590  0.55860  Biso   1.000  H
  H920     1.0000 0.54690  0.15410  0.59850  Biso   1.000  H
  H921     1.0000 0.54550  0.12560  0.55500  Biso   1.000  H
  C630     1.0000 0.58130  0.06030  0.62780  Biso   1.000  C
  H922     1.0000 0.60400  0.04130  0.63950  Biso   1.000  H
  H923     1.0000 0.56250  0.04360  0.60820  Biso   1.000  H
  H924     1.0000 0.56390  0.07210  0.65170  Biso   1.000  H
  Si90     1.0000 0.60686  0.10576  0.59709  Biso   1.000  Si
  N91      1.0000 0.66780  0.90880  0.02210  Biso   1.000  N
  C631     1.0000 0.68640  0.94840  0.01920  Biso   1.000  C
  H925     1.0000 0.70270  0.95910  0.04320  Biso   1.000  H
  C632     1.0000 0.68240  0.97320  0.98310  Biso   1.000  C
  H926     1.0000 0.69600  0.00090  0.98200  Biso   1.000  H
  C633     1.0000 0.65850  0.95840  0.94780  Biso   1.000  C
  H927     1.0000 0.65570  0.97590  0.92250  Biso   1.000  H
  C634     1.0000 0.63880  0.91780  0.94940  Biso   1.000  C
  C635     1.0000 0.64490  0.89460  0.98810  Biso   1.000  C
  H928     1.0000 0.63180  0.86680  0.99030  Biso   1.000  H
  C636     1.0000 0.56430  0.85790  0.92540  Biso   1.000  C
  H929     1.0000 0.57810  0.83410  0.94140  Biso   1.000  H
  H930     1.0000 0.54690  0.84590  0.90150  Biso   1.000  H
  H931     1.0000 0.54550  0.87440  0.94500  Biso   1.000  H
  C637     1.0000 0.58130  0.93970  0.87220  Biso   1.000  C
  H932     1.0000 0.60400  0.95870  0.86050  Biso   1.000  H
  H933     1.0000 0.56250  0.95640  0.89180  Biso   1.000  H
  H934     1.0000 0.56390  0.92790  0.84830  Biso   1.000  H
  Si91     1.0000 0.60686  0.89424  0.90291  Biso   1.000  Si
  N92      1.0000 0.16780  0.40880  0.52210  Biso   1.000  N
  C638     1.0000 0.18640  0.44840  0.51920  Biso   1.000  C
  H935     1.0000 0.20270  0.45910  0.54320  Biso   1.000  H
  C639     1.0000 0.18240  0.47320  0.48310  Biso   1.000  C
  H936     1.0000 0.19600  0.50090  0.48200  Biso   1.000  H
  C640     1.0000 0.15850  0.45840  0.44780  Biso   1.000  C
  H937     1.0000 0.15570  0.47590  0.42250  Biso   1.000  H
  C641     1.0000 0.13880  0.41780  0.44940  Biso   1.000  C
  C642     1.0000 0.14490  0.39460  0.48810  Biso   1.000  C
  H938     1.0000 0.13180  0.36680  0.49030  Biso   1.000  H
  C643     1.0000 0.06430  0.35790  0.42540  Biso   1.000  C
  H939     1.0000 0.07810  0.33410  0.44140  Biso   1.000  H
  H940     1.0000 0.04690  0.34590  0.40150  Biso   1.000  H
  H941     1.0000 0.04550  0.37440  0.44500  Biso   1.000  H
  C644     1.0000 0.08130  0.43970  0.37220  Biso   1.000  C
  H942     1.0000 0.10400  0.45870  0.36050  Biso   1.000  H
  H943     1.0000 0.06250  0.45640  0.39180  Biso   1.000  H
  H944     1.0000 0.06390  0.42790  0.34830  Biso   1.000  H
  Si92     1.0000 0.10686  0.39424  0.40291  Biso   1.000  Si
  N93      1.0000 0.83220  0.09120  0.52210  Biso   1.000  N
  C645     1.0000 0.81360  0.05160  0.51920  Biso   1.000  C
  H945     1.0000 0.79730  0.04090  0.54320  Biso   1.000  H
  C646     1.0000 0.81760  0.02680  0.48310  Biso   1.000  C
  H946     1.0000 0.80400  0.99910  0.48200  Biso   1.000  H
  C647     1.0000 0.84150  0.04160  0.44780  Biso   1.000  C
  H947     1.0000 0.84430  0.02410  0.42250  Biso   1.000  H
  C648     1.0000 0.86120  0.08220  0.44940  Biso   1.000  C
  C649     1.0000 0.85510  0.10540  0.48810  Biso   1.000  C
  H948     1.0000 0.86820  0.13320  0.49030  Biso   1.000  H
  C650     1.0000 0.93570  0.14210  0.42540  Biso   1.000  C
  H949     1.0000 0.92190  0.16590  0.44140  Biso   1.000  H
  H950     1.0000 0.95310  0.15410  0.40150  Biso   1.000  H
  H951     1.0000 0.95450  0.12560  0.44500  Biso   1.000  H
  C651     1.0000 0.91870  0.06030  0.37220  Biso   1.000  C
  H952     1.0000 0.89600  0.04130  0.36050  Biso   1.000  H
  H953     1.0000 0.93750  0.04360  0.39180  Biso   1.000  H
  H954     1.0000 0.93610  0.07210  0.34830  Biso   1.000  H
  Si93     1.0000 0.89314  0.10576  0.40291  Biso   1.000  Si
  N94      1.0000 0.33220  0.59120  0.02210  Biso   1.000  N
  C652     1.0000 0.31360  0.55160  0.01920  Biso   1.000  C
  H955     1.0000 0.29730  0.54090  0.04320  Biso   1.000  H
  C653     1.0000 0.31760  0.52680  0.98310  Biso   1.000  C
  H956     1.0000 0.30400  0.49910  0.98200  Biso   1.000  H
  C654     1.0000 0.34150  0.54160  0.94780  Biso   1.000  C
  H957     1.0000 0.34430  0.52410  0.92250  Biso   1.000  H
  C655     1.0000 0.36120  0.58220  0.94940  Biso   1.000  C
  C656     1.0000 0.35510  0.60540  0.98810  Biso   1.000  C
  H958     1.0000 0.36820  0.63320  0.99030  Biso   1.000  H
  C657     1.0000 0.43570  0.64210  0.92540  Biso   1.000  C
  H959     1.0000 0.42190  0.66590  0.94140  Biso   1.000  H
  H960     1.0000 0.45310  0.65410  0.90150  Biso   1.000  H
  H961     1.0000 0.45450  0.62560  0.94500  Biso   1.000  H
  C658     1.0000 0.41870  0.56030  0.87220  Biso   1.000  C
  H962     1.0000 0.39600  0.54130  0.86050  Biso   1.000  H
  H963     1.0000 0.43750  0.54360  0.89180  Biso   1.000  H
  H964     1.0000 0.43610  0.57210  0.84830  Biso   1.000  H
  Si94     1.0000 0.39314  0.60576  0.90291  Biso   1.000  Si
  N95      1.0000 0.33220  0.40880  0.47790  Biso   1.000  N
  C659     1.0000 0.31360  0.44840  0.48080  Biso   1.000  C
  H965     1.0000 0.29730  0.45910  0.45680  Biso   1.000  H
  C660     1.0000 0.31760  0.47320  0.51690  Biso   1.000  C
  H966     1.0000 0.30400  0.50090  0.51800  Biso   1.000  H
  C661     1.0000 0.34150  0.45840  0.55220  Biso   1.000  C
  H967     1.0000 0.34430  0.47590  0.57750  Biso   1.000  H
  C662     1.0000 0.36120  0.41780  0.55060  Biso   1.000  C
  C663     1.0000 0.35510  0.39460  0.51190  Biso   1.000  C
  H968     1.0000 0.36820  0.36680  0.50970  Biso   1.000  H
  C664     1.0000 0.43570  0.35790  0.57460  Biso   1.000  C
  H969     1.0000 0.42190  0.33410  0.55860  Biso   1.000  H
  H970     1.0000 0.45310  0.34590  0.59850  Biso   1.000  H
  H971     1.0000 0.45450  0.37440  0.55500  Biso   1.000  H
  C665     1.0000 0.41870  0.43970  0.62780  Biso   1.000  C
  H972     1.0000 0.39600  0.45870  0.63950  Biso   1.000  H
  H973     1.0000 0.43750  0.45640  0.60820  Biso   1.000  H
  H974     1.0000 0.43610  0.42790  0.65170  Biso   1.000  H
  Si95     1.0000 0.39314  0.39424  0.59709  Biso   1.000  Si
  N96      1.0000 0.83220  0.90880  0.97790  Biso   1.000  N
  C666     1.0000 0.81360  0.94840  0.98080  Biso   1.000  C
  H975     1.0000 0.79730  0.95910  0.95680  Biso   1.000  H
  C667     1.0000 0.81760  0.97320  0.01690  Biso   1.000  C
  H976     1.0000 0.80400  0.00090  0.01800  Biso   1.000  H
  C668     1.0000 0.84150  0.95840  0.05220  Biso   1.000  C
  H977     1.0000 0.84430  0.97590  0.07750  Biso   1.000  H
  C669     1.0000 0.86120  0.91780  0.05060  Biso   1.000  C
  C670     1.0000 0.85510  0.89460  0.01190  Biso   1.000  C
  H978     1.0000 0.86820  0.86680  0.00970  Biso   1.000  H
  C671     1.0000 0.93570  0.85790  0.07460  Biso   1.000  C
  H979     1.0000 0.92190  0.83410  0.05860  Biso   1.000  H
  H980     1.0000 0.95310  0.84590  0.09850  Biso   1.000  H
  H981     1.0000 0.95450  0.87440  0.05500  Biso   1.000  H
  C672     1.0000 0.91870  0.93970  0.12780  Biso   1.000  C
  H982     1.0000 0.89600  0.95870  0.13950  Biso   1.000  H
  H983     1.0000 0.93750  0.95640  0.10820  Biso   1.000  H
  H984     1.0000 0.93610  0.92790  0.15170  Biso   1.000  H
  Si96     1.0000 0.89314  0.89424  0.09709  Biso   1.000  Si
  Zn25     1.0000 0.82854  0.87500  0.92146  Biso   1.000  Zn
  Zn26     1.0000 0.32854  0.37500  0.42146  Biso   1.000  Zn
  Zn27     1.0000 0.67146  0.12500  0.42146  Biso   1.000  Zn
  Zn28     1.0000 0.17146  0.37500  0.57854  Biso   1.000  Zn
  Zn29     1.0000 0.32854  0.62500  0.07854  Biso   1.000  Zn
  Zn30     1.0000 0.92146  0.82854  0.87500  Biso   1.000  Zn
  Zn31     1.0000 0.42146  0.32854  0.37500  Biso   1.000  Zn
  Zn32     1.0000 0.42146  0.67146  0.12500  Biso   1.000  Zn
  Zn33     1.0000 0.57854  0.17146  0.37500  Biso   1.000  Zn
  Zn34     1.0000 0.07854  0.32854  0.62500  Biso   1.000  Zn
  Zn35     1.0000 0.87500  0.92146  0.82854  Biso   1.000  Zn
  Zn36     1.0000 0.37500  0.42146  0.32854  Biso   1.000  Zn
  Zn37     1.0000 0.12500  0.42146  0.67146  Biso   1.000  Zn
  Zn38     1.0000 0.37500  0.57854  0.17146  Biso   1.000  Zn
  Zn39     1.0000 0.62500  0.07854  0.32854  Biso   1.000  Zn
  Zn40     1.0000 0.12500  0.57854  0.82854  Biso   1.000  Zn
  Zn41     1.0000 0.62500  0.92146  0.17146  Biso   1.000  Zn
  Zn42     1.0000 0.87500  0.07854  0.67146  Biso   1.000  Zn
  Zn43     1.0000 0.07854  0.67146  0.87500  Biso   1.000  Zn
  Zn44     1.0000 0.92146  0.17146  0.62500  Biso   1.000  Zn
  Zn45     1.0000 0.57854  0.82854  0.12500  Biso   1.000  Zn
  Zn46     1.0000 0.17146  0.62500  0.92146  Biso   1.000  Zn
  Zn47     1.0000 0.67146  0.87500  0.07854  Biso   1.000  Zn
  Zn48     1.0000 0.82854  0.12500  0.57854  Biso   1.000  Zn
  O25      1.0000 0.83336  0.91664  0.87500  Biso   1.000  O
  H985     1.0000 0.81150  0.93850  0.87500  Biso   1.000  H
  O26      1.0000 0.33336  0.41664  0.37500  Biso   1.000  O
  H986     1.0000 0.31150  0.43850  0.37500  Biso   1.000  H
  O27      1.0000 0.66664  0.08336  0.37500  Biso   1.000  O
  H987     1.0000 0.68850  0.06150  0.37500  Biso   1.000  H
  O28      1.0000 0.16664  0.41664  0.62500  Biso   1.000  O
  H988     1.0000 0.18850  0.43850  0.62500  Biso   1.000  H
  O29      1.0000 0.33336  0.58336  0.12500  Biso   1.000  O
  H989     1.0000 0.31150  0.56150  0.12500  Biso   1.000  H
  O30      1.0000 0.87500  0.83336  0.91664  Biso   1.000  O
  H990     1.0000 0.87500  0.81150  0.93850  Biso   1.000  H
  O31      1.0000 0.37500  0.33336  0.41664  Biso   1.000  O
  H991     1.0000 0.37500  0.31150  0.43850  Biso   1.000  H
  O32      1.0000 0.37500  0.66664  0.08336  Biso   1.000  O
  H992     1.0000 0.37500  0.68850  0.06150  Biso   1.000  H
  O33      1.0000 0.62500  0.16664  0.41664  Biso   1.000  O
  H993     1.0000 0.62500  0.18850  0.43850  Biso   1.000  H
  O34      1.0000 0.12500  0.33336  0.58336  Biso   1.000  O
  H994     1.0000 0.12500  0.31150  0.56150  Biso   1.000  H
  O35      1.0000 0.91664  0.87500  0.83336  Biso   1.000  O
  H995     1.0000 0.93850  0.87500  0.81150  Biso   1.000  H
  O36      1.0000 0.41664  0.37500  0.33336  Biso   1.000  O
  H996     1.0000 0.43850  0.37500  0.31150  Biso   1.000  H
  O37      1.0000 0.08336  0.37500  0.66664  Biso   1.000  O
  H997     1.0000 0.06150  0.37500  0.68850  Biso   1.000  H
  O38      1.0000 0.41664  0.62500  0.16664  Biso   1.000  O
  H998     1.0000 0.43850  0.62500  0.18850  Biso   1.000  H
  O39      1.0000 0.58336  0.12500  0.33336  Biso   1.000  O
  H999     1.0000 0.56150  0.12500  0.31150  Biso   1.000  H
  O40      1.0000 0.16664  0.58336  0.87500  Biso   1.000  O
  H1000    1.0000 0.18850  0.56150  0.87500  Biso   1.000  H
  O41      1.0000 0.66664  0.91664  0.12500  Biso   1.000  O
  H1001    1.0000 0.68850  0.93850  0.12500  Biso   1.000  H
  O42      1.0000 0.83336  0.08336  0.62500  Biso   1.000  O
  H1002    1.0000 0.81150  0.06150  0.62500  Biso   1.000  H
  O43      1.0000 0.08336  0.62500  0.83336  Biso   1.000  O
  H1003    1.0000 0.06150  0.62500  0.81150  Biso   1.000  H
  O44      1.0000 0.91664  0.12500  0.66664  Biso   1.000  O
  H1004    1.0000 0.93850  0.12500  0.68850  Biso   1.000  H
  O45      1.0000 0.58336  0.87500  0.16664  Biso   1.000  O
  H1005    1.0000 0.56150  0.87500  0.18850  Biso   1.000  H
  O46      1.0000 0.12500  0.66664  0.91664  Biso   1.000  O
  H1006    1.0000 0.12500  0.68850  0.93850  Biso   1.000  H
  O47      1.0000 0.62500  0.83336  0.08336  Biso   1.000  O
  H1007    1.0000 0.62500  0.81150  0.06150  Biso   1.000  H
  O48      1.0000 0.87500  0.16664  0.58336  Biso   1.000  O
  H1008    1.0000 0.87500  0.18850  0.56150  Biso   1.000  H
