data_image0
_cell_length_a       22.5597
_cell_length_b       22.5597
_cell_length_c       22.5597
_cell_angle_alpha    90
_cell_angle_beta     90
_cell_angle_gamma    90

_symmetry_space_group_name_H-M    "P 1"
_symmetry_int_tables_number       1

loop_
  _symmetry_equiv_pos_as_xyz
  'x, y, z'

loop_
  _atom_site_label
  _atom_site_occupancy
  _atom_site_fract_x
  _atom_site_fract_y
  _atom_site_fract_z
  _atom_site_thermal_displace_type
  _atom_site_B_iso_or_equiv
  _atom_site_type_symbol
  C1       1.0000 0.45275  0.44923  0.14182  Biso   1.000  C
  C2       1.0000 0.43213  0.42853  0.20167  Biso   1.000  C
  C3       1.0000 0.37228  0.42174  0.21465  Biso   1.000  C
  H1       1.0000 0.34400  0.42760  0.18520  Biso   1.000  H
  C4       1.0000 0.35468  0.40620  0.27161  Biso   1.000  C
  H2       1.0000 0.31460  0.40170  0.28030  Biso   1.000  H
  C5       1.0000 0.39692  0.39745  0.31560  Biso   1.000  C
  C6       1.0000 0.45677  0.40425  0.30263  Biso   1.000  C
  H3       1.0000 0.48500  0.39840  0.33210  Biso   1.000  H
  C7       1.0000 0.47437  0.41978  0.24566  Biso   1.000  C
  H4       1.0000 0.51440  0.42430  0.23700  Biso   1.000  H
  Zn1      1.0000 0.42775  0.45372  0.01253  Biso   1.000  Zn
  O1       1.0000 0.41571  0.45311  0.10193  Biso   1.000  O
  O2       1.0000 0.50295  0.46587  0.13501  Biso   1.000  O
  C8       1.0000 0.04725  0.55077  0.64182  Biso   1.000  C
  C9       1.0000 0.06787  0.57147  0.70167  Biso   1.000  C
  C10      1.0000 0.12772  0.57826  0.71465  Biso   1.000  C
  H5       1.0000 0.15600  0.57240  0.68520  Biso   1.000  H
  C11      1.0000 0.14532  0.59380  0.77161  Biso   1.000  C
  H6       1.0000 0.18540  0.59830  0.78030  Biso   1.000  H
  C12      1.0000 0.10308  0.60255  0.81560  Biso   1.000  C
  C13      1.0000 0.04323  0.59575  0.80263  Biso   1.000  C
  H7       1.0000 0.01500  0.60160  0.83210  Biso   1.000  H
  C14      1.0000 0.02563  0.58022  0.74566  Biso   1.000  C
  H8       1.0000 0.98560  0.57570  0.73700  Biso   1.000  H
  Zn2      1.0000 0.07225  0.54628  0.51253  Biso   1.000  Zn
  O3       1.0000 0.08429  0.54689  0.60193  Biso   1.000  O
  O4       1.0000 0.99705  0.53413  0.63501  Biso   1.000  O
  C15      1.0000 0.54725  0.94923  0.35818  Biso   1.000  C
  C16      1.0000 0.56787  0.92853  0.29833  Biso   1.000  C
  C17      1.0000 0.62772  0.92174  0.28535  Biso   1.000  C
  H9       1.0000 0.65600  0.92760  0.31480  Biso   1.000  H
  C18      1.0000 0.64532  0.90620  0.22839  Biso   1.000  C
  H10      1.0000 0.68540  0.90170  0.21970  Biso   1.000  H
  C19      1.0000 0.60308  0.89745  0.18440  Biso   1.000  C
  C20      1.0000 0.54323  0.90425  0.19737  Biso   1.000  C
  H11      1.0000 0.51500  0.89840  0.16790  Biso   1.000  H
  C21      1.0000 0.52563  0.91978  0.25434  Biso   1.000  C
  H12      1.0000 0.48560  0.92430  0.26300  Biso   1.000  H
  Zn3      1.0000 0.57225  0.95372  0.48747  Biso   1.000  Zn
  O5       1.0000 0.58429  0.95311  0.39807  Biso   1.000  O
  O6       1.0000 0.49705  0.96587  0.36499  Biso   1.000  O
  C22      1.0000 0.95275  0.05077  0.85818  Biso   1.000  C
  C23      1.0000 0.93213  0.07147  0.79833  Biso   1.000  C
  C24      1.0000 0.87228  0.07826  0.78535  Biso   1.000  C
  H13      1.0000 0.84400  0.07240  0.81480  Biso   1.000  H
  C25      1.0000 0.85468  0.09380  0.72839  Biso   1.000  C
  H14      1.0000 0.81460  0.09830  0.71970  Biso   1.000  H
  C26      1.0000 0.89692  0.10255  0.68440  Biso   1.000  C
  C27      1.0000 0.95677  0.09575  0.69737  Biso   1.000  C
  H15      1.0000 0.98500  0.10160  0.66790  Biso   1.000  H
  C28      1.0000 0.97437  0.08022  0.75434  Biso   1.000  C
  H16      1.0000 0.01440  0.07570  0.76300  Biso   1.000  H
  Zn4      1.0000 0.92775  0.04628  0.98747  Biso   1.000  Zn
  O7       1.0000 0.91571  0.04689  0.89807  Biso   1.000  O
  O8       1.0000 0.00295  0.03413  0.86499  Biso   1.000  O
  C29      1.0000 0.14182  0.45275  0.44923  Biso   1.000  C
  C30      1.0000 0.20167  0.43213  0.42853  Biso   1.000  C
  C31      1.0000 0.21465  0.37228  0.42174  Biso   1.000  C
  H17      1.0000 0.18520  0.34400  0.42760  Biso   1.000  H
  C32      1.0000 0.27161  0.35468  0.40620  Biso   1.000  C
  H18      1.0000 0.28030  0.31460  0.40170  Biso   1.000  H
  C33      1.0000 0.31560  0.39692  0.39745  Biso   1.000  C
  C34      1.0000 0.30263  0.45677  0.40425  Biso   1.000  C
  H19      1.0000 0.33210  0.48500  0.39840  Biso   1.000  H
  C35      1.0000 0.24566  0.47437  0.41978  Biso   1.000  C
  H20      1.0000 0.23700  0.51440  0.42430  Biso   1.000  H
  Zn5      1.0000 0.01253  0.42775  0.45372  Biso   1.000  Zn
  O9       1.0000 0.10193  0.41571  0.45311  Biso   1.000  O
  O10      1.0000 0.13501  0.50295  0.46587  Biso   1.000  O
  C36      1.0000 0.64182  0.04725  0.55077  Biso   1.000  C
  C37      1.0000 0.70167  0.06787  0.57147  Biso   1.000  C
  C38      1.0000 0.71465  0.12772  0.57826  Biso   1.000  C
  H21      1.0000 0.68520  0.15600  0.57240  Biso   1.000  H
  C39      1.0000 0.77161  0.14532  0.59380  Biso   1.000  C
  H22      1.0000 0.78030  0.18540  0.59830  Biso   1.000  H
  C40      1.0000 0.81560  0.10308  0.60255  Biso   1.000  C
  C41      1.0000 0.80263  0.04323  0.59575  Biso   1.000  C
  H23      1.0000 0.83210  0.01500  0.60160  Biso   1.000  H
  C42      1.0000 0.74566  0.02563  0.58022  Biso   1.000  C
  H24      1.0000 0.73700  0.98560  0.57570  Biso   1.000  H
  Zn6      1.0000 0.51253  0.07225  0.54628  Biso   1.000  Zn
  O11      1.0000 0.60193  0.08429  0.54689  Biso   1.000  O
  O12      1.0000 0.63501  0.99705  0.53413  Biso   1.000  O
  C43      1.0000 0.35818  0.54725  0.94923  Biso   1.000  C
  C44      1.0000 0.29833  0.56787  0.92853  Biso   1.000  C
  C45      1.0000 0.28535  0.62772  0.92174  Biso   1.000  C
  H25      1.0000 0.31480  0.65600  0.92760  Biso   1.000  H
  C46      1.0000 0.22839  0.64532  0.90620  Biso   1.000  C
  H26      1.0000 0.21970  0.68540  0.90170  Biso   1.000  H
  C47      1.0000 0.18440  0.60308  0.89745  Biso   1.000  C
  C48      1.0000 0.19737  0.54323  0.90425  Biso   1.000  C
  H27      1.0000 0.16790  0.51500  0.89840  Biso   1.000  H
  C49      1.0000 0.25434  0.52563  0.91978  Biso   1.000  C
  H28      1.0000 0.26300  0.48560  0.92430  Biso   1.000  H
  Zn7      1.0000 0.48747  0.57225  0.95372  Biso   1.000  Zn
  O13      1.0000 0.39807  0.58429  0.95311  Biso   1.000  O
  O14      1.0000 0.36499  0.49705  0.96587  Biso   1.000  O
  C50      1.0000 0.85818  0.95275  0.05077  Biso   1.000  C
  C51      1.0000 0.79833  0.93213  0.07147  Biso   1.000  C
  C52      1.0000 0.78535  0.87228  0.07826  Biso   1.000  C
  H29      1.0000 0.81480  0.84400  0.07240  Biso   1.000  H
  C53      1.0000 0.72839  0.85468  0.09380  Biso   1.000  C
  H30      1.0000 0.71970  0.81460  0.09830  Biso   1.000  H
  C54      1.0000 0.68440  0.89692  0.10255  Biso   1.000  C
  C55      1.0000 0.69737  0.95677  0.09575  Biso   1.000  C
  H31      1.0000 0.66790  0.98500  0.10160  Biso   1.000  H
  C56      1.0000 0.75434  0.97437  0.08022  Biso   1.000  C
  H32      1.0000 0.76300  0.01440  0.07570  Biso   1.000  H
  Zn8      1.0000 0.98747  0.92775  0.04628  Biso   1.000  Zn
  O15      1.0000 0.89807  0.91571  0.04689  Biso   1.000  O
  O16      1.0000 0.86499  0.00295  0.03413  Biso   1.000  O
  C57      1.0000 0.44923  0.14182  0.45275  Biso   1.000  C
  C58      1.0000 0.42853  0.20167  0.43213  Biso   1.000  C
  C59      1.0000 0.42174  0.21465  0.37228  Biso   1.000  C
  H33      1.0000 0.42760  0.18520  0.34400  Biso   1.000  H
  C60      1.0000 0.40620  0.27161  0.35468  Biso   1.000  C
  H34      1.0000 0.40170  0.28030  0.31460  Biso   1.000  H
  C61      1.0000 0.39745  0.31560  0.39692  Biso   1.000  C
  C62      1.0000 0.40425  0.30263  0.45677  Biso   1.000  C
  H35      1.0000 0.39840  0.33210  0.48500  Biso   1.000  H
  C63      1.0000 0.41978  0.24566  0.47437  Biso   1.000  C
  H36      1.0000 0.42430  0.23700  0.51440  Biso   1.000  H
  Zn9      1.0000 0.45372  0.01253  0.42775  Biso   1.000  Zn
  O17      1.0000 0.45311  0.10193  0.41571  Biso   1.000  O
  O18      1.0000 0.46587  0.13501  0.50295  Biso   1.000  O
  C64      1.0000 0.55077  0.64182  0.04725  Biso   1.000  C
  C65      1.0000 0.57147  0.70167  0.06787  Biso   1.000  C
  C66      1.0000 0.57826  0.71465  0.12772  Biso   1.000  C
  H37      1.0000 0.57240  0.68520  0.15600  Biso   1.000  H
  C67      1.0000 0.59380  0.77161  0.14532  Biso   1.000  C
  H38      1.0000 0.59830  0.78030  0.18540  Biso   1.000  H
  C68      1.0000 0.60255  0.81560  0.10308  Biso   1.000  C
  C69      1.0000 0.59575  0.80263  0.04323  Biso   1.000  C
  H39      1.0000 0.60160  0.83210  0.01500  Biso   1.000  H
  C70      1.0000 0.58022  0.74566  0.02563  Biso   1.000  C
  H40      1.0000 0.57570  0.73700  0.98560  Biso   1.000  H
  Zn10     1.0000 0.54628  0.51253  0.07225  Biso   1.000  Zn
  O19      1.0000 0.54689  0.60193  0.08429  Biso   1.000  O
  O20      1.0000 0.53413  0.63501  0.99705  Biso   1.000  O
  C71      1.0000 0.94923  0.35818  0.54725  Biso   1.000  C
  C72      1.0000 0.92853  0.29833  0.56787  Biso   1.000  C
  C73      1.0000 0.92174  0.28535  0.62772  Biso   1.000  C
  H41      1.0000 0.92760  0.31480  0.65600  Biso   1.000  H
  C74      1.0000 0.90620  0.22839  0.64532  Biso   1.000  C
  H42      1.0000 0.90170  0.21970  0.68540  Biso   1.000  H
  C75      1.0000 0.89745  0.18440  0.60308  Biso   1.000  C
  C76      1.0000 0.90425  0.19737  0.54323  Biso   1.000  C
  H43      1.0000 0.89840  0.16790  0.51500  Biso   1.000  H
  C77      1.0000 0.91978  0.25434  0.52563  Biso   1.000  C
  H44      1.0000 0.92430  0.26300  0.48560  Biso   1.000  H
  Zn11     1.0000 0.95372  0.48747  0.57225  Biso   1.000  Zn
  O21      1.0000 0.95311  0.39807  0.58429  Biso   1.000  O
  O22      1.0000 0.96587  0.36499  0.49705  Biso   1.000  O
  C78      1.0000 0.05077  0.85818  0.95275  Biso   1.000  C
  C79      1.0000 0.07147  0.79833  0.93213  Biso   1.000  C
  C80      1.0000 0.07826  0.78535  0.87228  Biso   1.000  C
  H45      1.0000 0.07240  0.81480  0.84400  Biso   1.000  H
  C81      1.0000 0.09380  0.72839  0.85468  Biso   1.000  C
  H46      1.0000 0.09830  0.71970  0.81460  Biso   1.000  H
  C82      1.0000 0.10255  0.68440  0.89692  Biso   1.000  C
  C83      1.0000 0.09575  0.69737  0.95677  Biso   1.000  C
  H47      1.0000 0.10160  0.66790  0.98500  Biso   1.000  H
  C84      1.0000 0.08022  0.75434  0.97437  Biso   1.000  C
  H48      1.0000 0.07570  0.76300  0.01440  Biso   1.000  H
  Zn12     1.0000 0.04628  0.98747  0.92775  Biso   1.000  Zn
  O23      1.0000 0.04689  0.89807  0.91571  Biso   1.000  O
  O24      1.0000 0.03413  0.86499  0.00295  Biso   1.000  O
  C85      1.0000 0.54725  0.55077  0.85818  Biso   1.000  C
  C86      1.0000 0.56787  0.57147  0.79833  Biso   1.000  C
  C87      1.0000 0.62772  0.57826  0.78535  Biso   1.000  C
  H49      1.0000 0.65600  0.57240  0.81480  Biso   1.000  H
  C88      1.0000 0.64532  0.59380  0.72839  Biso   1.000  C
  H50      1.0000 0.68540  0.59830  0.71970  Biso   1.000  H
  C89      1.0000 0.60308  0.60255  0.68440  Biso   1.000  C
  C90      1.0000 0.54323  0.59575  0.69737  Biso   1.000  C
  H51      1.0000 0.51500  0.60160  0.66790  Biso   1.000  H
  C91      1.0000 0.52563  0.58022  0.75434  Biso   1.000  C
  H52      1.0000 0.48560  0.57570  0.76300  Biso   1.000  H
  Zn13     1.0000 0.57225  0.54628  0.98747  Biso   1.000  Zn
  O25      1.0000 0.58429  0.54689  0.89807  Biso   1.000  O
  O26      1.0000 0.49705  0.53413  0.86499  Biso   1.000  O
  C92      1.0000 0.95275  0.44923  0.35818  Biso   1.000  C
  C93      1.0000 0.93213  0.42853  0.29833  Biso   1.000  C
  C94      1.0000 0.87228  0.42174  0.28535  Biso   1.000  C
  H53      1.0000 0.84400  0.42760  0.31480  Biso   1.000  H
  C95      1.0000 0.85468  0.40620  0.22839  Biso   1.000  C
  H54      1.0000 0.81460  0.40170  0.21970  Biso   1.000  H
  C96      1.0000 0.89692  0.39745  0.18440  Biso   1.000  C
  C97      1.0000 0.95677  0.40425  0.19737  Biso   1.000  C
  H55      1.0000 0.98500  0.39840  0.16790  Biso   1.000  H
  C98      1.0000 0.97437  0.41978  0.25434  Biso   1.000  C
  H56      1.0000 0.01440  0.42430  0.26300  Biso   1.000  H
  Zn14     1.0000 0.92775  0.45372  0.48747  Biso   1.000  Zn
  O27      1.0000 0.91571  0.45311  0.39807  Biso   1.000  O
  O28      1.0000 0.00295  0.46587  0.36499  Biso   1.000  O
  C99      1.0000 0.45275  0.05077  0.64182  Biso   1.000  C
  C100     1.0000 0.43213  0.07147  0.70167  Biso   1.000  C
  C101     1.0000 0.37228  0.07826  0.71465  Biso   1.000  C
  H57      1.0000 0.34400  0.07240  0.68520  Biso   1.000  H
  C102     1.0000 0.35468  0.09380  0.77161  Biso   1.000  C
  H58      1.0000 0.31460  0.09830  0.78030  Biso   1.000  H
  C103     1.0000 0.39692  0.10255  0.81560  Biso   1.000  C
  C104     1.0000 0.45677  0.09575  0.80263  Biso   1.000  C
  H59      1.0000 0.48500  0.10160  0.83210  Biso   1.000  H
  C105     1.0000 0.47437  0.08022  0.74566  Biso   1.000  C
  H60      1.0000 0.51440  0.07570  0.73700  Biso   1.000  H
  Zn15     1.0000 0.42775  0.04628  0.51253  Biso   1.000  Zn
  O29      1.0000 0.41571  0.04689  0.60193  Biso   1.000  O
  O30      1.0000 0.50295  0.03413  0.63501  Biso   1.000  O
  C106     1.0000 0.04725  0.94923  0.14182  Biso   1.000  C
  C107     1.0000 0.06787  0.92853  0.20167  Biso   1.000  C
  C108     1.0000 0.12772  0.92174  0.21465  Biso   1.000  C
  H61      1.0000 0.15600  0.92760  0.18520  Biso   1.000  H
  C109     1.0000 0.14532  0.90620  0.27161  Biso   1.000  C
  H62      1.0000 0.18540  0.90170  0.28030  Biso   1.000  H
  C110     1.0000 0.10308  0.89745  0.31560  Biso   1.000  C
  C111     1.0000 0.04323  0.90425  0.30263  Biso   1.000  C
  H63      1.0000 0.01500  0.89840  0.33210  Biso   1.000  H
  C112     1.0000 0.02563  0.91978  0.24566  Biso   1.000  C
  H64      1.0000 0.98560  0.92430  0.23700  Biso   1.000  H
  Zn16     1.0000 0.07225  0.95372  0.01253  Biso   1.000  Zn
  O31      1.0000 0.08429  0.95311  0.10193  Biso   1.000  O
  O32      1.0000 0.99705  0.96587  0.13501  Biso   1.000  O
  C113     1.0000 0.85818  0.54725  0.55077  Biso   1.000  C
  C114     1.0000 0.79833  0.56787  0.57147  Biso   1.000  C
  C115     1.0000 0.78535  0.62772  0.57826  Biso   1.000  C
  H65      1.0000 0.81480  0.65600  0.57240  Biso   1.000  H
  C116     1.0000 0.72839  0.64532  0.59380  Biso   1.000  C
  H66      1.0000 0.71970  0.68540  0.59830  Biso   1.000  H
  C117     1.0000 0.68440  0.60308  0.60255  Biso   1.000  C
  C118     1.0000 0.69737  0.54323  0.59575  Biso   1.000  C
  H67      1.0000 0.66790  0.51500  0.60160  Biso   1.000  H
  C119     1.0000 0.75434  0.52563  0.58022  Biso   1.000  C
  H68      1.0000 0.76300  0.48560  0.57570  Biso   1.000  H
  Zn17     1.0000 0.98747  0.57225  0.54628  Biso   1.000  Zn
  O33      1.0000 0.89807  0.58429  0.54689  Biso   1.000  O
  O34      1.0000 0.86499  0.49705  0.53413  Biso   1.000  O
  C120     1.0000 0.35818  0.95275  0.44923  Biso   1.000  C
  C121     1.0000 0.29833  0.93213  0.42853  Biso   1.000  C
  C122     1.0000 0.28535  0.87228  0.42174  Biso   1.000  C
  H69      1.0000 0.31480  0.84400  0.42760  Biso   1.000  H
  C123     1.0000 0.22839  0.85468  0.40620  Biso   1.000  C
  H70      1.0000 0.21970  0.81460  0.40170  Biso   1.000  H
  C124     1.0000 0.18440  0.89692  0.39745  Biso   1.000  C
  C125     1.0000 0.19737  0.95677  0.40425  Biso   1.000  C
  H71      1.0000 0.16790  0.98500  0.39840  Biso   1.000  H
  C126     1.0000 0.25434  0.97437  0.41978  Biso   1.000  C
  H72      1.0000 0.26300  0.01440  0.42430  Biso   1.000  H
  Zn18     1.0000 0.48747  0.92775  0.45372  Biso   1.000  Zn
  O35      1.0000 0.39807  0.91571  0.45311  Biso   1.000  O
  O36      1.0000 0.36499  0.00295  0.46587  Biso   1.000  O
  C127     1.0000 0.64182  0.45275  0.05077  Biso   1.000  C
  C128     1.0000 0.70167  0.43213  0.07147  Biso   1.000  C
  C129     1.0000 0.71465  0.37228  0.07826  Biso   1.000  C
  H73      1.0000 0.68520  0.34400  0.07240  Biso   1.000  H
  C130     1.0000 0.77161  0.35468  0.09380  Biso   1.000  C
  H74      1.0000 0.78030  0.31460  0.09830  Biso   1.000  H
  C131     1.0000 0.81560  0.39692  0.10255  Biso   1.000  C
  C132     1.0000 0.80263  0.45677  0.09575  Biso   1.000  C
  H75      1.0000 0.83210  0.48500  0.10160  Biso   1.000  H
  C133     1.0000 0.74566  0.47437  0.08022  Biso   1.000  C
  H76      1.0000 0.73700  0.51440  0.07570  Biso   1.000  H
  Zn19     1.0000 0.51253  0.42775  0.04628  Biso   1.000  Zn
  O37      1.0000 0.60193  0.41571  0.04689  Biso   1.000  O
  O38      1.0000 0.63501  0.50295  0.03413  Biso   1.000  O
  C134     1.0000 0.14182  0.04725  0.94923  Biso   1.000  C
  C135     1.0000 0.20167  0.06787  0.92853  Biso   1.000  C
  C136     1.0000 0.21465  0.12772  0.92174  Biso   1.000  C
  H77      1.0000 0.18520  0.15600  0.92760  Biso   1.000  H
  C137     1.0000 0.27161  0.14532  0.90620  Biso   1.000  C
  H78      1.0000 0.28030  0.18540  0.90170  Biso   1.000  H
  C138     1.0000 0.31560  0.10308  0.89745  Biso   1.000  C
  C139     1.0000 0.30263  0.04323  0.90425  Biso   1.000  C
  H79      1.0000 0.33210  0.01500  0.89840  Biso   1.000  H
  C140     1.0000 0.24566  0.02563  0.91978  Biso   1.000  C
  H80      1.0000 0.23700  0.98560  0.92430  Biso   1.000  H
  Zn20     1.0000 0.01253  0.07225  0.95372  Biso   1.000  Zn
  O39      1.0000 0.10193  0.08429  0.95311  Biso   1.000  O
  O40      1.0000 0.13501  0.99705  0.96587  Biso   1.000  O
  C141     1.0000 0.55077  0.85818  0.54725  Biso   1.000  C
  C142     1.0000 0.57147  0.79833  0.56787  Biso   1.000  C
  C143     1.0000 0.57826  0.78535  0.62772  Biso   1.000  C
  H81      1.0000 0.57240  0.81480  0.65600  Biso   1.000  H
  C144     1.0000 0.59380  0.72839  0.64532  Biso   1.000  C
  H82      1.0000 0.59830  0.71970  0.68540  Biso   1.000  H
  C145     1.0000 0.60255  0.68440  0.60308  Biso   1.000  C
  C146     1.0000 0.59575  0.69737  0.54323  Biso   1.000  C
  H83      1.0000 0.60160  0.66790  0.51500  Biso   1.000  H
  C147     1.0000 0.58022  0.75434  0.52563  Biso   1.000  C
  H84      1.0000 0.57570  0.76300  0.48560  Biso   1.000  H
  Zn21     1.0000 0.54628  0.98747  0.57225  Biso   1.000  Zn
  O41      1.0000 0.54689  0.89807  0.58429  Biso   1.000  O
  O42      1.0000 0.53413  0.86499  0.49705  Biso   1.000  O
  C148     1.0000 0.44923  0.35818  0.95275  Biso   1.000  C
  C149     1.0000 0.42853  0.29833  0.93213  Biso   1.000  C
  C150     1.0000 0.42174  0.28535  0.87228  Biso   1.000  C
  H85      1.0000 0.42760  0.31480  0.84400  Biso   1.000  H
  C151     1.0000 0.40620  0.22839  0.85468  Biso   1.000  C
  H86      1.0000 0.40170  0.21970  0.81460  Biso   1.000  H
  C152     1.0000 0.39745  0.18440  0.89692  Biso   1.000  C
  C153     1.0000 0.40425  0.19737  0.95677  Biso   1.000  C
  H87      1.0000 0.39840  0.16790  0.98500  Biso   1.000  H
  C154     1.0000 0.41978  0.25434  0.97437  Biso   1.000  C
  H88      1.0000 0.42430  0.26300  0.01440  Biso   1.000  H
  Zn22     1.0000 0.45372  0.48747  0.92775  Biso   1.000  Zn
  O43      1.0000 0.45311  0.39807  0.91571  Biso   1.000  O
  O44      1.0000 0.46587  0.36499  0.00295  Biso   1.000  O
  C155     1.0000 0.05077  0.64182  0.45275  Biso   1.000  C
  C156     1.0000 0.07147  0.70167  0.43213  Biso   1.000  C
  C157     1.0000 0.07826  0.71465  0.37228  Biso   1.000  C
  H89      1.0000 0.07240  0.68520  0.34400  Biso   1.000  H
  C158     1.0000 0.09380  0.77161  0.35468  Biso   1.000  C
  H90      1.0000 0.09830  0.78030  0.31460  Biso   1.000  H
  C159     1.0000 0.10255  0.81560  0.39692  Biso   1.000  C
  C160     1.0000 0.09575  0.80263  0.45677  Biso   1.000  C
  H91      1.0000 0.10160  0.83210  0.48500  Biso   1.000  H
  C161     1.0000 0.08022  0.74566  0.47437  Biso   1.000  C
  H92      1.0000 0.07570  0.73700  0.51440  Biso   1.000  H
  Zn23     1.0000 0.04628  0.51253  0.42775  Biso   1.000  Zn
  O45      1.0000 0.04689  0.60193  0.41571  Biso   1.000  O
  O46      1.0000 0.03413  0.63501  0.50295  Biso   1.000  O
  C162     1.0000 0.94923  0.14182  0.04725  Biso   1.000  C
  C163     1.0000 0.92853  0.20167  0.06787  Biso   1.000  C
  C164     1.0000 0.92174  0.21465  0.12772  Biso   1.000  C
  H93      1.0000 0.92760  0.18520  0.15600  Biso   1.000  H
  C165     1.0000 0.90620  0.27161  0.14532  Biso   1.000  C
  H94      1.0000 0.90170  0.28030  0.18540  Biso   1.000  H
  C166     1.0000 0.89745  0.31560  0.10308  Biso   1.000  C
  C167     1.0000 0.90425  0.30263  0.04323  Biso   1.000  C
  H95      1.0000 0.89840  0.33210  0.01500  Biso   1.000  H
  C168     1.0000 0.91978  0.24566  0.02563  Biso   1.000  C
  H96      1.0000 0.92430  0.23700  0.98560  Biso   1.000  H
  Zn24     1.0000 0.95372  0.01253  0.07225  Biso   1.000  Zn
  O47      1.0000 0.95311  0.10193  0.08429  Biso   1.000  O
  O48      1.0000 0.96587  0.13501  0.99705  Biso   1.000  O
  C169     1.0000 0.38370  0.38370  0.38370  Biso   1.000  C
  H97      1.0000 0.40880  0.40880  0.40880  Biso   1.000  H
  C170     1.0000 0.11630  0.61630  0.88370  Biso   1.000  C
  H98      1.0000 0.09120  0.59120  0.90880  Biso   1.000  H
  C171     1.0000 0.61630  0.88370  0.11630  Biso   1.000  C
  H99      1.0000 0.59120  0.90880  0.09120  Biso   1.000  H
  C172     1.0000 0.88370  0.11630  0.61630  Biso   1.000  C
  H100     1.0000 0.90880  0.09120  0.59120  Biso   1.000  H
  C173     1.0000 0.61630  0.61630  0.61630  Biso   1.000  C
  H101     1.0000 0.59120  0.59120  0.59120  Biso   1.000  H
  C174     1.0000 0.88370  0.38370  0.11630  Biso   1.000  C
  H102     1.0000 0.90880  0.40880  0.09120  Biso   1.000  H
  C175     1.0000 0.38370  0.11630  0.88370  Biso   1.000  C
  H103     1.0000 0.40880  0.09120  0.90880  Biso   1.000  H
  C176     1.0000 0.11630  0.88370  0.38370  Biso   1.000  C
  H104     1.0000 0.09120  0.90880  0.40880  Biso   1.000  H
  O49      1.0000 0.50000  0.50000  0.00000  Biso   1.000  O
  O50      1.0000 0.00000  0.50000  0.50000  Biso   1.000  O
  O51      1.0000 0.50000  0.00000  0.50000  Biso   1.000  O
  O52      1.0000 0.00000  0.00000  0.00000  Biso   1.000  O
  C177     1.0000 0.95275  0.94923  0.64182  Biso   1.000  C
  C178     1.0000 0.93213  0.92853  0.70167  Biso   1.000  C
  C179     1.0000 0.87228  0.92174  0.71465  Biso   1.000  C
  H105     1.0000 0.84400  0.92760  0.68520  Biso   1.000  H
  C180     1.0000 0.85468  0.90620  0.77161  Biso   1.000  C
  H106     1.0000 0.81460  0.90170  0.78030  Biso   1.000  H
  C181     1.0000 0.89692  0.89745  0.81560  Biso   1.000  C
  C182     1.0000 0.95677  0.90425  0.80263  Biso   1.000  C
  H107     1.0000 0.98500  0.89840  0.83210  Biso   1.000  H
  C183     1.0000 0.97437  0.91978  0.74566  Biso   1.000  C
  H108     1.0000 0.01440  0.92430  0.73700  Biso   1.000  H
  Zn25     1.0000 0.92775  0.95372  0.51253  Biso   1.000  Zn
  O53      1.0000 0.91571  0.95311  0.60193  Biso   1.000  O
  O54      1.0000 0.00295  0.96587  0.63501  Biso   1.000  O
  C184     1.0000 0.54725  0.05077  0.14182  Biso   1.000  C
  C185     1.0000 0.56787  0.07147  0.20167  Biso   1.000  C
  C186     1.0000 0.62772  0.07826  0.21465  Biso   1.000  C
  H109     1.0000 0.65600  0.07240  0.18520  Biso   1.000  H
  C187     1.0000 0.64532  0.09380  0.27161  Biso   1.000  C
  H110     1.0000 0.68540  0.09830  0.28030  Biso   1.000  H
  C188     1.0000 0.60308  0.10255  0.31560  Biso   1.000  C
  C189     1.0000 0.54323  0.09575  0.30263  Biso   1.000  C
  H111     1.0000 0.51500  0.10160  0.33210  Biso   1.000  H
  C190     1.0000 0.52563  0.08022  0.24566  Biso   1.000  C
  H112     1.0000 0.48560  0.07570  0.23700  Biso   1.000  H
  Zn26     1.0000 0.57225  0.04628  0.01253  Biso   1.000  Zn
  O55      1.0000 0.58429  0.04689  0.10193  Biso   1.000  O
  O56      1.0000 0.49705  0.03413  0.13501  Biso   1.000  O
  C191     1.0000 0.04725  0.44923  0.85818  Biso   1.000  C
  C192     1.0000 0.06787  0.42853  0.79833  Biso   1.000  C
  C193     1.0000 0.12772  0.42174  0.78535  Biso   1.000  C
  H113     1.0000 0.15600  0.42760  0.81480  Biso   1.000  H
  C194     1.0000 0.14532  0.40620  0.72839  Biso   1.000  C
  H114     1.0000 0.18540  0.40170  0.71970  Biso   1.000  H
  C195     1.0000 0.10308  0.39745  0.68440  Biso   1.000  C
  C196     1.0000 0.04323  0.40425  0.69737  Biso   1.000  C
  H115     1.0000 0.01500  0.39840  0.66790  Biso   1.000  H
  C197     1.0000 0.02563  0.41978  0.75434  Biso   1.000  C
  H116     1.0000 0.98560  0.42430  0.76300  Biso   1.000  H
  Zn27     1.0000 0.07225  0.45372  0.98747  Biso   1.000  Zn
  O57      1.0000 0.08429  0.45311  0.89807  Biso   1.000  O
  O58      1.0000 0.99705  0.46587  0.86499  Biso   1.000  O
  C198     1.0000 0.45275  0.55077  0.35818  Biso   1.000  C
  C199     1.0000 0.43213  0.57147  0.29833  Biso   1.000  C
  C200     1.0000 0.37228  0.57826  0.28535  Biso   1.000  C
  H117     1.0000 0.34400  0.57240  0.31480  Biso   1.000  H
  C201     1.0000 0.35468  0.59380  0.22839  Biso   1.000  C
  H118     1.0000 0.31460  0.59830  0.21970  Biso   1.000  H
  C202     1.0000 0.39692  0.60255  0.18440  Biso   1.000  C
  C203     1.0000 0.45677  0.59575  0.19737  Biso   1.000  C
  H119     1.0000 0.48500  0.60160  0.16790  Biso   1.000  H
  C204     1.0000 0.47437  0.58022  0.25434  Biso   1.000  C
  H120     1.0000 0.51440  0.57570  0.26300  Biso   1.000  H
  Zn28     1.0000 0.42775  0.54628  0.48747  Biso   1.000  Zn
  O59      1.0000 0.41571  0.54689  0.39807  Biso   1.000  O
  O60      1.0000 0.50295  0.53413  0.36499  Biso   1.000  O
  C205     1.0000 0.64182  0.95275  0.94923  Biso   1.000  C
  C206     1.0000 0.70167  0.93213  0.92853  Biso   1.000  C
  C207     1.0000 0.71465  0.87228  0.92174  Biso   1.000  C
  H121     1.0000 0.68520  0.84400  0.92760  Biso   1.000  H
  C208     1.0000 0.77161  0.85468  0.90620  Biso   1.000  C
  H122     1.0000 0.78030  0.81460  0.90170  Biso   1.000  H
  C209     1.0000 0.81560  0.89692  0.89745  Biso   1.000  C
  C210     1.0000 0.80263  0.95677  0.90425  Biso   1.000  C
  H123     1.0000 0.83210  0.98500  0.89840  Biso   1.000  H
  C211     1.0000 0.74566  0.97437  0.91978  Biso   1.000  C
  H124     1.0000 0.73700  0.01440  0.92430  Biso   1.000  H
  Zn29     1.0000 0.51253  0.92775  0.95372  Biso   1.000  Zn
  O61      1.0000 0.60193  0.91571  0.95311  Biso   1.000  O
  O62      1.0000 0.63501  0.00295  0.96587  Biso   1.000  O
  C212     1.0000 0.14182  0.54725  0.05077  Biso   1.000  C
  C213     1.0000 0.20167  0.56787  0.07147  Biso   1.000  C
  C214     1.0000 0.21465  0.62772  0.07826  Biso   1.000  C
  H125     1.0000 0.18520  0.65600  0.07240  Biso   1.000  H
  C215     1.0000 0.27161  0.64532  0.09380  Biso   1.000  C
  H126     1.0000 0.28030  0.68540  0.09830  Biso   1.000  H
  C216     1.0000 0.31560  0.60308  0.10255  Biso   1.000  C
  C217     1.0000 0.30263  0.54323  0.09575  Biso   1.000  C
  H127     1.0000 0.33210  0.51500  0.10160  Biso   1.000  H
  C218     1.0000 0.24566  0.52563  0.08022  Biso   1.000  C
  H128     1.0000 0.23700  0.48560  0.07570  Biso   1.000  H
  Zn30     1.0000 0.01253  0.57225  0.04628  Biso   1.000  Zn
  O63      1.0000 0.10193  0.58429  0.04689  Biso   1.000  O
  O64      1.0000 0.13501  0.49705  0.03413  Biso   1.000  O
  C219     1.0000 0.85818  0.04725  0.44923  Biso   1.000  C
  C220     1.0000 0.79833  0.06787  0.42853  Biso   1.000  C
  C221     1.0000 0.78535  0.12772  0.42174  Biso   1.000  C
  H129     1.0000 0.81480  0.15600  0.42760  Biso   1.000  H
  C222     1.0000 0.72839  0.14532  0.40620  Biso   1.000  C
  H130     1.0000 0.71970  0.18540  0.40170  Biso   1.000  H
  C223     1.0000 0.68440  0.10308  0.39745  Biso   1.000  C
  C224     1.0000 0.69737  0.04323  0.40425  Biso   1.000  C
  H131     1.0000 0.66790  0.01500  0.39840  Biso   1.000  H
  C225     1.0000 0.75434  0.02563  0.41978  Biso   1.000  C
  H132     1.0000 0.76300  0.98560  0.42430  Biso   1.000  H
  Zn31     1.0000 0.98747  0.07225  0.45372  Biso   1.000  Zn
  O65      1.0000 0.89807  0.08429  0.45311  Biso   1.000  O
  O66      1.0000 0.86499  0.99705  0.46587  Biso   1.000  O
  C226     1.0000 0.35818  0.45275  0.55077  Biso   1.000  C
  C227     1.0000 0.29833  0.43213  0.57147  Biso   1.000  C
  C228     1.0000 0.28535  0.37228  0.57826  Biso   1.000  C
  H133     1.0000 0.31480  0.34400  0.57240  Biso   1.000  H
  C229     1.0000 0.22839  0.35468  0.59380  Biso   1.000  C
  H134     1.0000 0.21970  0.31460  0.59830  Biso   1.000  H
  C230     1.0000 0.18440  0.39692  0.60255  Biso   1.000  C
  C231     1.0000 0.19737  0.45677  0.59575  Biso   1.000  C
  H135     1.0000 0.16790  0.48500  0.60160  Biso   1.000  H
  C232     1.0000 0.25434  0.47437  0.58022  Biso   1.000  C
  H136     1.0000 0.26300  0.51440  0.57570  Biso   1.000  H
  Zn32     1.0000 0.48747  0.42775  0.54628  Biso   1.000  Zn
  O67      1.0000 0.39807  0.41571  0.54689  Biso   1.000  O
  O68      1.0000 0.36499  0.50295  0.53413  Biso   1.000  O
  C233     1.0000 0.94923  0.64182  0.95275  Biso   1.000  C
  C234     1.0000 0.92853  0.70167  0.93213  Biso   1.000  C
  C235     1.0000 0.92174  0.71465  0.87228  Biso   1.000  C
  H137     1.0000 0.92760  0.68520  0.84400  Biso   1.000  H
  C236     1.0000 0.90620  0.77161  0.85468  Biso   1.000  C
  H138     1.0000 0.90170  0.78030  0.81460  Biso   1.000  H
  C237     1.0000 0.89745  0.81560  0.89692  Biso   1.000  C
  C238     1.0000 0.90425  0.80263  0.95677  Biso   1.000  C
  H139     1.0000 0.89840  0.83210  0.98500  Biso   1.000  H
  C239     1.0000 0.91978  0.74566  0.97437  Biso   1.000  C
  H140     1.0000 0.92430  0.73700  0.01440  Biso   1.000  H
  Zn33     1.0000 0.95372  0.51253  0.92775  Biso   1.000  Zn
  O69      1.0000 0.95311  0.60193  0.91571  Biso   1.000  O
  O70      1.0000 0.96587  0.63501  0.00295  Biso   1.000  O
  C240     1.0000 0.05077  0.14182  0.54725  Biso   1.000  C
  C241     1.0000 0.07147  0.20167  0.56787  Biso   1.000  C
  C242     1.0000 0.07826  0.21465  0.62772  Biso   1.000  C
  H141     1.0000 0.07240  0.18520  0.65600  Biso   1.000  H
  C243     1.0000 0.09380  0.27161  0.64532  Biso   1.000  C
  H142     1.0000 0.09830  0.28030  0.68540  Biso   1.000  H
  C244     1.0000 0.10255  0.31560  0.60308  Biso   1.000  C
  C245     1.0000 0.09575  0.30263  0.54323  Biso   1.000  C
  H143     1.0000 0.10160  0.33210  0.51500  Biso   1.000  H
  C246     1.0000 0.08022  0.24566  0.52563  Biso   1.000  C
  H144     1.0000 0.07570  0.23700  0.48560  Biso   1.000  H
  Zn34     1.0000 0.04628  0.01253  0.57225  Biso   1.000  Zn
  O71      1.0000 0.04689  0.10193  0.58429  Biso   1.000  O
  O72      1.0000 0.03413  0.13501  0.49705  Biso   1.000  O
  C247     1.0000 0.44923  0.85818  0.04725  Biso   1.000  C
  C248     1.0000 0.42853  0.79833  0.06787  Biso   1.000  C
  C249     1.0000 0.42174  0.78535  0.12772  Biso   1.000  C
  H145     1.0000 0.42760  0.81480  0.15600  Biso   1.000  H
  C250     1.0000 0.40620  0.72839  0.14532  Biso   1.000  C
  H146     1.0000 0.40170  0.71970  0.18540  Biso   1.000  H
  C251     1.0000 0.39745  0.68440  0.10308  Biso   1.000  C
  C252     1.0000 0.40425  0.69737  0.04323  Biso   1.000  C
  H147     1.0000 0.39840  0.66790  0.01500  Biso   1.000  H
  C253     1.0000 0.41978  0.75434  0.02563  Biso   1.000  C
  H148     1.0000 0.42430  0.76300  0.98560  Biso   1.000  H
  Zn35     1.0000 0.45372  0.98747  0.07225  Biso   1.000  Zn
  O73      1.0000 0.45311  0.89807  0.08429  Biso   1.000  O
  O74      1.0000 0.46587  0.86499  0.99705  Biso   1.000  O
  C254     1.0000 0.55077  0.35818  0.45275  Biso   1.000  C
  C255     1.0000 0.57147  0.29833  0.43213  Biso   1.000  C
  C256     1.0000 0.57826  0.28535  0.37228  Biso   1.000  C
  H149     1.0000 0.57240  0.31480  0.34400  Biso   1.000  H
  C257     1.0000 0.59380  0.22839  0.35468  Biso   1.000  C
  H150     1.0000 0.59830  0.21970  0.31460  Biso   1.000  H
  C258     1.0000 0.60255  0.18440  0.39692  Biso   1.000  C
  C259     1.0000 0.59575  0.19737  0.45677  Biso   1.000  C
  H151     1.0000 0.60160  0.16790  0.48500  Biso   1.000  H
  C260     1.0000 0.58022  0.25434  0.47437  Biso   1.000  C
  H152     1.0000 0.57570  0.26300  0.51440  Biso   1.000  H
  Zn36     1.0000 0.54628  0.48747  0.42775  Biso   1.000  Zn
  O75      1.0000 0.54689  0.39807  0.41571  Biso   1.000  O
  O76      1.0000 0.53413  0.36499  0.50295  Biso   1.000  O
  C261     1.0000 0.04725  0.05077  0.35818  Biso   1.000  C
  C262     1.0000 0.06787  0.07147  0.29833  Biso   1.000  C
  C263     1.0000 0.12772  0.07826  0.28535  Biso   1.000  C
  H153     1.0000 0.15600  0.07240  0.31480  Biso   1.000  H
  C264     1.0000 0.14532  0.09380  0.22839  Biso   1.000  C
  H154     1.0000 0.18540  0.09830  0.21970  Biso   1.000  H
  C265     1.0000 0.10308  0.10255  0.18440  Biso   1.000  C
  C266     1.0000 0.04323  0.09575  0.19737  Biso   1.000  C
  H155     1.0000 0.01500  0.10160  0.16790  Biso   1.000  H
  C267     1.0000 0.02563  0.08022  0.25434  Biso   1.000  C
  H156     1.0000 0.98560  0.07570  0.26300  Biso   1.000  H
  Zn37     1.0000 0.07225  0.04628  0.48747  Biso   1.000  Zn
  O77      1.0000 0.08429  0.04689  0.39807  Biso   1.000  O
  O78      1.0000 0.99705  0.03413  0.36499  Biso   1.000  O
  C268     1.0000 0.45275  0.94923  0.85818  Biso   1.000  C
  C269     1.0000 0.43213  0.92853  0.79833  Biso   1.000  C
  C270     1.0000 0.37228  0.92174  0.78535  Biso   1.000  C
  H157     1.0000 0.34400  0.92760  0.81480  Biso   1.000  H
  C271     1.0000 0.35468  0.90620  0.72839  Biso   1.000  C
  H158     1.0000 0.31460  0.90170  0.71970  Biso   1.000  H
  C272     1.0000 0.39692  0.89745  0.68440  Biso   1.000  C
  C273     1.0000 0.45677  0.90425  0.69737  Biso   1.000  C
  H159     1.0000 0.48500  0.89840  0.66790  Biso   1.000  H
  C274     1.0000 0.47437  0.91978  0.75434  Biso   1.000  C
  H160     1.0000 0.51440  0.92430  0.76300  Biso   1.000  H
  Zn38     1.0000 0.42775  0.95372  0.98747  Biso   1.000  Zn
  O79      1.0000 0.41571  0.95311  0.89807  Biso   1.000  O
  O80      1.0000 0.50295  0.96587  0.86499  Biso   1.000  O
  C275     1.0000 0.95275  0.55077  0.14182  Biso   1.000  C
  C276     1.0000 0.93213  0.57147  0.20167  Biso   1.000  C
  C277     1.0000 0.87228  0.57826  0.21465  Biso   1.000  C
  H161     1.0000 0.84400  0.57240  0.18520  Biso   1.000  H
  C278     1.0000 0.85468  0.59380  0.27161  Biso   1.000  C
  H162     1.0000 0.81460  0.59830  0.28030  Biso   1.000  H
  C279     1.0000 0.89692  0.60255  0.31560  Biso   1.000  C
  C280     1.0000 0.95677  0.59575  0.30263  Biso   1.000  C
  H163     1.0000 0.98500  0.60160  0.33210  Biso   1.000  H
  C281     1.0000 0.97437  0.58022  0.24566  Biso   1.000  C
  H164     1.0000 0.01440  0.57570  0.23700  Biso   1.000  H
  Zn39     1.0000 0.92775  0.54628  0.01253  Biso   1.000  Zn
  O81      1.0000 0.91571  0.54689  0.10193  Biso   1.000  O
  O82      1.0000 0.00295  0.53413  0.13501  Biso   1.000  O
  C282     1.0000 0.54725  0.44923  0.64182  Biso   1.000  C
  C283     1.0000 0.56787  0.42853  0.70167  Biso   1.000  C
  C284     1.0000 0.62772  0.42174  0.71465  Biso   1.000  C
  H165     1.0000 0.65600  0.42760  0.68520  Biso   1.000  H
  C285     1.0000 0.64532  0.40620  0.77161  Biso   1.000  C
  H166     1.0000 0.68540  0.40170  0.78030  Biso   1.000  H
  C286     1.0000 0.60308  0.39745  0.81560  Biso   1.000  C
  C287     1.0000 0.54323  0.40425  0.80263  Biso   1.000  C
  H167     1.0000 0.51500  0.39840  0.83210  Biso   1.000  H
  C288     1.0000 0.52563  0.41978  0.74566  Biso   1.000  C
  H168     1.0000 0.48560  0.42430  0.73700  Biso   1.000  H
  Zn40     1.0000 0.57225  0.45372  0.51253  Biso   1.000  Zn
  O83      1.0000 0.58429  0.45311  0.60193  Biso   1.000  O
  O84      1.0000 0.49705  0.46587  0.63501  Biso   1.000  O
  C289     1.0000 0.35818  0.04725  0.05077  Biso   1.000  C
  C290     1.0000 0.29833  0.06787  0.07147  Biso   1.000  C
  C291     1.0000 0.28535  0.12772  0.07826  Biso   1.000  C
  H169     1.0000 0.31480  0.15600  0.07240  Biso   1.000  H
  C292     1.0000 0.22839  0.14532  0.09380  Biso   1.000  C
  H170     1.0000 0.21970  0.18540  0.09830  Biso   1.000  H
  C293     1.0000 0.18440  0.10308  0.10255  Biso   1.000  C
  C294     1.0000 0.19737  0.04323  0.09575  Biso   1.000  C
  H171     1.0000 0.16790  0.01500  0.10160  Biso   1.000  H
  C295     1.0000 0.25434  0.02563  0.08022  Biso   1.000  C
  H172     1.0000 0.26300  0.98560  0.07570  Biso   1.000  H
  Zn41     1.0000 0.48747  0.07225  0.04628  Biso   1.000  Zn
  O85      1.0000 0.39807  0.08429  0.04689  Biso   1.000  O
  O86      1.0000 0.36499  0.99705  0.03413  Biso   1.000  O
  C296     1.0000 0.85818  0.45275  0.94923  Biso   1.000  C
  C297     1.0000 0.79833  0.43213  0.92853  Biso   1.000  C
  C298     1.0000 0.78535  0.37228  0.92174  Biso   1.000  C
  H173     1.0000 0.81480  0.34400  0.92760  Biso   1.000  H
  C299     1.0000 0.72839  0.35468  0.90620  Biso   1.000  C
  H174     1.0000 0.71970  0.31460  0.90170  Biso   1.000  H
  C300     1.0000 0.68440  0.39692  0.89745  Biso   1.000  C
  C301     1.0000 0.69737  0.45677  0.90425  Biso   1.000  C
  H175     1.0000 0.66790  0.48500  0.89840  Biso   1.000  H
  C302     1.0000 0.75434  0.47437  0.91978  Biso   1.000  C
  H176     1.0000 0.76300  0.51440  0.92430  Biso   1.000  H
  Zn42     1.0000 0.98747  0.42775  0.95372  Biso   1.000  Zn
  O87      1.0000 0.89807  0.41571  0.95311  Biso   1.000  O
  O88      1.0000 0.86499  0.50295  0.96587  Biso   1.000  O
  C303     1.0000 0.14182  0.95275  0.55077  Biso   1.000  C
  C304     1.0000 0.20167  0.93213  0.57147  Biso   1.000  C
  C305     1.0000 0.21465  0.87228  0.57826  Biso   1.000  C
  H177     1.0000 0.18520  0.84400  0.57240  Biso   1.000  H
  C306     1.0000 0.27161  0.85468  0.59380  Biso   1.000  C
  H178     1.0000 0.28030  0.81460  0.59830  Biso   1.000  H
  C307     1.0000 0.31560  0.89692  0.60255  Biso   1.000  C
  C308     1.0000 0.30263  0.95677  0.59575  Biso   1.000  C
  H179     1.0000 0.33210  0.98500  0.60160  Biso   1.000  H
  C309     1.0000 0.24566  0.97437  0.58022  Biso   1.000  C
  H180     1.0000 0.23700  0.01440  0.57570  Biso   1.000  H
  Zn43     1.0000 0.01253  0.92775  0.54628  Biso   1.000  Zn
  O89      1.0000 0.10193  0.91571  0.54689  Biso   1.000  O
  O90      1.0000 0.13501  0.00295  0.53413  Biso   1.000  O
  C310     1.0000 0.64182  0.54725  0.44923  Biso   1.000  C
  C311     1.0000 0.70167  0.56787  0.42853  Biso   1.000  C
  C312     1.0000 0.71465  0.62772  0.42174  Biso   1.000  C
  H181     1.0000 0.68520  0.65600  0.42760  Biso   1.000  H
  C313     1.0000 0.77161  0.64532  0.40620  Biso   1.000  C
  H182     1.0000 0.78030  0.68540  0.40170  Biso   1.000  H
  C314     1.0000 0.81560  0.60308  0.39745  Biso   1.000  C
  C315     1.0000 0.80263  0.54323  0.40425  Biso   1.000  C
  H183     1.0000 0.83210  0.51500  0.39840  Biso   1.000  H
  C316     1.0000 0.74566  0.52563  0.41978  Biso   1.000  C
  H184     1.0000 0.73700  0.48560  0.42430  Biso   1.000  H
  Zn44     1.0000 0.51253  0.57225  0.45372  Biso   1.000  Zn
  O91      1.0000 0.60193  0.58429  0.45311  Biso   1.000  O
  O92      1.0000 0.63501  0.49705  0.46587  Biso   1.000  O
  C317     1.0000 0.05077  0.35818  0.04725  Biso   1.000  C
  C318     1.0000 0.07147  0.29833  0.06787  Biso   1.000  C
  C319     1.0000 0.07826  0.28535  0.12772  Biso   1.000  C
  H185     1.0000 0.07240  0.31480  0.15600  Biso   1.000  H
  C320     1.0000 0.09380  0.22839  0.14532  Biso   1.000  C
  H186     1.0000 0.09830  0.21970  0.18540  Biso   1.000  H
  C321     1.0000 0.10255  0.18440  0.10308  Biso   1.000  C
  C322     1.0000 0.09575  0.19737  0.04323  Biso   1.000  C
  H187     1.0000 0.10160  0.16790  0.01500  Biso   1.000  H
  C323     1.0000 0.08022  0.25434  0.02563  Biso   1.000  C
  H188     1.0000 0.07570  0.26300  0.98560  Biso   1.000  H
  Zn45     1.0000 0.04628  0.48747  0.07225  Biso   1.000  Zn
  O93      1.0000 0.04689  0.39807  0.08429  Biso   1.000  O
  O94      1.0000 0.03413  0.36499  0.99705  Biso   1.000  O
  C324     1.0000 0.94923  0.85818  0.45275  Biso   1.000  C
  C325     1.0000 0.92853  0.79833  0.43213  Biso   1.000  C
  C326     1.0000 0.92174  0.78535  0.37228  Biso   1.000  C
  H189     1.0000 0.92760  0.81480  0.34400  Biso   1.000  H
  C327     1.0000 0.90620  0.72839  0.35468  Biso   1.000  C
  H190     1.0000 0.90170  0.71970  0.31460  Biso   1.000  H
  C328     1.0000 0.89745  0.68440  0.39692  Biso   1.000  C
  C329     1.0000 0.90425  0.69737  0.45677  Biso   1.000  C
  H191     1.0000 0.89840  0.66790  0.48500  Biso   1.000  H
  C330     1.0000 0.91978  0.75434  0.47437  Biso   1.000  C
  H192     1.0000 0.92430  0.76300  0.51440  Biso   1.000  H
  Zn46     1.0000 0.95372  0.98747  0.42775  Biso   1.000  Zn
  O95      1.0000 0.95311  0.89807  0.41571  Biso   1.000  O
  O96      1.0000 0.96587  0.86499  0.50295  Biso   1.000  O
  C331     1.0000 0.55077  0.14182  0.95275  Biso   1.000  C
  C332     1.0000 0.57147  0.20167  0.93213  Biso   1.000  C
  C333     1.0000 0.57826  0.21465  0.87228  Biso   1.000  C
  H193     1.0000 0.57240  0.18520  0.84400  Biso   1.000  H
  C334     1.0000 0.59380  0.27161  0.85468  Biso   1.000  C
  H194     1.0000 0.59830  0.28030  0.81460  Biso   1.000  H
  C335     1.0000 0.60255  0.31560  0.89692  Biso   1.000  C
  C336     1.0000 0.59575  0.30263  0.95677  Biso   1.000  C
  H195     1.0000 0.60160  0.33210  0.98500  Biso   1.000  H
  C337     1.0000 0.58022  0.24566  0.97437  Biso   1.000  C
  H196     1.0000 0.57570  0.23700  0.01440  Biso   1.000  H
  Zn47     1.0000 0.54628  0.01253  0.92775  Biso   1.000  Zn
  O97      1.0000 0.54689  0.10193  0.91571  Biso   1.000  O
  O98      1.0000 0.53413  0.13501  0.00295  Biso   1.000  O
  C338     1.0000 0.44923  0.64182  0.54725  Biso   1.000  C
  C339     1.0000 0.42853  0.70167  0.56787  Biso   1.000  C
  C340     1.0000 0.42174  0.71465  0.62772  Biso   1.000  C
  H197     1.0000 0.42760  0.68520  0.65600  Biso   1.000  H
  C341     1.0000 0.40620  0.77161  0.64532  Biso   1.000  C
  H198     1.0000 0.40170  0.78030  0.68540  Biso   1.000  H
  C342     1.0000 0.39745  0.81560  0.60308  Biso   1.000  C
  C343     1.0000 0.40425  0.80263  0.54323  Biso   1.000  C
  H199     1.0000 0.39840  0.83210  0.51500  Biso   1.000  H
  C344     1.0000 0.41978  0.74566  0.52563  Biso   1.000  C
  H200     1.0000 0.42430  0.73700  0.48560  Biso   1.000  H
  Zn48     1.0000 0.45372  0.51253  0.57225  Biso   1.000  Zn
  O99      1.0000 0.45311  0.60193  0.58429  Biso   1.000  O
  O100     1.0000 0.46587  0.63501  0.49705  Biso   1.000  O
  C345     1.0000 0.88370  0.88370  0.88370  Biso   1.000  C
  H201     1.0000 0.90880  0.90880  0.90880  Biso   1.000  H
  C346     1.0000 0.61630  0.11630  0.38370  Biso   1.000  C
  H202     1.0000 0.59120  0.09120  0.40880  Biso   1.000  H
  C347     1.0000 0.11630  0.38370  0.61630  Biso   1.000  C
  H203     1.0000 0.09120  0.40880  0.59120  Biso   1.000  H
  C348     1.0000 0.38370  0.61630  0.11630  Biso   1.000  C
  H204     1.0000 0.40880  0.59120  0.09120  Biso   1.000  H
  C349     1.0000 0.11630  0.11630  0.11630  Biso   1.000  C
  H205     1.0000 0.09120  0.09120  0.09120  Biso   1.000  H
  C350     1.0000 0.38370  0.88370  0.61630  Biso   1.000  C
  H206     1.0000 0.40880  0.90880  0.59120  Biso   1.000  H
  C351     1.0000 0.88370  0.61630  0.38370  Biso   1.000  C
  H207     1.0000 0.90880  0.59120  0.40880  Biso   1.000  H
  C352     1.0000 0.61630  0.38370  0.88370  Biso   1.000  C
  H208     1.0000 0.59120  0.40880  0.90880  Biso   1.000  H
  O101     1.0000 0.00000  0.00000  0.50000  Biso   1.000  O
  O102     1.0000 0.50000  0.00000  0.00000  Biso   1.000  O
  O103     1.0000 0.00000  0.50000  0.00000  Biso   1.000  O
  O104     1.0000 0.50000  0.50000  0.50000  Biso   1.000  O
