data_image0
_cell_length_a       22.515
_cell_length_b       22.515
_cell_length_c       22.515
_cell_angle_alpha    90
_cell_angle_beta     90
_cell_angle_gamma    90

_symmetry_space_group_name_H-M    "P 1"
_symmetry_int_tables_number       1

loop_
  _symmetry_equiv_pos_as_xyz
  'x, y, z'

loop_
  _atom_site_label
  _atom_site_occupancy
  _atom_site_fract_x
  _atom_site_fract_y
  _atom_site_fract_z
  _atom_site_thermal_displace_type
  _atom_site_B_iso_or_equiv
  _atom_site_type_symbol
  C1       1.0000 0.67495  0.31792  0.04867  Biso   1.000  C
  C2       1.0000 0.66724  0.37896  0.03356  Biso   1.000  C
  H1       1.0000 0.67080  0.40800  0.06280  Biso   1.000  H
  C3       1.0000 0.65461  0.39520  0.97593  Biso   1.000  C
  H2       1.0000 0.65060  0.43510  0.96620  Biso   1.000  H
  C4       1.0000 0.64794  0.35266  0.93302  Biso   1.000  C
  C5       1.0000 0.65417  0.29338  0.94687  Biso   1.000  C
  H3       1.0000 0.64910  0.26460  0.91770  Biso   1.000  H
  C6       1.0000 0.66802  0.27697  0.00457  Biso   1.000  C
  H4       1.0000 0.67270  0.23690  0.01350  Biso   1.000  H
  C7       1.0000 0.69570  0.29860  0.10903  Biso   1.000  C
  O1       1.0000 0.70520  0.24760  0.11500  Biso   1.000  O
  O2       1.0000 0.69876  0.33515  0.15002  Biso   1.000  O
  Zn1      1.0000 0.67741  0.23739  0.20381  Biso   1.000  Zn
  C8       1.0000 0.82505  0.68208  0.54867  Biso   1.000  C
  C9       1.0000 0.83276  0.62104  0.53356  Biso   1.000  C
  H5       1.0000 0.82920  0.59200  0.56280  Biso   1.000  H
  C10      1.0000 0.84539  0.60480  0.47593  Biso   1.000  C
  H6       1.0000 0.84940  0.56490  0.46620  Biso   1.000  H
  C11      1.0000 0.85206  0.64734  0.43302  Biso   1.000  C
  C12      1.0000 0.84583  0.70662  0.44687  Biso   1.000  C
  H7       1.0000 0.85090  0.73540  0.41770  Biso   1.000  H
  C13      1.0000 0.83198  0.72303  0.50457  Biso   1.000  C
  H8       1.0000 0.82730  0.76310  0.51350  Biso   1.000  H
  C14      1.0000 0.80430  0.70140  0.60903  Biso   1.000  C
  O3       1.0000 0.79480  0.75240  0.61500  Biso   1.000  O
  O4       1.0000 0.80124  0.66485  0.65002  Biso   1.000  O
  Zn2      1.0000 0.82259  0.76261  0.70381  Biso   1.000  Zn
  C15      1.0000 0.32505  0.81792  0.45133  Biso   1.000  C
  C16      1.0000 0.33276  0.87896  0.46644  Biso   1.000  C
  H9       1.0000 0.32920  0.90800  0.43720  Biso   1.000  H
  C17      1.0000 0.34539  0.89520  0.52407  Biso   1.000  C
  H10      1.0000 0.34940  0.93510  0.53380  Biso   1.000  H
  C18      1.0000 0.35206  0.85266  0.56698  Biso   1.000  C
  C19      1.0000 0.34583  0.79338  0.55313  Biso   1.000  C
  H11      1.0000 0.35090  0.76460  0.58230  Biso   1.000  H
  C20      1.0000 0.33198  0.77697  0.49543  Biso   1.000  C
  H12      1.0000 0.32730  0.73690  0.48650  Biso   1.000  H
  C21      1.0000 0.30430  0.79860  0.39097  Biso   1.000  C
  O5       1.0000 0.29480  0.74760  0.38500  Biso   1.000  O
  O6       1.0000 0.30124  0.83515  0.34998  Biso   1.000  O
  Zn3      1.0000 0.32259  0.73739  0.29619  Biso   1.000  Zn
  C22      1.0000 0.17495  0.18208  0.95133  Biso   1.000  C
  C23      1.0000 0.16724  0.12104  0.96644  Biso   1.000  C
  H13      1.0000 0.17080  0.09200  0.93720  Biso   1.000  H
  C24      1.0000 0.15461  0.10480  0.02407  Biso   1.000  C
  H14      1.0000 0.15060  0.06490  0.03380  Biso   1.000  H
  C25      1.0000 0.14794  0.14734  0.06698  Biso   1.000  C
  C26      1.0000 0.15417  0.20662  0.05313  Biso   1.000  C
  H15      1.0000 0.14910  0.23540  0.08230  Biso   1.000  H
  C27      1.0000 0.16802  0.22303  0.99543  Biso   1.000  C
  H16      1.0000 0.17270  0.26310  0.98650  Biso   1.000  H
  C28      1.0000 0.19570  0.20140  0.89097  Biso   1.000  C
  O7       1.0000 0.20520  0.25240  0.88500  Biso   1.000  O
  O8       1.0000 0.19876  0.16485  0.84998  Biso   1.000  O
  Zn4      1.0000 0.17741  0.26261  0.79619  Biso   1.000  Zn
  C29      1.0000 0.04867  0.67495  0.31792  Biso   1.000  C
  C30      1.0000 0.03356  0.66724  0.37896  Biso   1.000  C
  H17      1.0000 0.06280  0.67080  0.40800  Biso   1.000  H
  C31      1.0000 0.97593  0.65461  0.39520  Biso   1.000  C
  H18      1.0000 0.96620  0.65060  0.43510  Biso   1.000  H
  C32      1.0000 0.93302  0.64794  0.35266  Biso   1.000  C
  C33      1.0000 0.94687  0.65417  0.29338  Biso   1.000  C
  H19      1.0000 0.91770  0.64910  0.26460  Biso   1.000  H
  C34      1.0000 0.00457  0.66802  0.27697  Biso   1.000  C
  H20      1.0000 0.01350  0.67270  0.23690  Biso   1.000  H
  C35      1.0000 0.10903  0.69570  0.29860  Biso   1.000  C
  O9       1.0000 0.11500  0.70520  0.24760  Biso   1.000  O
  O10      1.0000 0.15002  0.69876  0.33515  Biso   1.000  O
  Zn5      1.0000 0.20381  0.67741  0.23739  Biso   1.000  Zn
  C36      1.0000 0.54867  0.82505  0.68208  Biso   1.000  C
  C37      1.0000 0.53356  0.83276  0.62104  Biso   1.000  C
  H21      1.0000 0.56280  0.82920  0.59200  Biso   1.000  H
  C38      1.0000 0.47593  0.84539  0.60480  Biso   1.000  C
  H22      1.0000 0.46620  0.84940  0.56490  Biso   1.000  H
  C39      1.0000 0.43302  0.85206  0.64734  Biso   1.000  C
  C40      1.0000 0.44687  0.84583  0.70662  Biso   1.000  C
  H23      1.0000 0.41770  0.85090  0.73540  Biso   1.000  H
  C41      1.0000 0.50457  0.83198  0.72303  Biso   1.000  C
  H24      1.0000 0.51350  0.82730  0.76310  Biso   1.000  H
  C42      1.0000 0.60903  0.80430  0.70140  Biso   1.000  C
  O11      1.0000 0.61500  0.79480  0.75240  Biso   1.000  O
  O12      1.0000 0.65002  0.80124  0.66485  Biso   1.000  O
  Zn6      1.0000 0.70381  0.82259  0.76261  Biso   1.000  Zn
  C43      1.0000 0.45133  0.32505  0.81792  Biso   1.000  C
  C44      1.0000 0.46644  0.33276  0.87896  Biso   1.000  C
  H25      1.0000 0.43720  0.32920  0.90800  Biso   1.000  H
  C45      1.0000 0.52407  0.34539  0.89520  Biso   1.000  C
  H26      1.0000 0.53380  0.34940  0.93510  Biso   1.000  H
  C46      1.0000 0.56698  0.35206  0.85266  Biso   1.000  C
  C47      1.0000 0.55313  0.34583  0.79338  Biso   1.000  C
  H27      1.0000 0.58230  0.35090  0.76460  Biso   1.000  H
  C48      1.0000 0.49543  0.33198  0.77697  Biso   1.000  C
  H28      1.0000 0.48650  0.32730  0.73690  Biso   1.000  H
  C49      1.0000 0.39097  0.30430  0.79860  Biso   1.000  C
  O13      1.0000 0.38500  0.29480  0.74760  Biso   1.000  O
  O14      1.0000 0.34998  0.30124  0.83515  Biso   1.000  O
  Zn7      1.0000 0.29619  0.32259  0.73739  Biso   1.000  Zn
  C50      1.0000 0.95133  0.17495  0.18208  Biso   1.000  C
  C51      1.0000 0.96644  0.16724  0.12104  Biso   1.000  C
  H29      1.0000 0.93720  0.17080  0.09200  Biso   1.000  H
  C52      1.0000 0.02407  0.15461  0.10480  Biso   1.000  C
  H30      1.0000 0.03380  0.15060  0.06490  Biso   1.000  H
  C53      1.0000 0.06698  0.14794  0.14734  Biso   1.000  C
  C54      1.0000 0.05313  0.15417  0.20662  Biso   1.000  C
  H31      1.0000 0.08230  0.14910  0.23540  Biso   1.000  H
  C55      1.0000 0.99543  0.16802  0.22303  Biso   1.000  C
  H32      1.0000 0.98650  0.17270  0.26310  Biso   1.000  H
  C56      1.0000 0.89097  0.19570  0.20140  Biso   1.000  C
  O15      1.0000 0.88500  0.20520  0.25240  Biso   1.000  O
  O16      1.0000 0.84998  0.19876  0.16485  Biso   1.000  O
  Zn8      1.0000 0.79619  0.17741  0.26261  Biso   1.000  Zn
  C57      1.0000 0.31792  0.04867  0.67495  Biso   1.000  C
  C58      1.0000 0.37896  0.03356  0.66724  Biso   1.000  C
  H33      1.0000 0.40800  0.06280  0.67080  Biso   1.000  H
  C59      1.0000 0.39520  0.97593  0.65461  Biso   1.000  C
  H34      1.0000 0.43510  0.96620  0.65060  Biso   1.000  H
  C60      1.0000 0.35266  0.93302  0.64794  Biso   1.000  C
  C61      1.0000 0.29338  0.94687  0.65417  Biso   1.000  C
  H35      1.0000 0.26460  0.91770  0.64910  Biso   1.000  H
  C62      1.0000 0.27697  0.00457  0.66802  Biso   1.000  C
  H36      1.0000 0.23690  0.01350  0.67270  Biso   1.000  H
  C63      1.0000 0.29860  0.10903  0.69570  Biso   1.000  C
  O17      1.0000 0.24760  0.11500  0.70520  Biso   1.000  O
  O18      1.0000 0.33515  0.15002  0.69876  Biso   1.000  O
  Zn9      1.0000 0.23739  0.20381  0.67741  Biso   1.000  Zn
  C64      1.0000 0.68208  0.54867  0.82505  Biso   1.000  C
  C65      1.0000 0.62104  0.53356  0.83276  Biso   1.000  C
  H37      1.0000 0.59200  0.56280  0.82920  Biso   1.000  H
  C66      1.0000 0.60480  0.47593  0.84539  Biso   1.000  C
  H38      1.0000 0.56490  0.46620  0.84940  Biso   1.000  H
  C67      1.0000 0.64734  0.43302  0.85206  Biso   1.000  C
  C68      1.0000 0.70662  0.44687  0.84583  Biso   1.000  C
  H39      1.0000 0.73540  0.41770  0.85090  Biso   1.000  H
  C69      1.0000 0.72303  0.50457  0.83198  Biso   1.000  C
  H40      1.0000 0.76310  0.51350  0.82730  Biso   1.000  H
  C70      1.0000 0.70140  0.60903  0.80430  Biso   1.000  C
  O19      1.0000 0.75240  0.61500  0.79480  Biso   1.000  O
  O20      1.0000 0.66485  0.65002  0.80124  Biso   1.000  O
  Zn10     1.0000 0.76261  0.70381  0.82259  Biso   1.000  Zn
  C71      1.0000 0.81792  0.45133  0.32505  Biso   1.000  C
  C72      1.0000 0.87896  0.46644  0.33276  Biso   1.000  C
  H41      1.0000 0.90800  0.43720  0.32920  Biso   1.000  H
  C73      1.0000 0.89520  0.52407  0.34539  Biso   1.000  C
  H42      1.0000 0.93510  0.53380  0.34940  Biso   1.000  H
  C74      1.0000 0.85266  0.56698  0.35206  Biso   1.000  C
  C75      1.0000 0.79338  0.55313  0.34583  Biso   1.000  C
  H43      1.0000 0.76460  0.58230  0.35090  Biso   1.000  H
  C76      1.0000 0.77697  0.49543  0.33198  Biso   1.000  C
  H44      1.0000 0.73690  0.48650  0.32730  Biso   1.000  H
  C77      1.0000 0.79860  0.39097  0.30430  Biso   1.000  C
  O21      1.0000 0.74760  0.38500  0.29480  Biso   1.000  O
  O22      1.0000 0.83515  0.34998  0.30124  Biso   1.000  O
  Zn11     1.0000 0.73739  0.29619  0.32259  Biso   1.000  Zn
  C78      1.0000 0.18208  0.95133  0.17495  Biso   1.000  C
  C79      1.0000 0.12104  0.96644  0.16724  Biso   1.000  C
  H45      1.0000 0.09200  0.93720  0.17080  Biso   1.000  H
  C80      1.0000 0.10480  0.02407  0.15461  Biso   1.000  C
  H46      1.0000 0.06490  0.03380  0.15060  Biso   1.000  H
  C81      1.0000 0.14734  0.06698  0.14794  Biso   1.000  C
  C82      1.0000 0.20662  0.05313  0.15417  Biso   1.000  C
  H47      1.0000 0.23540  0.08230  0.14910  Biso   1.000  H
  C83      1.0000 0.22303  0.99543  0.16802  Biso   1.000  C
  H48      1.0000 0.26310  0.98650  0.17270  Biso   1.000  H
  C84      1.0000 0.20140  0.89097  0.19570  Biso   1.000  C
  O23      1.0000 0.25240  0.88500  0.20520  Biso   1.000  O
  O24      1.0000 0.16485  0.84998  0.19876  Biso   1.000  O
  Zn12     1.0000 0.26261  0.79619  0.17741  Biso   1.000  Zn
  C85      1.0000 0.82505  0.18208  0.45133  Biso   1.000  C
  C86      1.0000 0.83276  0.12104  0.46644  Biso   1.000  C
  H49      1.0000 0.82920  0.09200  0.43720  Biso   1.000  H
  C87      1.0000 0.84539  0.10480  0.52407  Biso   1.000  C
  H50      1.0000 0.84940  0.06490  0.53380  Biso   1.000  H
  C88      1.0000 0.85206  0.14734  0.56698  Biso   1.000  C
  C89      1.0000 0.84583  0.20662  0.55313  Biso   1.000  C
  H51      1.0000 0.85090  0.23540  0.58230  Biso   1.000  H
  C90      1.0000 0.83198  0.22303  0.49543  Biso   1.000  C
  H52      1.0000 0.82730  0.26310  0.48650  Biso   1.000  H
  C91      1.0000 0.80430  0.20140  0.39097  Biso   1.000  C
  O25      1.0000 0.79480  0.25240  0.38500  Biso   1.000  O
  O26      1.0000 0.80124  0.16485  0.34998  Biso   1.000  O
  Zn13     1.0000 0.82259  0.26261  0.29619  Biso   1.000  Zn
  C92      1.0000 0.67495  0.81792  0.95133  Biso   1.000  C
  C93      1.0000 0.66724  0.87896  0.96644  Biso   1.000  C
  H53      1.0000 0.67080  0.90800  0.93720  Biso   1.000  H
  C94      1.0000 0.65461  0.89520  0.02407  Biso   1.000  C
  H54      1.0000 0.65060  0.93510  0.03380  Biso   1.000  H
  C95      1.0000 0.64794  0.85266  0.06698  Biso   1.000  C
  C96      1.0000 0.65417  0.79338  0.05313  Biso   1.000  C
  H55      1.0000 0.64910  0.76460  0.08230  Biso   1.000  H
  C97      1.0000 0.66802  0.77697  0.99543  Biso   1.000  C
  H56      1.0000 0.67270  0.73690  0.98650  Biso   1.000  H
  C98      1.0000 0.69570  0.79860  0.89097  Biso   1.000  C
  O27      1.0000 0.70520  0.74760  0.88500  Biso   1.000  O
  O28      1.0000 0.69876  0.83515  0.84998  Biso   1.000  O
  Zn14     1.0000 0.67741  0.73739  0.79619  Biso   1.000  Zn
  C99      1.0000 0.17495  0.68208  0.04867  Biso   1.000  C
  C100     1.0000 0.16724  0.62104  0.03356  Biso   1.000  C
  H57      1.0000 0.17080  0.59200  0.06280  Biso   1.000  H
  C101     1.0000 0.15461  0.60480  0.97593  Biso   1.000  C
  H58      1.0000 0.15060  0.56490  0.96620  Biso   1.000  H
  C102     1.0000 0.14794  0.64734  0.93302  Biso   1.000  C
  C103     1.0000 0.15417  0.70662  0.94687  Biso   1.000  C
  H59      1.0000 0.14910  0.73540  0.91770  Biso   1.000  H
  C104     1.0000 0.16802  0.72303  0.00457  Biso   1.000  C
  H60      1.0000 0.17270  0.76310  0.01350  Biso   1.000  H
  C105     1.0000 0.19570  0.70140  0.10903  Biso   1.000  C
  O29      1.0000 0.20520  0.75240  0.11500  Biso   1.000  O
  O30      1.0000 0.19876  0.66485  0.15002  Biso   1.000  O
  Zn15     1.0000 0.17741  0.76261  0.20381  Biso   1.000  Zn
  C106     1.0000 0.32505  0.31792  0.54867  Biso   1.000  C
  C107     1.0000 0.33276  0.37896  0.53356  Biso   1.000  C
  H61      1.0000 0.32920  0.40800  0.56280  Biso   1.000  H
  C108     1.0000 0.34539  0.39520  0.47593  Biso   1.000  C
  H62      1.0000 0.34940  0.43510  0.46620  Biso   1.000  H
  C109     1.0000 0.35206  0.35266  0.43302  Biso   1.000  C
  C110     1.0000 0.34583  0.29338  0.44687  Biso   1.000  C
  H63      1.0000 0.35090  0.26460  0.41770  Biso   1.000  H
  C111     1.0000 0.33198  0.27697  0.50457  Biso   1.000  C
  H64      1.0000 0.32730  0.23690  0.51350  Biso   1.000  H
  C112     1.0000 0.30430  0.29860  0.60903  Biso   1.000  C
  O31      1.0000 0.29480  0.24760  0.61500  Biso   1.000  O
  O32      1.0000 0.30124  0.33515  0.65002  Biso   1.000  O
  Zn16     1.0000 0.32259  0.23739  0.70381  Biso   1.000  Zn
  C113     1.0000 0.45133  0.82505  0.18208  Biso   1.000  C
  C114     1.0000 0.46644  0.83276  0.12104  Biso   1.000  C
  H65      1.0000 0.43720  0.82920  0.09200  Biso   1.000  H
  C115     1.0000 0.52407  0.84539  0.10480  Biso   1.000  C
  H66      1.0000 0.53380  0.84940  0.06490  Biso   1.000  H
  C116     1.0000 0.56698  0.85206  0.14734  Biso   1.000  C
  C117     1.0000 0.55313  0.84583  0.20662  Biso   1.000  C
  H67      1.0000 0.58230  0.85090  0.23540  Biso   1.000  H
  C118     1.0000 0.49543  0.83198  0.22303  Biso   1.000  C
  H68      1.0000 0.48650  0.82730  0.26310  Biso   1.000  H
  C119     1.0000 0.39097  0.80430  0.20140  Biso   1.000  C
  O33      1.0000 0.38500  0.79480  0.25240  Biso   1.000  O
  O34      1.0000 0.34998  0.80124  0.16485  Biso   1.000  O
  Zn17     1.0000 0.29619  0.82259  0.26261  Biso   1.000  Zn
  C120     1.0000 0.95133  0.67495  0.81792  Biso   1.000  C
  C121     1.0000 0.96644  0.66724  0.87896  Biso   1.000  C
  H69      1.0000 0.93720  0.67080  0.90800  Biso   1.000  H
  C122     1.0000 0.02407  0.65461  0.89520  Biso   1.000  C
  H70      1.0000 0.03380  0.65060  0.93510  Biso   1.000  H
  C123     1.0000 0.06698  0.64794  0.85266  Biso   1.000  C
  C124     1.0000 0.05313  0.65417  0.79338  Biso   1.000  C
  H71      1.0000 0.08230  0.64910  0.76460  Biso   1.000  H
  C125     1.0000 0.99543  0.66802  0.77697  Biso   1.000  C
  H72      1.0000 0.98650  0.67270  0.73690  Biso   1.000  H
  C126     1.0000 0.89097  0.69570  0.79860  Biso   1.000  C
  O35      1.0000 0.88500  0.70520  0.74760  Biso   1.000  O
  O36      1.0000 0.84998  0.69876  0.83515  Biso   1.000  O
  Zn18     1.0000 0.79619  0.67741  0.73739  Biso   1.000  Zn
  C127     1.0000 0.04867  0.17495  0.68208  Biso   1.000  C
  C128     1.0000 0.03356  0.16724  0.62104  Biso   1.000  C
  H73      1.0000 0.06280  0.17080  0.59200  Biso   1.000  H
  C129     1.0000 0.97593  0.15461  0.60480  Biso   1.000  C
  H74      1.0000 0.96620  0.15060  0.56490  Biso   1.000  H
  C130     1.0000 0.93302  0.14794  0.64734  Biso   1.000  C
  C131     1.0000 0.94687  0.15417  0.70662  Biso   1.000  C
  H75      1.0000 0.91770  0.14910  0.73540  Biso   1.000  H
  C132     1.0000 0.00457  0.16802  0.72303  Biso   1.000  C
  H76      1.0000 0.01350  0.17270  0.76310  Biso   1.000  H
  C133     1.0000 0.10903  0.19570  0.70140  Biso   1.000  C
  O37      1.0000 0.11500  0.20520  0.75240  Biso   1.000  O
  O38      1.0000 0.15002  0.19876  0.66485  Biso   1.000  O
  Zn19     1.0000 0.20381  0.17741  0.76261  Biso   1.000  Zn
  C134     1.0000 0.54867  0.32505  0.31792  Biso   1.000  C
  C135     1.0000 0.53356  0.33276  0.37896  Biso   1.000  C
  H77      1.0000 0.56280  0.32920  0.40800  Biso   1.000  H
  C136     1.0000 0.47593  0.34539  0.39520  Biso   1.000  C
  H78      1.0000 0.46620  0.34940  0.43510  Biso   1.000  H
  C137     1.0000 0.43302  0.35206  0.35266  Biso   1.000  C
  C138     1.0000 0.44687  0.34583  0.29338  Biso   1.000  C
  H79      1.0000 0.41770  0.35090  0.26460  Biso   1.000  H
  C139     1.0000 0.50457  0.33198  0.27697  Biso   1.000  C
  H80      1.0000 0.51350  0.32730  0.23690  Biso   1.000  H
  C140     1.0000 0.60903  0.30430  0.29860  Biso   1.000  C
  O39      1.0000 0.61500  0.29480  0.24760  Biso   1.000  O
  O40      1.0000 0.65002  0.30124  0.33515  Biso   1.000  O
  Zn20     1.0000 0.70381  0.32259  0.23739  Biso   1.000  Zn
  C141     1.0000 0.18208  0.45133  0.82505  Biso   1.000  C
  C142     1.0000 0.12104  0.46644  0.83276  Biso   1.000  C
  H81      1.0000 0.09200  0.43720  0.82920  Biso   1.000  H
  C143     1.0000 0.10480  0.52407  0.84539  Biso   1.000  C
  H82      1.0000 0.06490  0.53380  0.84940  Biso   1.000  H
  C144     1.0000 0.14734  0.56698  0.85206  Biso   1.000  C
  C145     1.0000 0.20662  0.55313  0.84583  Biso   1.000  C
  H83      1.0000 0.23540  0.58230  0.85090  Biso   1.000  H
  C146     1.0000 0.22303  0.49543  0.83198  Biso   1.000  C
  H84      1.0000 0.26310  0.48650  0.82730  Biso   1.000  H
  C147     1.0000 0.20140  0.39097  0.80430  Biso   1.000  C
  O41      1.0000 0.25240  0.38500  0.79480  Biso   1.000  O
  O42      1.0000 0.16485  0.34998  0.80124  Biso   1.000  O
  Zn21     1.0000 0.26261  0.29619  0.82259  Biso   1.000  Zn
  C148     1.0000 0.81792  0.95133  0.67495  Biso   1.000  C
  C149     1.0000 0.87896  0.96644  0.66724  Biso   1.000  C
  H85      1.0000 0.90800  0.93720  0.67080  Biso   1.000  H
  C150     1.0000 0.89520  0.02407  0.65461  Biso   1.000  C
  H86      1.0000 0.93510  0.03380  0.65060  Biso   1.000  H
  C151     1.0000 0.85266  0.06698  0.64794  Biso   1.000  C
  C152     1.0000 0.79338  0.05313  0.65417  Biso   1.000  C
  H87      1.0000 0.76460  0.08230  0.64910  Biso   1.000  H
  C153     1.0000 0.77697  0.99543  0.66802  Biso   1.000  C
  H88      1.0000 0.73690  0.98650  0.67270  Biso   1.000  H
  C154     1.0000 0.79860  0.89097  0.69570  Biso   1.000  C
  O43      1.0000 0.74760  0.88500  0.70520  Biso   1.000  O
  O44      1.0000 0.83515  0.84998  0.69876  Biso   1.000  O
  Zn22     1.0000 0.73739  0.79619  0.67741  Biso   1.000  Zn
  C155     1.0000 0.68208  0.04867  0.17495  Biso   1.000  C
  C156     1.0000 0.62104  0.03356  0.16724  Biso   1.000  C
  H89      1.0000 0.59200  0.06280  0.17080  Biso   1.000  H
  C157     1.0000 0.60480  0.97593  0.15461  Biso   1.000  C
  H90      1.0000 0.56490  0.96620  0.15060  Biso   1.000  H
  C158     1.0000 0.64734  0.93302  0.14794  Biso   1.000  C
  C159     1.0000 0.70662  0.94687  0.15417  Biso   1.000  C
  H91      1.0000 0.73540  0.91770  0.14910  Biso   1.000  H
  C160     1.0000 0.72303  0.00457  0.16802  Biso   1.000  C
  H92      1.0000 0.76310  0.01350  0.17270  Biso   1.000  H
  C161     1.0000 0.70140  0.10903  0.19570  Biso   1.000  C
  O45      1.0000 0.75240  0.11500  0.20520  Biso   1.000  O
  O46      1.0000 0.66485  0.15002  0.19876  Biso   1.000  O
  Zn23     1.0000 0.76261  0.20381  0.17741  Biso   1.000  Zn
  C162     1.0000 0.31792  0.54867  0.32505  Biso   1.000  C
  C163     1.0000 0.37896  0.53356  0.33276  Biso   1.000  C
  H93      1.0000 0.40800  0.56280  0.32920  Biso   1.000  H
  C164     1.0000 0.39520  0.47593  0.34539  Biso   1.000  C
  H94      1.0000 0.43510  0.46620  0.34940  Biso   1.000  H
  C165     1.0000 0.35266  0.43302  0.35206  Biso   1.000  C
  C166     1.0000 0.29338  0.44687  0.34583  Biso   1.000  C
  H95      1.0000 0.26460  0.41770  0.35090  Biso   1.000  H
  C167     1.0000 0.27697  0.50457  0.33198  Biso   1.000  C
  H96      1.0000 0.23690  0.51350  0.32730  Biso   1.000  H
  C168     1.0000 0.29860  0.60903  0.30430  Biso   1.000  C
  O47      1.0000 0.24760  0.61500  0.29480  Biso   1.000  O
  O48      1.0000 0.33515  0.65002  0.30124  Biso   1.000  O
  Zn24     1.0000 0.23739  0.70381  0.32259  Biso   1.000  Zn
  C169     1.0000 0.63546  0.36454  0.86454  Biso   1.000  C
  H97      1.0000 0.66060  0.33940  0.83940  Biso   1.000  H
  C170     1.0000 0.86454  0.63546  0.36454  Biso   1.000  C
  H98      1.0000 0.83940  0.66060  0.33940  Biso   1.000  H
  C171     1.0000 0.36454  0.86454  0.63546  Biso   1.000  C
  H99      1.0000 0.33940  0.83940  0.66060  Biso   1.000  H
  C172     1.0000 0.13546  0.13546  0.13546  Biso   1.000  C
  H100     1.0000 0.16060  0.16060  0.16060  Biso   1.000  H
  C173     1.0000 0.86454  0.13546  0.63546  Biso   1.000  C
  H101     1.0000 0.83940  0.16060  0.66060  Biso   1.000  H
  C174     1.0000 0.63546  0.86454  0.13546  Biso   1.000  C
  H102     1.0000 0.66060  0.83940  0.16060  Biso   1.000  H
  C175     1.0000 0.13546  0.63546  0.86454  Biso   1.000  C
  H103     1.0000 0.16060  0.66060  0.83940  Biso   1.000  H
  C176     1.0000 0.36454  0.36454  0.36454  Biso   1.000  C
  H104     1.0000 0.33940  0.33940  0.33940  Biso   1.000  H
  O49      1.0000 0.75000  0.25000  0.25000  Biso   1.000  O
  O50      1.0000 0.75000  0.75000  0.75000  Biso   1.000  O
  O51      1.0000 0.25000  0.75000  0.25000  Biso   1.000  O
  O52      1.0000 0.25000  0.25000  0.75000  Biso   1.000  O
  C177     1.0000 0.17495  0.81792  0.54867  Biso   1.000  C
  C178     1.0000 0.16724  0.87896  0.53356  Biso   1.000  C
  H105     1.0000 0.17080  0.90800  0.56280  Biso   1.000  H
  C179     1.0000 0.15461  0.89520  0.47593  Biso   1.000  C
  H106     1.0000 0.15060  0.93510  0.46620  Biso   1.000  H
  C180     1.0000 0.14794  0.85266  0.43302  Biso   1.000  C
  C181     1.0000 0.15417  0.79338  0.44687  Biso   1.000  C
  H107     1.0000 0.14910  0.76460  0.41770  Biso   1.000  H
  C182     1.0000 0.16802  0.77697  0.50457  Biso   1.000  C
  H108     1.0000 0.17270  0.73690  0.51350  Biso   1.000  H
  C183     1.0000 0.19570  0.79860  0.60903  Biso   1.000  C
  O53      1.0000 0.20520  0.74760  0.61500  Biso   1.000  O
  O54      1.0000 0.19876  0.83515  0.65002  Biso   1.000  O
  Zn25     1.0000 0.17741  0.73739  0.70381  Biso   1.000  Zn
  C184     1.0000 0.32505  0.18208  0.04867  Biso   1.000  C
  C185     1.0000 0.33276  0.12104  0.03356  Biso   1.000  C
  H109     1.0000 0.32920  0.09200  0.06280  Biso   1.000  H
  C186     1.0000 0.34539  0.10480  0.97593  Biso   1.000  C
  H110     1.0000 0.34940  0.06490  0.96620  Biso   1.000  H
  C187     1.0000 0.35206  0.14734  0.93302  Biso   1.000  C
  C188     1.0000 0.34583  0.20662  0.94687  Biso   1.000  C
  H111     1.0000 0.35090  0.23540  0.91770  Biso   1.000  H
  C189     1.0000 0.33198  0.22303  0.00457  Biso   1.000  C
  H112     1.0000 0.32730  0.26310  0.01350  Biso   1.000  H
  C190     1.0000 0.30430  0.20140  0.10903  Biso   1.000  C
  O55      1.0000 0.29480  0.25240  0.11500  Biso   1.000  O
  O56      1.0000 0.30124  0.16485  0.15002  Biso   1.000  O
  Zn26     1.0000 0.32259  0.26261  0.20381  Biso   1.000  Zn
  C191     1.0000 0.82505  0.31792  0.95133  Biso   1.000  C
  C192     1.0000 0.83276  0.37896  0.96644  Biso   1.000  C
  H113     1.0000 0.82920  0.40800  0.93720  Biso   1.000  H
  C193     1.0000 0.84539  0.39520  0.02407  Biso   1.000  C
  H114     1.0000 0.84940  0.43510  0.03380  Biso   1.000  H
  C194     1.0000 0.85206  0.35266  0.06698  Biso   1.000  C
  C195     1.0000 0.84583  0.29338  0.05313  Biso   1.000  C
  H115     1.0000 0.85090  0.26460  0.08230  Biso   1.000  H
  C196     1.0000 0.83198  0.27697  0.99543  Biso   1.000  C
  H116     1.0000 0.82730  0.23690  0.98650  Biso   1.000  H
  C197     1.0000 0.80430  0.29860  0.89097  Biso   1.000  C
  O57      1.0000 0.79480  0.24760  0.88500  Biso   1.000  O
  O58      1.0000 0.80124  0.33515  0.84998  Biso   1.000  O
  Zn27     1.0000 0.82259  0.23739  0.79619  Biso   1.000  Zn
  C198     1.0000 0.67495  0.68208  0.45133  Biso   1.000  C
  C199     1.0000 0.66724  0.62104  0.46644  Biso   1.000  C
  H117     1.0000 0.67080  0.59200  0.43720  Biso   1.000  H
  C200     1.0000 0.65461  0.60480  0.52407  Biso   1.000  C
  H118     1.0000 0.65060  0.56490  0.53380  Biso   1.000  H
  C201     1.0000 0.64794  0.64734  0.56698  Biso   1.000  C
  C202     1.0000 0.65417  0.70662  0.55313  Biso   1.000  C
  H119     1.0000 0.64910  0.73540  0.58230  Biso   1.000  H
  C203     1.0000 0.66802  0.72303  0.49543  Biso   1.000  C
  H120     1.0000 0.67270  0.76310  0.48650  Biso   1.000  H
  C204     1.0000 0.69570  0.70140  0.39097  Biso   1.000  C
  O59      1.0000 0.70520  0.75240  0.38500  Biso   1.000  O
  O60      1.0000 0.69876  0.66485  0.34998  Biso   1.000  O
  Zn28     1.0000 0.67741  0.76261  0.29619  Biso   1.000  Zn
  C205     1.0000 0.54867  0.17495  0.81792  Biso   1.000  C
  C206     1.0000 0.53356  0.16724  0.87896  Biso   1.000  C
  H121     1.0000 0.56280  0.17080  0.90800  Biso   1.000  H
  C207     1.0000 0.47593  0.15461  0.89520  Biso   1.000  C
  H122     1.0000 0.46620  0.15060  0.93510  Biso   1.000  H
  C208     1.0000 0.43302  0.14794  0.85266  Biso   1.000  C
  C209     1.0000 0.44687  0.15417  0.79338  Biso   1.000  C
  H123     1.0000 0.41770  0.14910  0.76460  Biso   1.000  H
  C210     1.0000 0.50457  0.16802  0.77697  Biso   1.000  C
  H124     1.0000 0.51350  0.17270  0.73690  Biso   1.000  H
  C211     1.0000 0.60903  0.19570  0.79860  Biso   1.000  C
  O61      1.0000 0.61500  0.20520  0.74760  Biso   1.000  O
  O62      1.0000 0.65002  0.19876  0.83515  Biso   1.000  O
  Zn29     1.0000 0.70381  0.17741  0.73739  Biso   1.000  Zn
  C212     1.0000 0.04867  0.32505  0.18208  Biso   1.000  C
  C213     1.0000 0.03356  0.33276  0.12104  Biso   1.000  C
  H125     1.0000 0.06280  0.32920  0.09200  Biso   1.000  H
  C214     1.0000 0.97593  0.34539  0.10480  Biso   1.000  C
  H126     1.0000 0.96620  0.34940  0.06490  Biso   1.000  H
  C215     1.0000 0.93302  0.35206  0.14734  Biso   1.000  C
  C216     1.0000 0.94687  0.34583  0.20662  Biso   1.000  C
  H127     1.0000 0.91770  0.35090  0.23540  Biso   1.000  H
  C217     1.0000 0.00457  0.33198  0.22303  Biso   1.000  C
  H128     1.0000 0.01350  0.32730  0.26310  Biso   1.000  H
  C218     1.0000 0.10903  0.30430  0.20140  Biso   1.000  C
  O63      1.0000 0.11500  0.29480  0.25240  Biso   1.000  O
  O64      1.0000 0.15002  0.30124  0.16485  Biso   1.000  O
  Zn30     1.0000 0.20381  0.32259  0.26261  Biso   1.000  Zn
  C219     1.0000 0.95133  0.82505  0.31792  Biso   1.000  C
  C220     1.0000 0.96644  0.83276  0.37896  Biso   1.000  C
  H129     1.0000 0.93720  0.82920  0.40800  Biso   1.000  H
  C221     1.0000 0.02407  0.84539  0.39520  Biso   1.000  C
  H130     1.0000 0.03380  0.84940  0.43510  Biso   1.000  H
  C222     1.0000 0.06698  0.85206  0.35266  Biso   1.000  C
  C223     1.0000 0.05313  0.84583  0.29338  Biso   1.000  C
  H131     1.0000 0.08230  0.85090  0.26460  Biso   1.000  H
  C224     1.0000 0.99543  0.83198  0.27697  Biso   1.000  C
  H132     1.0000 0.98650  0.82730  0.23690  Biso   1.000  H
  C225     1.0000 0.89097  0.80430  0.29860  Biso   1.000  C
  O65      1.0000 0.88500  0.79480  0.24760  Biso   1.000  O
  O66      1.0000 0.84998  0.80124  0.33515  Biso   1.000  O
  Zn31     1.0000 0.79619  0.82259  0.23739  Biso   1.000  Zn
  C226     1.0000 0.45133  0.67495  0.68208  Biso   1.000  C
  C227     1.0000 0.46644  0.66724  0.62104  Biso   1.000  C
  H133     1.0000 0.43720  0.67080  0.59200  Biso   1.000  H
  C228     1.0000 0.52407  0.65461  0.60480  Biso   1.000  C
  H134     1.0000 0.53380  0.65060  0.56490  Biso   1.000  H
  C229     1.0000 0.56698  0.64794  0.64734  Biso   1.000  C
  C230     1.0000 0.55313  0.65417  0.70662  Biso   1.000  C
  H135     1.0000 0.58230  0.64910  0.73540  Biso   1.000  H
  C231     1.0000 0.49543  0.66802  0.72303  Biso   1.000  C
  H136     1.0000 0.48650  0.67270  0.76310  Biso   1.000  H
  C232     1.0000 0.39097  0.69570  0.70140  Biso   1.000  C
  O67      1.0000 0.38500  0.70520  0.75240  Biso   1.000  O
  O68      1.0000 0.34998  0.69876  0.66485  Biso   1.000  O
  Zn32     1.0000 0.29619  0.67741  0.76261  Biso   1.000  Zn
  C233     1.0000 0.81792  0.54867  0.17495  Biso   1.000  C
  C234     1.0000 0.87896  0.53356  0.16724  Biso   1.000  C
  H137     1.0000 0.90800  0.56280  0.17080  Biso   1.000  H
  C235     1.0000 0.89520  0.47593  0.15461  Biso   1.000  C
  H138     1.0000 0.93510  0.46620  0.15060  Biso   1.000  H
  C236     1.0000 0.85266  0.43302  0.14794  Biso   1.000  C
  C237     1.0000 0.79338  0.44687  0.15417  Biso   1.000  C
  H139     1.0000 0.76460  0.41770  0.14910  Biso   1.000  H
  C238     1.0000 0.77697  0.50457  0.16802  Biso   1.000  C
  H140     1.0000 0.73690  0.51350  0.17270  Biso   1.000  H
  C239     1.0000 0.79860  0.60903  0.19570  Biso   1.000  C
  O69      1.0000 0.74760  0.61500  0.20520  Biso   1.000  O
  O70      1.0000 0.83515  0.65002  0.19876  Biso   1.000  O
  Zn33     1.0000 0.73739  0.70381  0.17741  Biso   1.000  Zn
  C240     1.0000 0.18208  0.04867  0.32505  Biso   1.000  C
  C241     1.0000 0.12104  0.03356  0.33276  Biso   1.000  C
  H141     1.0000 0.09200  0.06280  0.32920  Biso   1.000  H
  C242     1.0000 0.10480  0.97593  0.34539  Biso   1.000  C
  H142     1.0000 0.06490  0.96620  0.34940  Biso   1.000  H
  C243     1.0000 0.14734  0.93302  0.35206  Biso   1.000  C
  C244     1.0000 0.20662  0.94687  0.34583  Biso   1.000  C
  H143     1.0000 0.23540  0.91770  0.35090  Biso   1.000  H
  C245     1.0000 0.22303  0.00457  0.33198  Biso   1.000  C
  H144     1.0000 0.26310  0.01350  0.32730  Biso   1.000  H
  C246     1.0000 0.20140  0.10903  0.30430  Biso   1.000  C
  O71      1.0000 0.25240  0.11500  0.29480  Biso   1.000  O
  O72      1.0000 0.16485  0.15002  0.30124  Biso   1.000  O
  Zn34     1.0000 0.26261  0.20381  0.32259  Biso   1.000  Zn
  C247     1.0000 0.31792  0.95133  0.82505  Biso   1.000  C
  C248     1.0000 0.37896  0.96644  0.83276  Biso   1.000  C
  H145     1.0000 0.40800  0.93720  0.82920  Biso   1.000  H
  C249     1.0000 0.39520  0.02407  0.84539  Biso   1.000  C
  H146     1.0000 0.43510  0.03380  0.84940  Biso   1.000  H
  C250     1.0000 0.35266  0.06698  0.85206  Biso   1.000  C
  C251     1.0000 0.29338  0.05313  0.84583  Biso   1.000  C
  H147     1.0000 0.26460  0.08230  0.85090  Biso   1.000  H
  C252     1.0000 0.27697  0.99543  0.83198  Biso   1.000  C
  H148     1.0000 0.23690  0.98650  0.82730  Biso   1.000  H
  C253     1.0000 0.29860  0.89097  0.80430  Biso   1.000  C
  O73      1.0000 0.24760  0.88500  0.79480  Biso   1.000  O
  O74      1.0000 0.33515  0.84998  0.80124  Biso   1.000  O
  Zn35     1.0000 0.23739  0.79619  0.82259  Biso   1.000  Zn
  C254     1.0000 0.68208  0.45133  0.67495  Biso   1.000  C
  C255     1.0000 0.62104  0.46644  0.66724  Biso   1.000  C
  H149     1.0000 0.59200  0.43720  0.67080  Biso   1.000  H
  C256     1.0000 0.60480  0.52407  0.65461  Biso   1.000  C
  H150     1.0000 0.56490  0.53380  0.65060  Biso   1.000  H
  C257     1.0000 0.64734  0.56698  0.64794  Biso   1.000  C
  C258     1.0000 0.70662  0.55313  0.65417  Biso   1.000  C
  H151     1.0000 0.73540  0.58230  0.64910  Biso   1.000  H
  C259     1.0000 0.72303  0.49543  0.66802  Biso   1.000  C
  H152     1.0000 0.76310  0.48650  0.67270  Biso   1.000  H
  C260     1.0000 0.70140  0.39097  0.69570  Biso   1.000  C
  O75      1.0000 0.75240  0.38500  0.70520  Biso   1.000  O
  O76      1.0000 0.66485  0.34998  0.69876  Biso   1.000  O
  Zn36     1.0000 0.76261  0.29619  0.67741  Biso   1.000  Zn
  C261     1.0000 0.32505  0.68208  0.95133  Biso   1.000  C
  C262     1.0000 0.33276  0.62104  0.96644  Biso   1.000  C
  H153     1.0000 0.32920  0.59200  0.93720  Biso   1.000  H
  C263     1.0000 0.34539  0.60480  0.02407  Biso   1.000  C
  H154     1.0000 0.34940  0.56490  0.03380  Biso   1.000  H
  C264     1.0000 0.35206  0.64734  0.06698  Biso   1.000  C
  C265     1.0000 0.34583  0.70662  0.05313  Biso   1.000  C
  H155     1.0000 0.35090  0.73540  0.08230  Biso   1.000  H
  C266     1.0000 0.33198  0.72303  0.99543  Biso   1.000  C
  H156     1.0000 0.32730  0.76310  0.98650  Biso   1.000  H
  C267     1.0000 0.30430  0.70140  0.89097  Biso   1.000  C
  O77      1.0000 0.29480  0.75240  0.88500  Biso   1.000  O
  O78      1.0000 0.30124  0.66485  0.84998  Biso   1.000  O
  Zn37     1.0000 0.32259  0.76261  0.79619  Biso   1.000  Zn
  C268     1.0000 0.17495  0.31792  0.45133  Biso   1.000  C
  C269     1.0000 0.16724  0.37896  0.46644  Biso   1.000  C
  H157     1.0000 0.17080  0.40800  0.43720  Biso   1.000  H
  C270     1.0000 0.15461  0.39520  0.52407  Biso   1.000  C
  H158     1.0000 0.15060  0.43510  0.53380  Biso   1.000  H
  C271     1.0000 0.14794  0.35266  0.56698  Biso   1.000  C
  C272     1.0000 0.15417  0.29338  0.55313  Biso   1.000  C
  H159     1.0000 0.14910  0.26460  0.58230  Biso   1.000  H
  C273     1.0000 0.16802  0.27697  0.49543  Biso   1.000  C
  H160     1.0000 0.17270  0.23690  0.48650  Biso   1.000  H
  C274     1.0000 0.19570  0.29860  0.39097  Biso   1.000  C
  O79      1.0000 0.20520  0.24760  0.38500  Biso   1.000  O
  O80      1.0000 0.19876  0.33515  0.34998  Biso   1.000  O
  Zn38     1.0000 0.17741  0.23739  0.29619  Biso   1.000  Zn
  C275     1.0000 0.67495  0.18208  0.54867  Biso   1.000  C
  C276     1.0000 0.66724  0.12104  0.53356  Biso   1.000  C
  H161     1.0000 0.67080  0.09200  0.56280  Biso   1.000  H
  C277     1.0000 0.65461  0.10480  0.47593  Biso   1.000  C
  H162     1.0000 0.65060  0.06490  0.46620  Biso   1.000  H
  C278     1.0000 0.64794  0.14734  0.43302  Biso   1.000  C
  C279     1.0000 0.65417  0.20662  0.44687  Biso   1.000  C
  H163     1.0000 0.64910  0.23540  0.41770  Biso   1.000  H
  C280     1.0000 0.66802  0.22303  0.50457  Biso   1.000  C
  H164     1.0000 0.67270  0.26310  0.51350  Biso   1.000  H
  C281     1.0000 0.69570  0.20140  0.60903  Biso   1.000  C
  O81      1.0000 0.70520  0.25240  0.61500  Biso   1.000  O
  O82      1.0000 0.69876  0.16485  0.65002  Biso   1.000  O
  Zn39     1.0000 0.67741  0.26261  0.70381  Biso   1.000  Zn
  C282     1.0000 0.82505  0.81792  0.04867  Biso   1.000  C
  C283     1.0000 0.83276  0.87896  0.03356  Biso   1.000  C
  H165     1.0000 0.82920  0.90800  0.06280  Biso   1.000  H
  C284     1.0000 0.84539  0.89520  0.97593  Biso   1.000  C
  H166     1.0000 0.84940  0.93510  0.96620  Biso   1.000  H
  C285     1.0000 0.85206  0.85266  0.93302  Biso   1.000  C
  C286     1.0000 0.84583  0.79338  0.94687  Biso   1.000  C
  H167     1.0000 0.85090  0.76460  0.91770  Biso   1.000  H
  C287     1.0000 0.83198  0.77697  0.00457  Biso   1.000  C
  H168     1.0000 0.82730  0.73690  0.01350  Biso   1.000  H
  C288     1.0000 0.80430  0.79860  0.10903  Biso   1.000  C
  O83      1.0000 0.79480  0.74760  0.11500  Biso   1.000  O
  O84      1.0000 0.80124  0.83515  0.15002  Biso   1.000  O
  Zn40     1.0000 0.82259  0.73739  0.20381  Biso   1.000  Zn
  C289     1.0000 0.95133  0.32505  0.68208  Biso   1.000  C
  C290     1.0000 0.96644  0.33276  0.62104  Biso   1.000  C
  H169     1.0000 0.93720  0.32920  0.59200  Biso   1.000  H
  C291     1.0000 0.02407  0.34539  0.60480  Biso   1.000  C
  H170     1.0000 0.03380  0.34940  0.56490  Biso   1.000  H
  C292     1.0000 0.06698  0.35206  0.64734  Biso   1.000  C
  C293     1.0000 0.05313  0.34583  0.70662  Biso   1.000  C
  H171     1.0000 0.08230  0.35090  0.73540  Biso   1.000  H
  C294     1.0000 0.99543  0.33198  0.72303  Biso   1.000  C
  H172     1.0000 0.98650  0.32730  0.76310  Biso   1.000  H
  C295     1.0000 0.89097  0.30430  0.70140  Biso   1.000  C
  O85      1.0000 0.88500  0.29480  0.75240  Biso   1.000  O
  O86      1.0000 0.84998  0.30124  0.66485  Biso   1.000  O
  Zn41     1.0000 0.79619  0.32259  0.76261  Biso   1.000  Zn
  C296     1.0000 0.45133  0.17495  0.31792  Biso   1.000  C
  C297     1.0000 0.46644  0.16724  0.37896  Biso   1.000  C
  H173     1.0000 0.43720  0.17080  0.40800  Biso   1.000  H
  C298     1.0000 0.52407  0.15461  0.39520  Biso   1.000  C
  H174     1.0000 0.53380  0.15060  0.43510  Biso   1.000  H
  C299     1.0000 0.56698  0.14794  0.35266  Biso   1.000  C
  C300     1.0000 0.55313  0.15417  0.29338  Biso   1.000  C
  H175     1.0000 0.58230  0.14910  0.26460  Biso   1.000  H
  C301     1.0000 0.49543  0.16802  0.27697  Biso   1.000  C
  H176     1.0000 0.48650  0.17270  0.23690  Biso   1.000  H
  C302     1.0000 0.39097  0.19570  0.29860  Biso   1.000  C
  O87      1.0000 0.38500  0.20520  0.24760  Biso   1.000  O
  O88      1.0000 0.34998  0.19876  0.33515  Biso   1.000  O
  Zn42     1.0000 0.29619  0.17741  0.23739  Biso   1.000  Zn
  C303     1.0000 0.54867  0.67495  0.18208  Biso   1.000  C
  C304     1.0000 0.53356  0.66724  0.12104  Biso   1.000  C
  H177     1.0000 0.56280  0.67080  0.09200  Biso   1.000  H
  C305     1.0000 0.47593  0.65461  0.10480  Biso   1.000  C
  H178     1.0000 0.46620  0.65060  0.06490  Biso   1.000  H
  C306     1.0000 0.43302  0.64794  0.14734  Biso   1.000  C
  C307     1.0000 0.44687  0.65417  0.20662  Biso   1.000  C
  H179     1.0000 0.41770  0.64910  0.23540  Biso   1.000  H
  C308     1.0000 0.50457  0.66802  0.22303  Biso   1.000  C
  H180     1.0000 0.51350  0.67270  0.26310  Biso   1.000  H
  C309     1.0000 0.60903  0.69570  0.20140  Biso   1.000  C
  O89      1.0000 0.61500  0.70520  0.25240  Biso   1.000  O
  O90      1.0000 0.65002  0.69876  0.16485  Biso   1.000  O
  Zn43     1.0000 0.70381  0.67741  0.26261  Biso   1.000  Zn
  C310     1.0000 0.04867  0.82505  0.81792  Biso   1.000  C
  C311     1.0000 0.03356  0.83276  0.87896  Biso   1.000  C
  H181     1.0000 0.06280  0.82920  0.90800  Biso   1.000  H
  C312     1.0000 0.97593  0.84539  0.89520  Biso   1.000  C
  H182     1.0000 0.96620  0.84940  0.93510  Biso   1.000  H
  C313     1.0000 0.93302  0.85206  0.85266  Biso   1.000  C
  C314     1.0000 0.94687  0.84583  0.79338  Biso   1.000  C
  H183     1.0000 0.91770  0.85090  0.76460  Biso   1.000  H
  C315     1.0000 0.00457  0.83198  0.77697  Biso   1.000  C
  H184     1.0000 0.01350  0.82730  0.73690  Biso   1.000  H
  C316     1.0000 0.10903  0.80430  0.79860  Biso   1.000  C
  O91      1.0000 0.11500  0.79480  0.74760  Biso   1.000  O
  O92      1.0000 0.15002  0.80124  0.83515  Biso   1.000  O
  Zn44     1.0000 0.20381  0.82259  0.73739  Biso   1.000  Zn
  C317     1.0000 0.68208  0.95133  0.32505  Biso   1.000  C
  C318     1.0000 0.62104  0.96644  0.33276  Biso   1.000  C
  H185     1.0000 0.59200  0.93720  0.32920  Biso   1.000  H
  C319     1.0000 0.60480  0.02407  0.34539  Biso   1.000  C
  H186     1.0000 0.56490  0.03380  0.34940  Biso   1.000  H
  C320     1.0000 0.64734  0.06698  0.35206  Biso   1.000  C
  C321     1.0000 0.70662  0.05313  0.34583  Biso   1.000  C
  H187     1.0000 0.73540  0.08230  0.35090  Biso   1.000  H
  C322     1.0000 0.72303  0.99543  0.33198  Biso   1.000  C
  H188     1.0000 0.76310  0.98650  0.32730  Biso   1.000  H
  C323     1.0000 0.70140  0.89097  0.30430  Biso   1.000  C
  O93      1.0000 0.75240  0.88500  0.29480  Biso   1.000  O
  O94      1.0000 0.66485  0.84998  0.30124  Biso   1.000  O
  Zn45     1.0000 0.76261  0.79619  0.32259  Biso   1.000  Zn
  C324     1.0000 0.31792  0.45133  0.17495  Biso   1.000  C
  C325     1.0000 0.37896  0.46644  0.16724  Biso   1.000  C
  H189     1.0000 0.40800  0.43720  0.17080  Biso   1.000  H
  C326     1.0000 0.39520  0.52407  0.15461  Biso   1.000  C
  H190     1.0000 0.43510  0.53380  0.15060  Biso   1.000  H
  C327     1.0000 0.35266  0.56698  0.14794  Biso   1.000  C
  C328     1.0000 0.29338  0.55313  0.15417  Biso   1.000  C
  H191     1.0000 0.26460  0.58230  0.14910  Biso   1.000  H
  C329     1.0000 0.27697  0.49543  0.16802  Biso   1.000  C
  H192     1.0000 0.23690  0.48650  0.17270  Biso   1.000  H
  C330     1.0000 0.29860  0.39097  0.19570  Biso   1.000  C
  O95      1.0000 0.24760  0.38500  0.20520  Biso   1.000  O
  O96      1.0000 0.33515  0.34998  0.19876  Biso   1.000  O
  Zn46     1.0000 0.23739  0.29619  0.17741  Biso   1.000  Zn
  C331     1.0000 0.18208  0.54867  0.67495  Biso   1.000  C
  C332     1.0000 0.12104  0.53356  0.66724  Biso   1.000  C
  H193     1.0000 0.09200  0.56280  0.67080  Biso   1.000  H
  C333     1.0000 0.10480  0.47593  0.65461  Biso   1.000  C
  H194     1.0000 0.06490  0.46620  0.65060  Biso   1.000  H
  C334     1.0000 0.14734  0.43302  0.64794  Biso   1.000  C
  C335     1.0000 0.20662  0.44687  0.65417  Biso   1.000  C
  H195     1.0000 0.23540  0.41770  0.64910  Biso   1.000  H
  C336     1.0000 0.22303  0.50457  0.66802  Biso   1.000  C
  H196     1.0000 0.26310  0.51350  0.67270  Biso   1.000  H
  C337     1.0000 0.20140  0.60903  0.69570  Biso   1.000  C
  O97      1.0000 0.25240  0.61500  0.70520  Biso   1.000  O
  O98      1.0000 0.16485  0.65002  0.69876  Biso   1.000  O
  Zn47     1.0000 0.26261  0.70381  0.67741  Biso   1.000  Zn
  C338     1.0000 0.81792  0.04867  0.82505  Biso   1.000  C
  C339     1.0000 0.87896  0.03356  0.83276  Biso   1.000  C
  H197     1.0000 0.90800  0.06280  0.82920  Biso   1.000  H
  C340     1.0000 0.89520  0.97593  0.84539  Biso   1.000  C
  H198     1.0000 0.93510  0.96620  0.84940  Biso   1.000  H
  C341     1.0000 0.85266  0.93302  0.85206  Biso   1.000  C
  C342     1.0000 0.79338  0.94687  0.84583  Biso   1.000  C
  H199     1.0000 0.76460  0.91770  0.85090  Biso   1.000  H
  C343     1.0000 0.77697  0.00457  0.83198  Biso   1.000  C
  H200     1.0000 0.73690  0.01350  0.82730  Biso   1.000  H
  C344     1.0000 0.79860  0.10903  0.80430  Biso   1.000  C
  O99      1.0000 0.74760  0.11500  0.79480  Biso   1.000  O
  O100     1.0000 0.83515  0.15002  0.80124  Biso   1.000  O
  Zn48     1.0000 0.73739  0.20381  0.82259  Biso   1.000  Zn
  C345     1.0000 0.13546  0.86454  0.36454  Biso   1.000  C
  H201     1.0000 0.16060  0.83940  0.33940  Biso   1.000  H
  C346     1.0000 0.36454  0.13546  0.86454  Biso   1.000  C
  H202     1.0000 0.33940  0.16060  0.83940  Biso   1.000  H
  C347     1.0000 0.86454  0.36454  0.13546  Biso   1.000  C
  H203     1.0000 0.83940  0.33940  0.16060  Biso   1.000  H
  C348     1.0000 0.63546  0.63546  0.63546  Biso   1.000  C
  H204     1.0000 0.66060  0.66060  0.66060  Biso   1.000  H
  C349     1.0000 0.36454  0.63546  0.13546  Biso   1.000  C
  H205     1.0000 0.33940  0.66060  0.16060  Biso   1.000  H
  C350     1.0000 0.13546  0.36454  0.63546  Biso   1.000  C
  H206     1.0000 0.16060  0.33940  0.66060  Biso   1.000  H
  C351     1.0000 0.63546  0.13546  0.36454  Biso   1.000  C
  H207     1.0000 0.66060  0.16060  0.33940  Biso   1.000  H
  C352     1.0000 0.86454  0.86454  0.86454  Biso   1.000  C
  H208     1.0000 0.83940  0.83940  0.83940  Biso   1.000  H
  O101     1.0000 0.25000  0.25000  0.25000  Biso   1.000  O
  O102     1.0000 0.25000  0.75000  0.75000  Biso   1.000  O
  O103     1.0000 0.75000  0.25000  0.75000  Biso   1.000  O
  O104     1.0000 0.75000  0.75000  0.25000  Biso   1.000  O
