data_image0
_cell_length_a       30.4546
_cell_length_b       30.4546
_cell_length_c       30.4546
_cell_angle_alpha    80.2989
_cell_angle_beta     80.2989
_cell_angle_gamma    80.2989

_symmetry_space_group_name_H-M    P 1
_symmetry_int_tables_number       1

loop_
  _symmetry_equiv_pos_as_xyz
  'x, y, z'

loop_
  _atom_site_label
  _atom_site_occupancy
  _atom_site_fract_x
  _atom_site_fract_y
  _atom_site_fract_z
  _atom_site_thermal_displace_type
  _atom_site_B_iso_or_equiv
  _atom_site_type_symbol
  Cd1      1.0000 0.81562  0.81220  0.29496  Biso   1.000  Cd
  Cd2      1.0000 0.78573  0.81331  0.41971  Biso   1.000  Cd
  Cd3      1.0000 0.74152  0.85512  0.52993  Biso   1.000  Cd
  Cd4      1.0000 0.29496  0.81562  0.81220  Biso   1.000  Cd
  Cd5      1.0000 0.41971  0.78573  0.81331  Biso   1.000  Cd
  Cd6      1.0000 0.52993  0.74152  0.85512  Biso   1.000  Cd
  Cd7      1.0000 0.81220  0.29496  0.81562  Biso   1.000  Cd
  Cd8      1.0000 0.81331  0.41971  0.78573  Biso   1.000  Cd
  Cd9      1.0000 0.85512  0.52993  0.74152  Biso   1.000  Cd
  Cd10     1.0000 0.68780  0.68438  0.20504  Biso   1.000  Cd
  Cd11     1.0000 0.68669  0.71427  0.08029  Biso   1.000  Cd
  Cd12     1.0000 0.64488  0.75848  0.97007  Biso   1.000  Cd
  Cd13     1.0000 0.68438  0.20504  0.68780  Biso   1.000  Cd
  Cd14     1.0000 0.71427  0.08029  0.68669  Biso   1.000  Cd
  Cd15     1.0000 0.75848  0.97007  0.64488  Biso   1.000  Cd
  Cd16     1.0000 0.20504  0.68780  0.68438  Biso   1.000  Cd
  Cd17     1.0000 0.08029  0.68669  0.71427  Biso   1.000  Cd
  Cd18     1.0000 0.97007  0.64488  0.75848  Biso   1.000  Cd
  Cd19     1.0000 0.18438  0.18780  0.70504  Biso   1.000  Cd
  Cd20     1.0000 0.21427  0.18669  0.58029  Biso   1.000  Cd
  Cd21     1.0000 0.25848  0.14488  0.47007  Biso   1.000  Cd
  Cd22     1.0000 0.70504  0.18438  0.18780  Biso   1.000  Cd
  Cd23     1.0000 0.58029  0.21427  0.18669  Biso   1.000  Cd
  Cd24     1.0000 0.47007  0.25848  0.14488  Biso   1.000  Cd
  Cd25     1.0000 0.18780  0.70504  0.18438  Biso   1.000  Cd
  Cd26     1.0000 0.18669  0.58029  0.21427  Biso   1.000  Cd
  Cd27     1.0000 0.14488  0.47007  0.25848  Biso   1.000  Cd
  Cd28     1.0000 0.31220  0.31562  0.79496  Biso   1.000  Cd
  Cd29     1.0000 0.31331  0.28573  0.91971  Biso   1.000  Cd
  Cd30     1.0000 0.35512  0.24152  0.02993  Biso   1.000  Cd
  Cd31     1.0000 0.31562  0.79496  0.31220  Biso   1.000  Cd
  Cd32     1.0000 0.28573  0.91971  0.31331  Biso   1.000  Cd
  Cd33     1.0000 0.24152  0.02993  0.35512  Biso   1.000  Cd
  Cd34     1.0000 0.79496  0.31220  0.31562  Biso   1.000  Cd
  Cd35     1.0000 0.91971  0.31331  0.28573  Biso   1.000  Cd
  Cd36     1.0000 0.02993  0.35512  0.24152  Biso   1.000  Cd
  H1       1.0000 0.87260  0.90670  0.41600  Biso   1.000  H
  H2       1.0000 0.92770  0.01590  0.35130  Biso   1.000  H
  H3       1.0000 0.91210  0.00230  0.28330  Biso   1.000  H
  H4       1.0000 0.87590  0.94050  0.28080  Biso   1.000  H
  H5       1.0000 0.86930  0.94440  0.47730  Biso   1.000  H
  H6       1.0000 0.91620  0.91270  0.46600  Biso   1.000  H
  H7       1.0000 0.87710  0.02480  0.62850  Biso   1.000  H
  H8       1.0000 0.84880  0.04320  0.58740  Biso   1.000  H
  H9       1.0000 0.81960  0.09730  0.63120  Biso   1.000  H
  H10      1.0000 0.83560  0.22550  0.63730  Biso   1.000  H
  H11      1.0000 0.91130  0.21060  0.60530  Biso   1.000  H
  H12      1.0000 0.93930  0.14160  0.58270  Biso   1.000  H
  H13      1.0000 0.03830  0.96410  0.57270  Biso   1.000  H
  H14      1.0000 0.04770  0.94120  0.52770  Biso   1.000  H
  H15      1.0000 0.05250  0.82070  0.62660  Biso   1.000  H
  H16      1.0000 0.18760  0.81470  0.61060  Biso   1.000  H
  H17      1.0000 0.18190  0.88720  0.56960  Biso   1.000  H
  H18      1.0000 0.11110  0.92730  0.55770  Biso   1.000  H
  H19      1.0000 0.84140  0.04430  0.52290  Biso   1.000  H
  H20      1.0000 0.84530  0.00950  0.48810  Biso   1.000  H
  H21      1.0000 0.82330  0.99700  0.53940  Biso   1.000  H
  H22      1.0000 0.98130  0.02220  0.61150  Biso   1.000  H
  H23      1.0000 0.94080  0.00020  0.64310  Biso   1.000  H
  H24      1.0000 0.98830  0.96980  0.63140  Biso   1.000  H
  H25      1.0000 0.00840  0.93360  0.45610  Biso   1.000  H
  H26      1.0000 0.02120  0.89860  0.49900  Biso   1.000  H
  H27      1.0000 0.98000  0.89320  0.47510  Biso   1.000  H
  H28      1.0000 0.74470  0.92320  0.36810  Biso   1.000  H
  H29      1.0000 0.78020  0.04740  0.32690  Biso   1.000  H
  H30      1.0000 0.79280  0.05100  0.39800  Biso   1.000  H
  H31      1.0000 0.78060  0.99160  0.45700  Biso   1.000  H
  H32      1.0000 0.76010  0.92270  0.28390  Biso   1.000  H
  H33      1.0000 0.71120  0.93970  0.30950  Biso   1.000  H
  H34      1.0000 0.78500  0.94640  0.11740  Biso   1.000  H
  H35      1.0000 0.74480  0.97460  0.09160  Biso   1.000  H
  H36      1.0000 0.71990  0.84090  0.08640  Biso   1.000  H
  H37      1.0000 0.74200  0.87150  0.95030  Biso   1.000  H
  H38      1.0000 0.76800  0.93750  0.95820  Biso   1.000  H
  H39      1.0000 0.76830  0.95700  0.02810  Biso   1.000  H
  H40      1.0000 0.62090  0.05910  0.16820  Biso   1.000  H
  H41      1.0000 0.61650  0.05920  0.22140  Biso   1.000  H
  H42      1.0000 0.55610  0.10640  0.19500  Biso   1.000  H
  H43      1.0000 0.42700  0.10700  0.17680  Biso   1.000  H
  H44      1.0000 0.44030  0.02820  0.18770  Biso   1.000  H
  H45      1.0000 0.50940  0.98970  0.20060  Biso   1.000  H
  H46      1.0000 0.81110  0.93530  0.17860  Biso   1.000  H
  H47      1.0000 0.79870  0.91950  0.23140  Biso   1.000  H
  H48      1.0000 0.78740  0.89120  0.19600  Biso   1.000  H
  H49      1.0000 0.65690  0.97280  0.10840  Biso   1.000  H
  H50      1.0000 0.63200  0.01930  0.12400  Biso   1.000  H
  H51      1.0000 0.68100  0.01690  0.09480  Biso   1.000  H
  H52      1.0000 0.65400  0.98130  0.30890  Biso   1.000  H
  H53      1.0000 0.65870  0.03270  0.28910  Biso   1.000  H
  H54      1.0000 0.61730  0.01100  0.28020  Biso   1.000  H
  H55      1.0000 0.90790  0.78760  0.28290  Biso   1.000  H
  H56      1.0000 0.94840  0.76830  0.24730  Biso   1.000  H
  H57      1.0000 0.94570  0.81810  0.25900  Biso   1.000  H
  H58      1.0000 0.97080  0.76250  0.17730  Biso   1.000  H
  H59      1.0000 0.97130  0.79510  0.13010  Biso   1.000  H
  H60      1.0000 0.98600  0.81110  0.17230  Biso   1.000  H
  H61      1.0000 0.89480  0.86690  0.13510  Biso   1.000  H
  H62      1.0000 0.90450  0.82120  0.11350  Biso   1.000  H
  H63      1.0000 0.86130  0.83010  0.15050  Biso   1.000  H
  H64      1.0000 0.73780  0.78750  0.18850  Biso   1.000  H
  H65      1.0000 0.75170  0.82060  0.21770  Biso   1.000  H
  H66      1.0000 0.77390  0.82020  0.16620  Biso   1.000  H
  H67      1.0000 0.78120  0.76950  0.13460  Biso   1.000  H
  H68      1.0000 0.83260  0.75930  0.11200  Biso   1.000  H
  H69      1.0000 0.80360  0.71890  0.12950  Biso   1.000  H
  H70      1.0000 0.85070  0.68360  0.21340  Biso   1.000  H
  H71      1.0000 0.88260  0.70090  0.16870  Biso   1.000  H
  H72      1.0000 0.87800  0.72420  0.21300  Biso   1.000  H
  H73      1.0000 0.41600  0.87260  0.90670  Biso   1.000  H
  H74      1.0000 0.35130  0.92770  0.01590  Biso   1.000  H
  H75      1.0000 0.28330  0.91210  0.00230  Biso   1.000  H
  H76      1.0000 0.28080  0.87590  0.94050  Biso   1.000  H
  H77      1.0000 0.47730  0.86930  0.94440  Biso   1.000  H
  H78      1.0000 0.46600  0.91620  0.91270  Biso   1.000  H
  H79      1.0000 0.62850  0.87710  0.02480  Biso   1.000  H
  H80      1.0000 0.58740  0.84880  0.04320  Biso   1.000  H
  H81      1.0000 0.63120  0.81960  0.09730  Biso   1.000  H
  H82      1.0000 0.63730  0.83560  0.22550  Biso   1.000  H
  H83      1.0000 0.60530  0.91130  0.21060  Biso   1.000  H
  H84      1.0000 0.58270  0.93930  0.14160  Biso   1.000  H
  H85      1.0000 0.57270  0.03830  0.96410  Biso   1.000  H
  H86      1.0000 0.52770  0.04770  0.94120  Biso   1.000  H
  H87      1.0000 0.62660  0.05250  0.82070  Biso   1.000  H
  H88      1.0000 0.61060  0.18760  0.81470  Biso   1.000  H
  H89      1.0000 0.56960  0.18190  0.88720  Biso   1.000  H
  H90      1.0000 0.55770  0.11110  0.92730  Biso   1.000  H
  H91      1.0000 0.52290  0.84140  0.04430  Biso   1.000  H
  H92      1.0000 0.48810  0.84530  0.00950  Biso   1.000  H
  H93      1.0000 0.53940  0.82330  0.99700  Biso   1.000  H
  H94      1.0000 0.61150  0.98130  0.02220  Biso   1.000  H
  H95      1.0000 0.64310  0.94080  0.00020  Biso   1.000  H
  H96      1.0000 0.63140  0.98830  0.96980  Biso   1.000  H
  H97      1.0000 0.45610  0.00840  0.93360  Biso   1.000  H
  H98      1.0000 0.49900  0.02120  0.89860  Biso   1.000  H
  H99      1.0000 0.47510  0.98000  0.89320  Biso   1.000  H
  H100     1.0000 0.36810  0.74470  0.92320  Biso   1.000  H
  H101     1.0000 0.32690  0.78020  0.04740  Biso   1.000  H
  H102     1.0000 0.39800  0.79280  0.05100  Biso   1.000  H
  H103     1.0000 0.45700  0.78060  0.99160  Biso   1.000  H
  H104     1.0000 0.28390  0.76010  0.92270  Biso   1.000  H
  H105     1.0000 0.30950  0.71120  0.93970  Biso   1.000  H
  H106     1.0000 0.11740  0.78500  0.94640  Biso   1.000  H
  H107     1.0000 0.09160  0.74480  0.97460  Biso   1.000  H
  H108     1.0000 0.08640  0.71990  0.84090  Biso   1.000  H
  H109     1.0000 0.95030  0.74200  0.87150  Biso   1.000  H
  H110     1.0000 0.95820  0.76800  0.93750  Biso   1.000  H
  H111     1.0000 0.02810  0.76830  0.95700  Biso   1.000  H
  H112     1.0000 0.16820  0.62090  0.05910  Biso   1.000  H
  H113     1.0000 0.22140  0.61650  0.05920  Biso   1.000  H
  H114     1.0000 0.19500  0.55610  0.10640  Biso   1.000  H
  H115     1.0000 0.17680  0.42700  0.10700  Biso   1.000  H
  H116     1.0000 0.18770  0.44030  0.02820  Biso   1.000  H
  H117     1.0000 0.20060  0.50940  0.98970  Biso   1.000  H
  H118     1.0000 0.17860  0.81110  0.93530  Biso   1.000  H
  H119     1.0000 0.23140  0.79870  0.91950  Biso   1.000  H
  H120     1.0000 0.19600  0.78740  0.89120  Biso   1.000  H
  H121     1.0000 0.10840  0.65690  0.97280  Biso   1.000  H
  H122     1.0000 0.12400  0.63200  0.01930  Biso   1.000  H
  H123     1.0000 0.09480  0.68100  0.01690  Biso   1.000  H
  H124     1.0000 0.30890  0.65400  0.98130  Biso   1.000  H
  H125     1.0000 0.28910  0.65870  0.03270  Biso   1.000  H
  H126     1.0000 0.28020  0.61730  0.01100  Biso   1.000  H
  H127     1.0000 0.28290  0.90790  0.78760  Biso   1.000  H
  H128     1.0000 0.24730  0.94840  0.76830  Biso   1.000  H
  H129     1.0000 0.25900  0.94570  0.81810  Biso   1.000  H
  H130     1.0000 0.17730  0.97080  0.76250  Biso   1.000  H
  H131     1.0000 0.13010  0.97130  0.79510  Biso   1.000  H
  H132     1.0000 0.17230  0.98600  0.81110  Biso   1.000  H
  H133     1.0000 0.13510  0.89480  0.86690  Biso   1.000  H
  H134     1.0000 0.11350  0.90450  0.82120  Biso   1.000  H
  H135     1.0000 0.15050  0.86130  0.83010  Biso   1.000  H
  H136     1.0000 0.18850  0.73780  0.78750  Biso   1.000  H
  H137     1.0000 0.21770  0.75170  0.82060  Biso   1.000  H
  H138     1.0000 0.16620  0.77390  0.82020  Biso   1.000  H
  H139     1.0000 0.13460  0.78120  0.76950  Biso   1.000  H
  H140     1.0000 0.11200  0.83260  0.75930  Biso   1.000  H
  H141     1.0000 0.12950  0.80360  0.71890  Biso   1.000  H
  H142     1.0000 0.21340  0.85070  0.68360  Biso   1.000  H
  H143     1.0000 0.16870  0.88260  0.70090  Biso   1.000  H
  H144     1.0000 0.21300  0.87800  0.72420  Biso   1.000  H
  H145     1.0000 0.90670  0.41600  0.87260  Biso   1.000  H
  H146     1.0000 0.01590  0.35130  0.92770  Biso   1.000  H
  H147     1.0000 0.00230  0.28330  0.91210  Biso   1.000  H
  H148     1.0000 0.94050  0.28080  0.87590  Biso   1.000  H
  H149     1.0000 0.94440  0.47730  0.86930  Biso   1.000  H
  H150     1.0000 0.91270  0.46600  0.91620  Biso   1.000  H
  H151     1.0000 0.02480  0.62850  0.87710  Biso   1.000  H
  H152     1.0000 0.04320  0.58740  0.84880  Biso   1.000  H
  H153     1.0000 0.09730  0.63120  0.81960  Biso   1.000  H
  H154     1.0000 0.22550  0.63730  0.83560  Biso   1.000  H
  H155     1.0000 0.21060  0.60530  0.91130  Biso   1.000  H
  H156     1.0000 0.14160  0.58270  0.93930  Biso   1.000  H
  H157     1.0000 0.96410  0.57270  0.03830  Biso   1.000  H
  H158     1.0000 0.94120  0.52770  0.04770  Biso   1.000  H
  H159     1.0000 0.82070  0.62660  0.05250  Biso   1.000  H
  H160     1.0000 0.81470  0.61060  0.18760  Biso   1.000  H
  H161     1.0000 0.88720  0.56960  0.18190  Biso   1.000  H
  H162     1.0000 0.92730  0.55770  0.11110  Biso   1.000  H
  H163     1.0000 0.04430  0.52290  0.84140  Biso   1.000  H
  H164     1.0000 0.00950  0.48810  0.84530  Biso   1.000  H
  H165     1.0000 0.99700  0.53940  0.82330  Biso   1.000  H
  H166     1.0000 0.02220  0.61150  0.98130  Biso   1.000  H
  H167     1.0000 0.00020  0.64310  0.94080  Biso   1.000  H
  H168     1.0000 0.96980  0.63140  0.98830  Biso   1.000  H
  H169     1.0000 0.93360  0.45610  0.00840  Biso   1.000  H
  H170     1.0000 0.89860  0.49900  0.02120  Biso   1.000  H
  H171     1.0000 0.89320  0.47510  0.98000  Biso   1.000  H
  H172     1.0000 0.92320  0.36810  0.74470  Biso   1.000  H
  H173     1.0000 0.04740  0.32690  0.78020  Biso   1.000  H
  H174     1.0000 0.05100  0.39800  0.79280  Biso   1.000  H
  H175     1.0000 0.99160  0.45700  0.78060  Biso   1.000  H
  H176     1.0000 0.92270  0.28390  0.76010  Biso   1.000  H
  H177     1.0000 0.93970  0.30950  0.71120  Biso   1.000  H
  H178     1.0000 0.94640  0.11740  0.78500  Biso   1.000  H
  H179     1.0000 0.97460  0.09160  0.74480  Biso   1.000  H
  H180     1.0000 0.84090  0.08640  0.71990  Biso   1.000  H
  H181     1.0000 0.87150  0.95030  0.74200  Biso   1.000  H
  H182     1.0000 0.93750  0.95820  0.76800  Biso   1.000  H
  H183     1.0000 0.95700  0.02810  0.76830  Biso   1.000  H
  H184     1.0000 0.05910  0.16820  0.62090  Biso   1.000  H
  H185     1.0000 0.05920  0.22140  0.61650  Biso   1.000  H
  H186     1.0000 0.10640  0.19500  0.55610  Biso   1.000  H
  H187     1.0000 0.10700  0.17680  0.42700  Biso   1.000  H
  H188     1.0000 0.02820  0.18770  0.44030  Biso   1.000  H
  H189     1.0000 0.98970  0.20060  0.50940  Biso   1.000  H
  H190     1.0000 0.93530  0.17860  0.81110  Biso   1.000  H
  H191     1.0000 0.91950  0.23140  0.79870  Biso   1.000  H
  H192     1.0000 0.89120  0.19600  0.78740  Biso   1.000  H
  H193     1.0000 0.97280  0.10840  0.65690  Biso   1.000  H
  H194     1.0000 0.01930  0.12400  0.63200  Biso   1.000  H
  H195     1.0000 0.01690  0.09480  0.68100  Biso   1.000  H
  H196     1.0000 0.98130  0.30890  0.65400  Biso   1.000  H
  H197     1.0000 0.03270  0.28910  0.65870  Biso   1.000  H
  H198     1.0000 0.01100  0.28020  0.61730  Biso   1.000  H
  H199     1.0000 0.78760  0.28290  0.90790  Biso   1.000  H
  H200     1.0000 0.76830  0.24730  0.94840  Biso   1.000  H
  H201     1.0000 0.81810  0.25900  0.94570  Biso   1.000  H
  H202     1.0000 0.76250  0.17730  0.97080  Biso   1.000  H
  H203     1.0000 0.79510  0.13010  0.97130  Biso   1.000  H
  H204     1.0000 0.81110  0.17230  0.98600  Biso   1.000  H
  H205     1.0000 0.86690  0.13510  0.89480  Biso   1.000  H
  H206     1.0000 0.82120  0.11350  0.90450  Biso   1.000  H
  H207     1.0000 0.83010  0.15050  0.86130  Biso   1.000  H
  H208     1.0000 0.78750  0.18850  0.73780  Biso   1.000  H
  H209     1.0000 0.82060  0.21770  0.75170  Biso   1.000  H
  H210     1.0000 0.82020  0.16620  0.77390  Biso   1.000  H
  H211     1.0000 0.76950  0.13460  0.78120  Biso   1.000  H
  H212     1.0000 0.75930  0.11200  0.83260  Biso   1.000  H
  H213     1.0000 0.71890  0.12950  0.80360  Biso   1.000  H
  H214     1.0000 0.68360  0.21340  0.85070  Biso   1.000  H
  H215     1.0000 0.70090  0.16870  0.88260  Biso   1.000  H
  H216     1.0000 0.72420  0.21300  0.87800  Biso   1.000  H
  H217     1.0000 0.59330  0.62740  0.08400  Biso   1.000  H
  H218     1.0000 0.48410  0.57230  0.14870  Biso   1.000  H
  H219     1.0000 0.49770  0.58790  0.21670  Biso   1.000  H
  H220     1.0000 0.55950  0.62410  0.21920  Biso   1.000  H
  H221     1.0000 0.55560  0.63070  0.02270  Biso   1.000  H
  H222     1.0000 0.58730  0.58380  0.03400  Biso   1.000  H
  H223     1.0000 0.47520  0.62290  0.87150  Biso   1.000  H
  H224     1.0000 0.45680  0.65120  0.91260  Biso   1.000  H
  H225     1.0000 0.40270  0.68040  0.86880  Biso   1.000  H
  H226     1.0000 0.27450  0.66440  0.86270  Biso   1.000  H
  H227     1.0000 0.28940  0.58870  0.89470  Biso   1.000  H
  H228     1.0000 0.35840  0.56070  0.91730  Biso   1.000  H
  H229     1.0000 0.53590  0.46170  0.92730  Biso   1.000  H
  H230     1.0000 0.55880  0.45230  0.97230  Biso   1.000  H
  H231     1.0000 0.67930  0.44750  0.87340  Biso   1.000  H
  H232     1.0000 0.68530  0.31240  0.88940  Biso   1.000  H
  H233     1.0000 0.61280  0.31810  0.93040  Biso   1.000  H
  H234     1.0000 0.57270  0.38890  0.94230  Biso   1.000  H
  H235     1.0000 0.45570  0.65860  0.97710  Biso   1.000  H
  H236     1.0000 0.49050  0.65470  0.01190  Biso   1.000  H
  H237     1.0000 0.50300  0.67670  0.96060  Biso   1.000  H
  H238     1.0000 0.47780  0.51870  0.88850  Biso   1.000  H
  H239     1.0000 0.49980  0.55920  0.85690  Biso   1.000  H
  H240     1.0000 0.53020  0.51170  0.86860  Biso   1.000  H
  H241     1.0000 0.56640  0.49160  0.04390  Biso   1.000  H
  H242     1.0000 0.60140  0.47880  0.00100  Biso   1.000  H
  H243     1.0000 0.60680  0.52000  0.02490  Biso   1.000  H
  H244     1.0000 0.57680  0.75530  0.13190  Biso   1.000  H
  H245     1.0000 0.45260  0.71980  0.17310  Biso   1.000  H
  H246     1.0000 0.44900  0.70720  0.10200  Biso   1.000  H
  H247     1.0000 0.50840  0.71940  0.04300  Biso   1.000  H
  H248     1.0000 0.57730  0.73990  0.21610  Biso   1.000  H
  H249     1.0000 0.56030  0.78880  0.19050  Biso   1.000  H
  H250     1.0000 0.55360  0.71500  0.38260  Biso   1.000  H
  H251     1.0000 0.52540  0.75520  0.40840  Biso   1.000  H
  H252     1.0000 0.65910  0.78010  0.41360  Biso   1.000  H
  H253     1.0000 0.62850  0.75800  0.54970  Biso   1.000  H
  H254     1.0000 0.56250  0.73200  0.54180  Biso   1.000  H
  H255     1.0000 0.54300  0.73170  0.47190  Biso   1.000  H
  H256     1.0000 0.44090  0.87910  0.33180  Biso   1.000  H
  H257     1.0000 0.44080  0.88350  0.27860  Biso   1.000  H
  H258     1.0000 0.39360  0.94390  0.30500  Biso   1.000  H
  H259     1.0000 0.39300  0.07300  0.32320  Biso   1.000  H
  H260     1.0000 0.47180  0.05970  0.31230  Biso   1.000  H
  H261     1.0000 0.51030  0.99060  0.29940  Biso   1.000  H
  H262     1.0000 0.56470  0.68890  0.32140  Biso   1.000  H
  H263     1.0000 0.58050  0.70130  0.26860  Biso   1.000  H
  H264     1.0000 0.60880  0.71260  0.30400  Biso   1.000  H
  H265     1.0000 0.52720  0.84310  0.39160  Biso   1.000  H
  H266     1.0000 0.48070  0.86800  0.37600  Biso   1.000  H
  H267     1.0000 0.48310  0.81900  0.40520  Biso   1.000  H
  H268     1.0000 0.51870  0.84600  0.19110  Biso   1.000  H
  H269     1.0000 0.46730  0.84130  0.21090  Biso   1.000  H
  H270     1.0000 0.48900  0.88270  0.21980  Biso   1.000  H
  H271     1.0000 0.71240  0.59210  0.21710  Biso   1.000  H
  H272     1.0000 0.73170  0.55160  0.25270  Biso   1.000  H
  H273     1.0000 0.68190  0.55430  0.24100  Biso   1.000  H
  H274     1.0000 0.73750  0.52920  0.32270  Biso   1.000  H
  H275     1.0000 0.70490  0.52870  0.36990  Biso   1.000  H
  H276     1.0000 0.68890  0.51400  0.32770  Biso   1.000  H
  H277     1.0000 0.63310  0.60520  0.36490  Biso   1.000  H
  H278     1.0000 0.67880  0.59550  0.38650  Biso   1.000  H
  H279     1.0000 0.66990  0.63870  0.34950  Biso   1.000  H
  H280     1.0000 0.71250  0.76220  0.31150  Biso   1.000  H
  H281     1.0000 0.67940  0.74830  0.28230  Biso   1.000  H
  H282     1.0000 0.67980  0.72610  0.33380  Biso   1.000  H
  H283     1.0000 0.73050  0.71880  0.36540  Biso   1.000  H
  H284     1.0000 0.74070  0.66740  0.38800  Biso   1.000  H
  H285     1.0000 0.78110  0.69640  0.37050  Biso   1.000  H
  H286     1.0000 0.81640  0.64930  0.28660  Biso   1.000  H
  H287     1.0000 0.79910  0.61740  0.33130  Biso   1.000  H
  H288     1.0000 0.77580  0.62200  0.28700  Biso   1.000  H
  H289     1.0000 0.62740  0.08400  0.59330  Biso   1.000  H
  H290     1.0000 0.57230  0.14870  0.48410  Biso   1.000  H
  H291     1.0000 0.58790  0.21670  0.49770  Biso   1.000  H
  H292     1.0000 0.62410  0.21920  0.55950  Biso   1.000  H
  H293     1.0000 0.63070  0.02270  0.55560  Biso   1.000  H
  H294     1.0000 0.58380  0.03400  0.58730  Biso   1.000  H
  H295     1.0000 0.62290  0.87150  0.47520  Biso   1.000  H
  H296     1.0000 0.65120  0.91260  0.45680  Biso   1.000  H
  H297     1.0000 0.68040  0.86880  0.40270  Biso   1.000  H
  H298     1.0000 0.66440  0.86270  0.27450  Biso   1.000  H
  H299     1.0000 0.58870  0.89470  0.28940  Biso   1.000  H
  H300     1.0000 0.56070  0.91730  0.35840  Biso   1.000  H
  H301     1.0000 0.46170  0.92730  0.53590  Biso   1.000  H
  H302     1.0000 0.45230  0.97230  0.55880  Biso   1.000  H
  H303     1.0000 0.44750  0.87340  0.67930  Biso   1.000  H
  H304     1.0000 0.31240  0.88940  0.68530  Biso   1.000  H
  H305     1.0000 0.31810  0.93040  0.61280  Biso   1.000  H
  H306     1.0000 0.38890  0.94230  0.57270  Biso   1.000  H
  H307     1.0000 0.65860  0.97710  0.45570  Biso   1.000  H
  H308     1.0000 0.65470  0.01190  0.49050  Biso   1.000  H
  H309     1.0000 0.67670  0.96060  0.50300  Biso   1.000  H
  H310     1.0000 0.51870  0.88850  0.47780  Biso   1.000  H
  H311     1.0000 0.55920  0.85690  0.49980  Biso   1.000  H
  H312     1.0000 0.51170  0.86860  0.53020  Biso   1.000  H
  H313     1.0000 0.49160  0.04390  0.56640  Biso   1.000  H
  H314     1.0000 0.47880  0.00100  0.60140  Biso   1.000  H
  H315     1.0000 0.52000  0.02490  0.60680  Biso   1.000  H
  H316     1.0000 0.75530  0.13190  0.57680  Biso   1.000  H
  H317     1.0000 0.71980  0.17310  0.45260  Biso   1.000  H
  H318     1.0000 0.70720  0.10200  0.44900  Biso   1.000  H
  H319     1.0000 0.71940  0.04300  0.50840  Biso   1.000  H
  H320     1.0000 0.73990  0.21610  0.57730  Biso   1.000  H
  H321     1.0000 0.78880  0.19050  0.56030  Biso   1.000  H
  H322     1.0000 0.71500  0.38260  0.55360  Biso   1.000  H
  H323     1.0000 0.75520  0.40840  0.52540  Biso   1.000  H
  H324     1.0000 0.78010  0.41360  0.65910  Biso   1.000  H
  H325     1.0000 0.75800  0.54970  0.62850  Biso   1.000  H
  H326     1.0000 0.73200  0.54180  0.56250  Biso   1.000  H
  H327     1.0000 0.73170  0.47190  0.54300  Biso   1.000  H
  H328     1.0000 0.87910  0.33180  0.44090  Biso   1.000  H
  H329     1.0000 0.88350  0.27860  0.44080  Biso   1.000  H
  H330     1.0000 0.94390  0.30500  0.39360  Biso   1.000  H
  H331     1.0000 0.07300  0.32320  0.39300  Biso   1.000  H
  H332     1.0000 0.05970  0.31230  0.47180  Biso   1.000  H
  H333     1.0000 0.99060  0.29940  0.51030  Biso   1.000  H
  H334     1.0000 0.68890  0.32140  0.56470  Biso   1.000  H
  H335     1.0000 0.70130  0.26860  0.58050  Biso   1.000  H
  H336     1.0000 0.71260  0.30400  0.60880  Biso   1.000  H
  H337     1.0000 0.84310  0.39160  0.52720  Biso   1.000  H
  H338     1.0000 0.86800  0.37600  0.48070  Biso   1.000  H
  H339     1.0000 0.81900  0.40520  0.48310  Biso   1.000  H
  H340     1.0000 0.84600  0.19110  0.51870  Biso   1.000  H
  H341     1.0000 0.84130  0.21090  0.46730  Biso   1.000  H
  H342     1.0000 0.88270  0.21980  0.48900  Biso   1.000  H
  H343     1.0000 0.59210  0.21710  0.71240  Biso   1.000  H
  H344     1.0000 0.55160  0.25270  0.73170  Biso   1.000  H
  H345     1.0000 0.55430  0.24100  0.68190  Biso   1.000  H
  H346     1.0000 0.52920  0.32270  0.73750  Biso   1.000  H
  H347     1.0000 0.52870  0.36990  0.70490  Biso   1.000  H
  H348     1.0000 0.51400  0.32770  0.68890  Biso   1.000  H
  H349     1.0000 0.60520  0.36490  0.63310  Biso   1.000  H
  H350     1.0000 0.59550  0.38650  0.67880  Biso   1.000  H
  H351     1.0000 0.63870  0.34950  0.66990  Biso   1.000  H
  H352     1.0000 0.76220  0.31150  0.71250  Biso   1.000  H
  H353     1.0000 0.74830  0.28230  0.67940  Biso   1.000  H
  H354     1.0000 0.72610  0.33380  0.67980  Biso   1.000  H
  H355     1.0000 0.71880  0.36540  0.73050  Biso   1.000  H
  H356     1.0000 0.66740  0.38800  0.74070  Biso   1.000  H
  H357     1.0000 0.69640  0.37050  0.78110  Biso   1.000  H
  H358     1.0000 0.64930  0.28660  0.81640  Biso   1.000  H
  H359     1.0000 0.61740  0.33130  0.79910  Biso   1.000  H
  H360     1.0000 0.62200  0.28700  0.77580  Biso   1.000  H
  H361     1.0000 0.08400  0.59330  0.62740  Biso   1.000  H
  H362     1.0000 0.14870  0.48410  0.57230  Biso   1.000  H
  H363     1.0000 0.21670  0.49770  0.58790  Biso   1.000  H
  H364     1.0000 0.21920  0.55950  0.62410  Biso   1.000  H
  H365     1.0000 0.02270  0.55560  0.63070  Biso   1.000  H
  H366     1.0000 0.03400  0.58730  0.58380  Biso   1.000  H
  H367     1.0000 0.87150  0.47520  0.62290  Biso   1.000  H
  H368     1.0000 0.91260  0.45680  0.65120  Biso   1.000  H
  H369     1.0000 0.86880  0.40270  0.68040  Biso   1.000  H
  H370     1.0000 0.86270  0.27450  0.66440  Biso   1.000  H
  H371     1.0000 0.89470  0.28940  0.58870  Biso   1.000  H
  H372     1.0000 0.91730  0.35840  0.56070  Biso   1.000  H
  H373     1.0000 0.92730  0.53590  0.46170  Biso   1.000  H
  H374     1.0000 0.97230  0.55880  0.45230  Biso   1.000  H
  H375     1.0000 0.87340  0.67930  0.44750  Biso   1.000  H
  H376     1.0000 0.88940  0.68530  0.31240  Biso   1.000  H
  H377     1.0000 0.93040  0.61280  0.31810  Biso   1.000  H
  H378     1.0000 0.94230  0.57270  0.38890  Biso   1.000  H
  H379     1.0000 0.97710  0.45570  0.65860  Biso   1.000  H
  H380     1.0000 0.01190  0.49050  0.65470  Biso   1.000  H
  H381     1.0000 0.96060  0.50300  0.67670  Biso   1.000  H
  H382     1.0000 0.88850  0.47780  0.51870  Biso   1.000  H
  H383     1.0000 0.85690  0.49980  0.55920  Biso   1.000  H
  H384     1.0000 0.86860  0.53020  0.51170  Biso   1.000  H
  H385     1.0000 0.04390  0.56640  0.49160  Biso   1.000  H
  H386     1.0000 0.00100  0.60140  0.47880  Biso   1.000  H
  H387     1.0000 0.02490  0.60680  0.52000  Biso   1.000  H
  H388     1.0000 0.13190  0.57680  0.75530  Biso   1.000  H
  H389     1.0000 0.17310  0.45260  0.71980  Biso   1.000  H
  H390     1.0000 0.10200  0.44900  0.70720  Biso   1.000  H
  H391     1.0000 0.04300  0.50840  0.71940  Biso   1.000  H
  H392     1.0000 0.21610  0.57730  0.73990  Biso   1.000  H
  H393     1.0000 0.19050  0.56030  0.78880  Biso   1.000  H
  H394     1.0000 0.38260  0.55360  0.71500  Biso   1.000  H
  H395     1.0000 0.40840  0.52540  0.75520  Biso   1.000  H
  H396     1.0000 0.41360  0.65910  0.78010  Biso   1.000  H
  H397     1.0000 0.54970  0.62850  0.75800  Biso   1.000  H
  H398     1.0000 0.54180  0.56250  0.73200  Biso   1.000  H
  H399     1.0000 0.47190  0.54300  0.73170  Biso   1.000  H
  H400     1.0000 0.33180  0.44090  0.87910  Biso   1.000  H
  H401     1.0000 0.27860  0.44080  0.88350  Biso   1.000  H
  H402     1.0000 0.30500  0.39360  0.94390  Biso   1.000  H
  H403     1.0000 0.32320  0.39300  0.07300  Biso   1.000  H
  H404     1.0000 0.31230  0.47180  0.05970  Biso   1.000  H
  H405     1.0000 0.29940  0.51030  0.99060  Biso   1.000  H
  H406     1.0000 0.32140  0.56470  0.68890  Biso   1.000  H
  H407     1.0000 0.26860  0.58050  0.70130  Biso   1.000  H
  H408     1.0000 0.30400  0.60880  0.71260  Biso   1.000  H
  H409     1.0000 0.39160  0.52720  0.84310  Biso   1.000  H
  H410     1.0000 0.37600  0.48070  0.86800  Biso   1.000  H
  H411     1.0000 0.40520  0.48310  0.81900  Biso   1.000  H
  H412     1.0000 0.19110  0.51870  0.84600  Biso   1.000  H
  H413     1.0000 0.21090  0.46730  0.84130  Biso   1.000  H
  H414     1.0000 0.21980  0.48900  0.88270  Biso   1.000  H
  H415     1.0000 0.21710  0.71240  0.59210  Biso   1.000  H
  H416     1.0000 0.25270  0.73170  0.55160  Biso   1.000  H
  H417     1.0000 0.24100  0.68190  0.55430  Biso   1.000  H
  H418     1.0000 0.32270  0.73750  0.52920  Biso   1.000  H
  H419     1.0000 0.36990  0.70490  0.52870  Biso   1.000  H
  H420     1.0000 0.32770  0.68890  0.51400  Biso   1.000  H
  H421     1.0000 0.36490  0.63310  0.60520  Biso   1.000  H
  H422     1.0000 0.38650  0.67880  0.59550  Biso   1.000  H
  H423     1.0000 0.34950  0.66990  0.63870  Biso   1.000  H
  H424     1.0000 0.31150  0.71250  0.76220  Biso   1.000  H
  H425     1.0000 0.28230  0.67940  0.74830  Biso   1.000  H
  H426     1.0000 0.33380  0.67980  0.72610  Biso   1.000  H
  H427     1.0000 0.36540  0.73050  0.71880  Biso   1.000  H
  H428     1.0000 0.38800  0.74070  0.66740  Biso   1.000  H
  H429     1.0000 0.37050  0.78110  0.69640  Biso   1.000  H
  H430     1.0000 0.28660  0.81640  0.64930  Biso   1.000  H
  H431     1.0000 0.33130  0.79910  0.61740  Biso   1.000  H
  H432     1.0000 0.28700  0.77580  0.62200  Biso   1.000  H
  H433     1.0000 0.12740  0.09330  0.58400  Biso   1.000  H
  H434     1.0000 0.07230  0.98410  0.64870  Biso   1.000  H
  H435     1.0000 0.08790  0.99770  0.71670  Biso   1.000  H
  H436     1.0000 0.12410  0.05950  0.71920  Biso   1.000  H
  H437     1.0000 0.13070  0.05560  0.52270  Biso   1.000  H
  H438     1.0000 0.08380  0.08730  0.53400  Biso   1.000  H
  H439     1.0000 0.12290  0.97520  0.37150  Biso   1.000  H
  H440     1.0000 0.15120  0.95680  0.41260  Biso   1.000  H
  H441     1.0000 0.18040  0.90270  0.36880  Biso   1.000  H
  H442     1.0000 0.16440  0.77450  0.36270  Biso   1.000  H
  H443     1.0000 0.08870  0.78940  0.39470  Biso   1.000  H
  H444     1.0000 0.06070  0.85840  0.41730  Biso   1.000  H
  H445     1.0000 0.96170  0.03590  0.42730  Biso   1.000  H
  H446     1.0000 0.95230  0.05880  0.47230  Biso   1.000  H
  H447     1.0000 0.94750  0.17930  0.37340  Biso   1.000  H
  H448     1.0000 0.81240  0.18530  0.38940  Biso   1.000  H
  H449     1.0000 0.81810  0.11280  0.43040  Biso   1.000  H
  H450     1.0000 0.88890  0.07270  0.44230  Biso   1.000  H
  H451     1.0000 0.15860  0.95570  0.47710  Biso   1.000  H
  H452     1.0000 0.15470  0.99050  0.51190  Biso   1.000  H
  H453     1.0000 0.17670  0.00300  0.46060  Biso   1.000  H
  H454     1.0000 0.01870  0.97780  0.38850  Biso   1.000  H
  H455     1.0000 0.05920  0.99980  0.35690  Biso   1.000  H
  H456     1.0000 0.01170  0.03020  0.36860  Biso   1.000  H
  H457     1.0000 0.99160  0.06640  0.54390  Biso   1.000  H
  H458     1.0000 0.97880  0.10140  0.50100  Biso   1.000  H
  H459     1.0000 0.02000  0.10680  0.52490  Biso   1.000  H
  H460     1.0000 0.25530  0.07680  0.63190  Biso   1.000  H
  H461     1.0000 0.21980  0.95260  0.67310  Biso   1.000  H
  H462     1.0000 0.20720  0.94900  0.60200  Biso   1.000  H
  H463     1.0000 0.21940  0.00840  0.54300  Biso   1.000  H
  H464     1.0000 0.23990  0.07730  0.71610  Biso   1.000  H
  H465     1.0000 0.28880  0.06030  0.69050  Biso   1.000  H
  H466     1.0000 0.21500  0.05360  0.88260  Biso   1.000  H
  H467     1.0000 0.25520  0.02540  0.90840  Biso   1.000  H
  H468     1.0000 0.28010  0.15910  0.91360  Biso   1.000  H
  H469     1.0000 0.25800  0.12850  0.04970  Biso   1.000  H
  H470     1.0000 0.23200  0.06250  0.04180  Biso   1.000  H
  H471     1.0000 0.23170  0.04300  0.97190  Biso   1.000  H
  H472     1.0000 0.37910  0.94090  0.83180  Biso   1.000  H
  H473     1.0000 0.38350  0.94080  0.77860  Biso   1.000  H
  H474     1.0000 0.44390  0.89360  0.80500  Biso   1.000  H
  H475     1.0000 0.57300  0.89300  0.82320  Biso   1.000  H
  H476     1.0000 0.55970  0.97180  0.81230  Biso   1.000  H
  H477     1.0000 0.49060  0.01030  0.79940  Biso   1.000  H
  H478     1.0000 0.18890  0.06470  0.82140  Biso   1.000  H
  H479     1.0000 0.20130  0.08050  0.76860  Biso   1.000  H
  H480     1.0000 0.21260  0.10880  0.80400  Biso   1.000  H
  H481     1.0000 0.34310  0.02720  0.89160  Biso   1.000  H
  H482     1.0000 0.36800  0.98070  0.87600  Biso   1.000  H
  H483     1.0000 0.31900  0.98310  0.90520  Biso   1.000  H
  H484     1.0000 0.34600  0.01870  0.69110  Biso   1.000  H
  H485     1.0000 0.34130  0.96730  0.71090  Biso   1.000  H
  H486     1.0000 0.38270  0.98900  0.71980  Biso   1.000  H
  H487     1.0000 0.09210  0.21240  0.71710  Biso   1.000  H
  H488     1.0000 0.05160  0.23170  0.75270  Biso   1.000  H
  H489     1.0000 0.05430  0.18190  0.74100  Biso   1.000  H
  H490     1.0000 0.02920  0.23750  0.82270  Biso   1.000  H
  H491     1.0000 0.02870  0.20490  0.86990  Biso   1.000  H
  H492     1.0000 0.01400  0.18890  0.82770  Biso   1.000  H
  H493     1.0000 0.10520  0.13310  0.86490  Biso   1.000  H
  H494     1.0000 0.09550  0.17880  0.88650  Biso   1.000  H
  H495     1.0000 0.13870  0.16990  0.84950  Biso   1.000  H
  H496     1.0000 0.26220  0.21250  0.81150  Biso   1.000  H
  H497     1.0000 0.24830  0.17940  0.78230  Biso   1.000  H
  H498     1.0000 0.22610  0.17980  0.83380  Biso   1.000  H
  H499     1.0000 0.21880  0.23050  0.86540  Biso   1.000  H
  H500     1.0000 0.16740  0.24070  0.88800  Biso   1.000  H
  H501     1.0000 0.19640  0.28110  0.87050  Biso   1.000  H
  H502     1.0000 0.14930  0.31640  0.78660  Biso   1.000  H
  H503     1.0000 0.11740  0.29910  0.83130  Biso   1.000  H
  H504     1.0000 0.12200  0.27580  0.78700  Biso   1.000  H
  H505     1.0000 0.58400  0.12740  0.09330  Biso   1.000  H
  H506     1.0000 0.64870  0.07230  0.98410  Biso   1.000  H
  H507     1.0000 0.71670  0.08790  0.99770  Biso   1.000  H
  H508     1.0000 0.71920  0.12410  0.05950  Biso   1.000  H
  H509     1.0000 0.52270  0.13070  0.05560  Biso   1.000  H
  H510     1.0000 0.53400  0.08380  0.08730  Biso   1.000  H
  H511     1.0000 0.37150  0.12290  0.97520  Biso   1.000  H
  H512     1.0000 0.41260  0.15120  0.95680  Biso   1.000  H
  H513     1.0000 0.36880  0.18040  0.90270  Biso   1.000  H
  H514     1.0000 0.36270  0.16440  0.77450  Biso   1.000  H
  H515     1.0000 0.39470  0.08870  0.78940  Biso   1.000  H
  H516     1.0000 0.41730  0.06070  0.85840  Biso   1.000  H
  H517     1.0000 0.42730  0.96170  0.03590  Biso   1.000  H
  H518     1.0000 0.47230  0.95230  0.05880  Biso   1.000  H
  H519     1.0000 0.37340  0.94750  0.17930  Biso   1.000  H
  H520     1.0000 0.38940  0.81240  0.18530  Biso   1.000  H
  H521     1.0000 0.43040  0.81810  0.11280  Biso   1.000  H
  H522     1.0000 0.44230  0.88890  0.07270  Biso   1.000  H
  H523     1.0000 0.47710  0.15860  0.95570  Biso   1.000  H
  H524     1.0000 0.51190  0.15470  0.99050  Biso   1.000  H
  H525     1.0000 0.46060  0.17670  0.00300  Biso   1.000  H
  H526     1.0000 0.38850  0.01870  0.97780  Biso   1.000  H
  H527     1.0000 0.35690  0.05920  0.99980  Biso   1.000  H
  H528     1.0000 0.36860  0.01170  0.03020  Biso   1.000  H
  H529     1.0000 0.54390  0.99160  0.06640  Biso   1.000  H
  H530     1.0000 0.50100  0.97880  0.10140  Biso   1.000  H
  H531     1.0000 0.52490  0.02000  0.10680  Biso   1.000  H
  H532     1.0000 0.63190  0.25530  0.07680  Biso   1.000  H
  H533     1.0000 0.67310  0.21980  0.95260  Biso   1.000  H
  H534     1.0000 0.60200  0.20720  0.94900  Biso   1.000  H
  H535     1.0000 0.54300  0.21940  0.00840  Biso   1.000  H
  H536     1.0000 0.71610  0.23990  0.07730  Biso   1.000  H
  H537     1.0000 0.69050  0.28880  0.06030  Biso   1.000  H
  H538     1.0000 0.88260  0.21500  0.05360  Biso   1.000  H
  H539     1.0000 0.90840  0.25520  0.02540  Biso   1.000  H
  H540     1.0000 0.91360  0.28010  0.15910  Biso   1.000  H
  H541     1.0000 0.04970  0.25800  0.12850  Biso   1.000  H
  H542     1.0000 0.04180  0.23200  0.06250  Biso   1.000  H
  H543     1.0000 0.97190  0.23170  0.04300  Biso   1.000  H
  H544     1.0000 0.83180  0.37910  0.94090  Biso   1.000  H
  H545     1.0000 0.77860  0.38350  0.94080  Biso   1.000  H
  H546     1.0000 0.80500  0.44390  0.89360  Biso   1.000  H
  H547     1.0000 0.82320  0.57300  0.89300  Biso   1.000  H
  H548     1.0000 0.81230  0.55970  0.97180  Biso   1.000  H
  H549     1.0000 0.79940  0.49060  0.01030  Biso   1.000  H
  H550     1.0000 0.82140  0.18890  0.06470  Biso   1.000  H
  H551     1.0000 0.76860  0.20130  0.08050  Biso   1.000  H
  H552     1.0000 0.80400  0.21260  0.10880  Biso   1.000  H
  H553     1.0000 0.89160  0.34310  0.02720  Biso   1.000  H
  H554     1.0000 0.87600  0.36800  0.98070  Biso   1.000  H
  H555     1.0000 0.90520  0.31900  0.98310  Biso   1.000  H
  H556     1.0000 0.69110  0.34600  0.01870  Biso   1.000  H
  H557     1.0000 0.71090  0.34130  0.96730  Biso   1.000  H
  H558     1.0000 0.71980  0.38270  0.98900  Biso   1.000  H
  H559     1.0000 0.71710  0.09210  0.21240  Biso   1.000  H
  H560     1.0000 0.75270  0.05160  0.23170  Biso   1.000  H
  H561     1.0000 0.74100  0.05430  0.18190  Biso   1.000  H
  H562     1.0000 0.82270  0.02920  0.23750  Biso   1.000  H
  H563     1.0000 0.86990  0.02870  0.20490  Biso   1.000  H
  H564     1.0000 0.82770  0.01400  0.18890  Biso   1.000  H
  H565     1.0000 0.86490  0.10520  0.13310  Biso   1.000  H
  H566     1.0000 0.88650  0.09550  0.17880  Biso   1.000  H
  H567     1.0000 0.84950  0.13870  0.16990  Biso   1.000  H
  H568     1.0000 0.81150  0.26220  0.21250  Biso   1.000  H
  H569     1.0000 0.78230  0.24830  0.17940  Biso   1.000  H
  H570     1.0000 0.83380  0.22610  0.17980  Biso   1.000  H
  H571     1.0000 0.86540  0.21880  0.23050  Biso   1.000  H
  H572     1.0000 0.88800  0.16740  0.24070  Biso   1.000  H
  H573     1.0000 0.87050  0.19640  0.28110  Biso   1.000  H
  H574     1.0000 0.78660  0.14930  0.31640  Biso   1.000  H
  H575     1.0000 0.83130  0.11740  0.29910  Biso   1.000  H
  H576     1.0000 0.78700  0.12200  0.27580  Biso   1.000  H
  H577     1.0000 0.09330  0.58400  0.12740  Biso   1.000  H
  H578     1.0000 0.98410  0.64870  0.07230  Biso   1.000  H
  H579     1.0000 0.99770  0.71670  0.08790  Biso   1.000  H
  H580     1.0000 0.05950  0.71920  0.12410  Biso   1.000  H
  H581     1.0000 0.05560  0.52270  0.13070  Biso   1.000  H
  H582     1.0000 0.08730  0.53400  0.08380  Biso   1.000  H
  H583     1.0000 0.97520  0.37150  0.12290  Biso   1.000  H
  H584     1.0000 0.95680  0.41260  0.15120  Biso   1.000  H
  H585     1.0000 0.90270  0.36880  0.18040  Biso   1.000  H
  H586     1.0000 0.77450  0.36270  0.16440  Biso   1.000  H
  H587     1.0000 0.78940  0.39470  0.08870  Biso   1.000  H
  H588     1.0000 0.85840  0.41730  0.06070  Biso   1.000  H
  H589     1.0000 0.03590  0.42730  0.96170  Biso   1.000  H
  H590     1.0000 0.05880  0.47230  0.95230  Biso   1.000  H
  H591     1.0000 0.17930  0.37340  0.94750  Biso   1.000  H
  H592     1.0000 0.18530  0.38940  0.81240  Biso   1.000  H
  H593     1.0000 0.11280  0.43040  0.81810  Biso   1.000  H
  H594     1.0000 0.07270  0.44230  0.88890  Biso   1.000  H
  H595     1.0000 0.95570  0.47710  0.15860  Biso   1.000  H
  H596     1.0000 0.99050  0.51190  0.15470  Biso   1.000  H
  H597     1.0000 0.00300  0.46060  0.17670  Biso   1.000  H
  H598     1.0000 0.97780  0.38850  0.01870  Biso   1.000  H
  H599     1.0000 0.99980  0.35690  0.05920  Biso   1.000  H
  H600     1.0000 0.03020  0.36860  0.01170  Biso   1.000  H
  H601     1.0000 0.06640  0.54390  0.99160  Biso   1.000  H
  H602     1.0000 0.10140  0.50100  0.97880  Biso   1.000  H
  H603     1.0000 0.10680  0.52490  0.02000  Biso   1.000  H
  H604     1.0000 0.07680  0.63190  0.25530  Biso   1.000  H
  H605     1.0000 0.95260  0.67310  0.21980  Biso   1.000  H
  H606     1.0000 0.94900  0.60200  0.20720  Biso   1.000  H
  H607     1.0000 0.00840  0.54300  0.21940  Biso   1.000  H
  H608     1.0000 0.07730  0.71610  0.23990  Biso   1.000  H
  H609     1.0000 0.06030  0.69050  0.28880  Biso   1.000  H
  H610     1.0000 0.05360  0.88260  0.21500  Biso   1.000  H
  H611     1.0000 0.02540  0.90840  0.25520  Biso   1.000  H
  H612     1.0000 0.15910  0.91360  0.28010  Biso   1.000  H
  H613     1.0000 0.12850  0.04970  0.25800  Biso   1.000  H
  H614     1.0000 0.06250  0.04180  0.23200  Biso   1.000  H
  H615     1.0000 0.04300  0.97190  0.23170  Biso   1.000  H
  H616     1.0000 0.94090  0.83180  0.37910  Biso   1.000  H
  H617     1.0000 0.94080  0.77860  0.38350  Biso   1.000  H
  H618     1.0000 0.89360  0.80500  0.44390  Biso   1.000  H
  H619     1.0000 0.89300  0.82320  0.57300  Biso   1.000  H
  H620     1.0000 0.97180  0.81230  0.55970  Biso   1.000  H
  H621     1.0000 0.01030  0.79940  0.49060  Biso   1.000  H
  H622     1.0000 0.06470  0.82140  0.18890  Biso   1.000  H
  H623     1.0000 0.08050  0.76860  0.20130  Biso   1.000  H
  H624     1.0000 0.10880  0.80400  0.21260  Biso   1.000  H
  H625     1.0000 0.02720  0.89160  0.34310  Biso   1.000  H
  H626     1.0000 0.98070  0.87600  0.36800  Biso   1.000  H
  H627     1.0000 0.98310  0.90520  0.31900  Biso   1.000  H
  H628     1.0000 0.01870  0.69110  0.34600  Biso   1.000  H
  H629     1.0000 0.96730  0.71090  0.34130  Biso   1.000  H
  H630     1.0000 0.98900  0.71980  0.38270  Biso   1.000  H
  H631     1.0000 0.21240  0.71710  0.09210  Biso   1.000  H
  H632     1.0000 0.23170  0.75270  0.05160  Biso   1.000  H
  H633     1.0000 0.18190  0.74100  0.05430  Biso   1.000  H
  H634     1.0000 0.23750  0.82270  0.02920  Biso   1.000  H
  H635     1.0000 0.20490  0.86990  0.02870  Biso   1.000  H
  H636     1.0000 0.18890  0.82770  0.01400  Biso   1.000  H
  H637     1.0000 0.13310  0.86490  0.10520  Biso   1.000  H
  H638     1.0000 0.17880  0.88650  0.09550  Biso   1.000  H
  H639     1.0000 0.16990  0.84950  0.13870  Biso   1.000  H
  H640     1.0000 0.21250  0.81150  0.26220  Biso   1.000  H
  H641     1.0000 0.17940  0.78230  0.24830  Biso   1.000  H
  H642     1.0000 0.17980  0.83380  0.22610  Biso   1.000  H
  H643     1.0000 0.23050  0.86540  0.21880  Biso   1.000  H
  H644     1.0000 0.24070  0.88800  0.16740  Biso   1.000  H
  H645     1.0000 0.28110  0.87050  0.19640  Biso   1.000  H
  H646     1.0000 0.31640  0.78660  0.14930  Biso   1.000  H
  H647     1.0000 0.29910  0.83130  0.11740  Biso   1.000  H
  H648     1.0000 0.27580  0.78700  0.12200  Biso   1.000  H
  H649     1.0000 0.40670  0.37260  0.91600  Biso   1.000  H
  H650     1.0000 0.51590  0.42770  0.85130  Biso   1.000  H
  H651     1.0000 0.50230  0.41210  0.78330  Biso   1.000  H
  H652     1.0000 0.44050  0.37590  0.78080  Biso   1.000  H
  H653     1.0000 0.44440  0.36930  0.97730  Biso   1.000  H
  H654     1.0000 0.41270  0.41620  0.96600  Biso   1.000  H
  H655     1.0000 0.52480  0.37710  0.12850  Biso   1.000  H
  H656     1.0000 0.54320  0.34880  0.08740  Biso   1.000  H
  H657     1.0000 0.59730  0.31960  0.13120  Biso   1.000  H
  H658     1.0000 0.72550  0.33560  0.13730  Biso   1.000  H
  H659     1.0000 0.71060  0.41130  0.10530  Biso   1.000  H
  H660     1.0000 0.64160  0.43930  0.08270  Biso   1.000  H
  H661     1.0000 0.46410  0.53830  0.07270  Biso   1.000  H
  H662     1.0000 0.44120  0.54770  0.02770  Biso   1.000  H
  H663     1.0000 0.32070  0.55250  0.12660  Biso   1.000  H
  H664     1.0000 0.31470  0.68760  0.11060  Biso   1.000  H
  H665     1.0000 0.38720  0.68190  0.06960  Biso   1.000  H
  H666     1.0000 0.42730  0.61110  0.05770  Biso   1.000  H
  H667     1.0000 0.54430  0.34140  0.02290  Biso   1.000  H
  H668     1.0000 0.50950  0.34530  0.98810  Biso   1.000  H
  H669     1.0000 0.49700  0.32330  0.03940  Biso   1.000  H
  H670     1.0000 0.52220  0.48130  0.11150  Biso   1.000  H
  H671     1.0000 0.50020  0.44080  0.14310  Biso   1.000  H
  H672     1.0000 0.46980  0.48830  0.13140  Biso   1.000  H
  H673     1.0000 0.43360  0.50840  0.95610  Biso   1.000  H
  H674     1.0000 0.39860  0.52120  0.99900  Biso   1.000  H
  H675     1.0000 0.39320  0.48000  0.97510  Biso   1.000  H
  H676     1.0000 0.42320  0.24470  0.86810  Biso   1.000  H
  H677     1.0000 0.54740  0.28020  0.82690  Biso   1.000  H
  H678     1.0000 0.55100  0.29280  0.89800  Biso   1.000  H
  H679     1.0000 0.49160  0.28060  0.95700  Biso   1.000  H
  H680     1.0000 0.42270  0.26010  0.78390  Biso   1.000  H
  H681     1.0000 0.43970  0.21120  0.80950  Biso   1.000  H
  H682     1.0000 0.44640  0.28500  0.61740  Biso   1.000  H
  H683     1.0000 0.47460  0.24480  0.59160  Biso   1.000  H
  H684     1.0000 0.34090  0.21990  0.58640  Biso   1.000  H
  H685     1.0000 0.37150  0.24200  0.45030  Biso   1.000  H
  H686     1.0000 0.43750  0.26800  0.45820  Biso   1.000  H
  H687     1.0000 0.45700  0.26830  0.52810  Biso   1.000  H
  H688     1.0000 0.55910  0.12090  0.66820  Biso   1.000  H
  H689     1.0000 0.55920  0.11650  0.72140  Biso   1.000  H
  H690     1.0000 0.60640  0.05610  0.69500  Biso   1.000  H
  H691     1.0000 0.60700  0.92700  0.67680  Biso   1.000  H
  H692     1.0000 0.52820  0.94030  0.68770  Biso   1.000  H
  H693     1.0000 0.48970  0.00940  0.70060  Biso   1.000  H
  H694     1.0000 0.43530  0.31110  0.67860  Biso   1.000  H
  H695     1.0000 0.41950  0.29870  0.73140  Biso   1.000  H
  H696     1.0000 0.39120  0.28740  0.69600  Biso   1.000  H
  H697     1.0000 0.47280  0.15690  0.60840  Biso   1.000  H
  H698     1.0000 0.51930  0.13200  0.62400  Biso   1.000  H
  H699     1.0000 0.51690  0.18100  0.59480  Biso   1.000  H
  H700     1.0000 0.48130  0.15400  0.80890  Biso   1.000  H
  H701     1.0000 0.53270  0.15870  0.78910  Biso   1.000  H
  H702     1.0000 0.51100  0.11730  0.78020  Biso   1.000  H
  H703     1.0000 0.28760  0.40790  0.78290  Biso   1.000  H
  H704     1.0000 0.26830  0.44840  0.74730  Biso   1.000  H
  H705     1.0000 0.31810  0.44570  0.75900  Biso   1.000  H
  H706     1.0000 0.26250  0.47080  0.67730  Biso   1.000  H
  H707     1.0000 0.29510  0.47130  0.63010  Biso   1.000  H
  H708     1.0000 0.31110  0.48600  0.67230  Biso   1.000  H
  H709     1.0000 0.36690  0.39480  0.63510  Biso   1.000  H
  H710     1.0000 0.32120  0.40450  0.61350  Biso   1.000  H
  H711     1.0000 0.33010  0.36130  0.65050  Biso   1.000  H
  H712     1.0000 0.28750  0.23780  0.68850  Biso   1.000  H
  H713     1.0000 0.32060  0.25170  0.71770  Biso   1.000  H
  H714     1.0000 0.32020  0.27390  0.66620  Biso   1.000  H
  H715     1.0000 0.26950  0.28120  0.63460  Biso   1.000  H
  H716     1.0000 0.25930  0.33260  0.61200  Biso   1.000  H
  H717     1.0000 0.21890  0.30360  0.62950  Biso   1.000  H
  H718     1.0000 0.18360  0.35070  0.71340  Biso   1.000  H
  H719     1.0000 0.20090  0.38260  0.66870  Biso   1.000  H
  H720     1.0000 0.22420  0.37800  0.71300  Biso   1.000  H
  H721     1.0000 0.37260  0.91600  0.40670  Biso   1.000  H
  H722     1.0000 0.42770  0.85130  0.51590  Biso   1.000  H
  H723     1.0000 0.41210  0.78330  0.50230  Biso   1.000  H
  H724     1.0000 0.37590  0.78080  0.44050  Biso   1.000  H
  H725     1.0000 0.36930  0.97730  0.44440  Biso   1.000  H
  H726     1.0000 0.41620  0.96600  0.41270  Biso   1.000  H
  H727     1.0000 0.37710  0.12850  0.52480  Biso   1.000  H
  H728     1.0000 0.34880  0.08740  0.54320  Biso   1.000  H
  H729     1.0000 0.31960  0.13120  0.59730  Biso   1.000  H
  H730     1.0000 0.33560  0.13730  0.72550  Biso   1.000  H
  H731     1.0000 0.41130  0.10530  0.71060  Biso   1.000  H
  H732     1.0000 0.43930  0.08270  0.64160  Biso   1.000  H
  H733     1.0000 0.53830  0.07270  0.46410  Biso   1.000  H
  H734     1.0000 0.54770  0.02770  0.44120  Biso   1.000  H
  H735     1.0000 0.55250  0.12660  0.32070  Biso   1.000  H
  H736     1.0000 0.68760  0.11060  0.31470  Biso   1.000  H
  H737     1.0000 0.68190  0.06960  0.38720  Biso   1.000  H
  H738     1.0000 0.61110  0.05770  0.42730  Biso   1.000  H
  H739     1.0000 0.34140  0.02290  0.54430  Biso   1.000  H
  H740     1.0000 0.34530  0.98810  0.50950  Biso   1.000  H
  H741     1.0000 0.32330  0.03940  0.49700  Biso   1.000  H
  H742     1.0000 0.48130  0.11150  0.52220  Biso   1.000  H
  H743     1.0000 0.44080  0.14310  0.50020  Biso   1.000  H
  H744     1.0000 0.48830  0.13140  0.46980  Biso   1.000  H
  H745     1.0000 0.50840  0.95610  0.43360  Biso   1.000  H
  H746     1.0000 0.52120  0.99900  0.39860  Biso   1.000  H
  H747     1.0000 0.48000  0.97510  0.39320  Biso   1.000  H
  H748     1.0000 0.24470  0.86810  0.42320  Biso   1.000  H
  H749     1.0000 0.28020  0.82690  0.54740  Biso   1.000  H
  H750     1.0000 0.29280  0.89800  0.55100  Biso   1.000  H
  H751     1.0000 0.28060  0.95700  0.49160  Biso   1.000  H
  H752     1.0000 0.26010  0.78390  0.42270  Biso   1.000  H
  H753     1.0000 0.21120  0.80950  0.43970  Biso   1.000  H
  H754     1.0000 0.28500  0.61740  0.44640  Biso   1.000  H
  H755     1.0000 0.24480  0.59160  0.47460  Biso   1.000  H
  H756     1.0000 0.21990  0.58640  0.34090  Biso   1.000  H
  H757     1.0000 0.24200  0.45030  0.37150  Biso   1.000  H
  H758     1.0000 0.26800  0.45820  0.43750  Biso   1.000  H
  H759     1.0000 0.26830  0.52810  0.45700  Biso   1.000  H
  H760     1.0000 0.12090  0.66820  0.55910  Biso   1.000  H
  H761     1.0000 0.11650  0.72140  0.55920  Biso   1.000  H
  H762     1.0000 0.05610  0.69500  0.60640  Biso   1.000  H
  H763     1.0000 0.92700  0.67680  0.60700  Biso   1.000  H
  H764     1.0000 0.94030  0.68770  0.52820  Biso   1.000  H
  H765     1.0000 0.00940  0.70060  0.48970  Biso   1.000  H
  H766     1.0000 0.31110  0.67860  0.43530  Biso   1.000  H
  H767     1.0000 0.29870  0.73140  0.41950  Biso   1.000  H
  H768     1.0000 0.28740  0.69600  0.39120  Biso   1.000  H
  H769     1.0000 0.15690  0.60840  0.47280  Biso   1.000  H
  H770     1.0000 0.13200  0.62400  0.51930  Biso   1.000  H
  H771     1.0000 0.18100  0.59480  0.51690  Biso   1.000  H
  H772     1.0000 0.15400  0.80890  0.48130  Biso   1.000  H
  H773     1.0000 0.15870  0.78910  0.53270  Biso   1.000  H
  H774     1.0000 0.11730  0.78020  0.51100  Biso   1.000  H
  H775     1.0000 0.40790  0.78290  0.28760  Biso   1.000  H
  H776     1.0000 0.44840  0.74730  0.26830  Biso   1.000  H
  H777     1.0000 0.44570  0.75900  0.31810  Biso   1.000  H
  H778     1.0000 0.47080  0.67730  0.26250  Biso   1.000  H
  H779     1.0000 0.47130  0.63010  0.29510  Biso   1.000  H
  H780     1.0000 0.48600  0.67230  0.31110  Biso   1.000  H
  H781     1.0000 0.39480  0.63510  0.36690  Biso   1.000  H
  H782     1.0000 0.40450  0.61350  0.32120  Biso   1.000  H
  H783     1.0000 0.36130  0.65050  0.33010  Biso   1.000  H
  H784     1.0000 0.23780  0.68850  0.28750  Biso   1.000  H
  H785     1.0000 0.25170  0.71770  0.32060  Biso   1.000  H
  H786     1.0000 0.27390  0.66620  0.32020  Biso   1.000  H
  H787     1.0000 0.28120  0.63460  0.26950  Biso   1.000  H
  H788     1.0000 0.33260  0.61200  0.25930  Biso   1.000  H
  H789     1.0000 0.30360  0.62950  0.21890  Biso   1.000  H
  H790     1.0000 0.35070  0.71340  0.18360  Biso   1.000  H
  H791     1.0000 0.38260  0.66870  0.20090  Biso   1.000  H
  H792     1.0000 0.37800  0.71300  0.22420  Biso   1.000  H
  H793     1.0000 0.91600  0.40670  0.37260  Biso   1.000  H
  H794     1.0000 0.85130  0.51590  0.42770  Biso   1.000  H
  H795     1.0000 0.78330  0.50230  0.41210  Biso   1.000  H
  H796     1.0000 0.78080  0.44050  0.37590  Biso   1.000  H
  H797     1.0000 0.97730  0.44440  0.36930  Biso   1.000  H
  H798     1.0000 0.96600  0.41270  0.41620  Biso   1.000  H
  H799     1.0000 0.12850  0.52480  0.37710  Biso   1.000  H
  H800     1.0000 0.08740  0.54320  0.34880  Biso   1.000  H
  H801     1.0000 0.13120  0.59730  0.31960  Biso   1.000  H
  H802     1.0000 0.13730  0.72550  0.33560  Biso   1.000  H
  H803     1.0000 0.10530  0.71060  0.41130  Biso   1.000  H
  H804     1.0000 0.08270  0.64160  0.43930  Biso   1.000  H
  H805     1.0000 0.07270  0.46410  0.53830  Biso   1.000  H
  H806     1.0000 0.02770  0.44120  0.54770  Biso   1.000  H
  H807     1.0000 0.12660  0.32070  0.55250  Biso   1.000  H
  H808     1.0000 0.11060  0.31470  0.68760  Biso   1.000  H
  H809     1.0000 0.06960  0.38720  0.68190  Biso   1.000  H
  H810     1.0000 0.05770  0.42730  0.61110  Biso   1.000  H
  H811     1.0000 0.02290  0.54430  0.34140  Biso   1.000  H
  H812     1.0000 0.98810  0.50950  0.34530  Biso   1.000  H
  H813     1.0000 0.03940  0.49700  0.32330  Biso   1.000  H
  H814     1.0000 0.11150  0.52220  0.48130  Biso   1.000  H
  H815     1.0000 0.14310  0.50020  0.44080  Biso   1.000  H
  H816     1.0000 0.13140  0.46980  0.48830  Biso   1.000  H
  H817     1.0000 0.95610  0.43360  0.50840  Biso   1.000  H
  H818     1.0000 0.99900  0.39860  0.52120  Biso   1.000  H
  H819     1.0000 0.97510  0.39320  0.48000  Biso   1.000  H
  H820     1.0000 0.86810  0.42320  0.24470  Biso   1.000  H
  H821     1.0000 0.82690  0.54740  0.28020  Biso   1.000  H
  H822     1.0000 0.89800  0.55100  0.29280  Biso   1.000  H
  H823     1.0000 0.95700  0.49160  0.28060  Biso   1.000  H
  H824     1.0000 0.78390  0.42270  0.26010  Biso   1.000  H
  H825     1.0000 0.80950  0.43970  0.21120  Biso   1.000  H
  H826     1.0000 0.61740  0.44640  0.28500  Biso   1.000  H
  H827     1.0000 0.59160  0.47460  0.24480  Biso   1.000  H
  H828     1.0000 0.58640  0.34090  0.21990  Biso   1.000  H
  H829     1.0000 0.45030  0.37150  0.24200  Biso   1.000  H
  H830     1.0000 0.45820  0.43750  0.26800  Biso   1.000  H
  H831     1.0000 0.52810  0.45700  0.26830  Biso   1.000  H
  H832     1.0000 0.66820  0.55910  0.12090  Biso   1.000  H
  H833     1.0000 0.72140  0.55920  0.11650  Biso   1.000  H
  H834     1.0000 0.69500  0.60640  0.05610  Biso   1.000  H
  H835     1.0000 0.67680  0.60700  0.92700  Biso   1.000  H
  H836     1.0000 0.68770  0.52820  0.94030  Biso   1.000  H
  H837     1.0000 0.70060  0.48970  0.00940  Biso   1.000  H
  H838     1.0000 0.67860  0.43530  0.31110  Biso   1.000  H
  H839     1.0000 0.73140  0.41950  0.29870  Biso   1.000  H
  H840     1.0000 0.69600  0.39120  0.28740  Biso   1.000  H
  H841     1.0000 0.60840  0.47280  0.15690  Biso   1.000  H
  H842     1.0000 0.62400  0.51930  0.13200  Biso   1.000  H
  H843     1.0000 0.59480  0.51690  0.18100  Biso   1.000  H
  H844     1.0000 0.80890  0.48130  0.15400  Biso   1.000  H
  H845     1.0000 0.78910  0.53270  0.15870  Biso   1.000  H
  H846     1.0000 0.78020  0.51100  0.11730  Biso   1.000  H
  H847     1.0000 0.78290  0.28760  0.40790  Biso   1.000  H
  H848     1.0000 0.74730  0.26830  0.44840  Biso   1.000  H
  H849     1.0000 0.75900  0.31810  0.44570  Biso   1.000  H
  H850     1.0000 0.67730  0.26250  0.47080  Biso   1.000  H
  H851     1.0000 0.63010  0.29510  0.47130  Biso   1.000  H
  H852     1.0000 0.67230  0.31110  0.48600  Biso   1.000  H
  H853     1.0000 0.63510  0.36690  0.39480  Biso   1.000  H
  H854     1.0000 0.61350  0.32120  0.40450  Biso   1.000  H
  H855     1.0000 0.65050  0.33010  0.36130  Biso   1.000  H
  H856     1.0000 0.68850  0.28750  0.23780  Biso   1.000  H
  H857     1.0000 0.71770  0.32060  0.25170  Biso   1.000  H
  H858     1.0000 0.66620  0.32020  0.27390  Biso   1.000  H
  H859     1.0000 0.63460  0.26950  0.28120  Biso   1.000  H
  H860     1.0000 0.61200  0.25930  0.33260  Biso   1.000  H
  H861     1.0000 0.62950  0.21890  0.30360  Biso   1.000  H
  H862     1.0000 0.71340  0.18360  0.35070  Biso   1.000  H
  H863     1.0000 0.66870  0.20090  0.38260  Biso   1.000  H
  H864     1.0000 0.71300  0.22420  0.37800  Biso   1.000  H
  C1       1.0000 0.84681  0.87833  0.34830  Biso   1.000  C
  C2       1.0000 0.87022  0.91800  0.34798  Biso   1.000  C
  C3       1.0000 0.88026  0.92612  0.38895  Biso   1.000  C
  C4       1.0000 0.90148  0.96289  0.38979  Biso   1.000  C
  C5       1.0000 0.91311  0.99083  0.35049  Biso   1.000  C
  C6       1.0000 0.90382  0.98282  0.31022  Biso   1.000  C
  C7       1.0000 0.88231  0.94607  0.30875  Biso   1.000  C
  C8       1.0000 0.90221  0.94393  0.46949  Biso   1.000  C
  C9       1.0000 0.92048  0.95957  0.50596  Biso   1.000  C
  C10      1.0000 0.89286  0.99102  0.53168  Biso   1.000  C
  C11      1.0000 0.90838  0.00226  0.56894  Biso   1.000  C
  C12      1.0000 0.95142  0.98418  0.57893  Biso   1.000  C
  C13      1.0000 0.98022  0.95687  0.55029  Biso   1.000  C
  C14      1.0000 0.96465  0.94428  0.51422  Biso   1.000  C
  C15      1.0000 0.87944  0.03624  0.59594  Biso   1.000  C
  C16      1.0000 0.88145  0.11362  0.60304  Biso   1.000  C
  C17      1.0000 0.83788  0.12061  0.62504  Biso   1.000  C
  C18      1.0000 0.82135  0.16260  0.63786  Biso   1.000  C
  C19      1.0000 0.84773  0.19643  0.62958  Biso   1.000  C
  C20      1.0000 0.89238  0.18788  0.60968  Biso   1.000  C
  C21      1.0000 0.90887  0.14719  0.59653  Biso   1.000  C
  C22      1.0000 0.77362  0.17196  0.65916  Biso   1.000  C
  C23      1.0000 0.02833  0.94237  0.55712  Biso   1.000  C
  C24      1.0000 0.07480  0.87793  0.59045  Biso   1.000  C
  C25      1.0000 0.07872  0.83446  0.61521  Biso   1.000  C
  C26      1.0000 0.12033  0.81186  0.62284  Biso   1.000  C
  C27      1.0000 0.15894  0.83094  0.60574  Biso   1.000  C
  C28      1.0000 0.15560  0.87380  0.58140  Biso   1.000  C
  C29      1.0000 0.11339  0.89759  0.57399  Biso   1.000  C
  C30      1.0000 0.12413  0.76539  0.65051  Biso   1.000  C
  C31      1.0000 0.84655  0.01233  0.51939  Biso   1.000  C
  C32      1.0000 0.96679  0.99509  0.61979  Biso   1.000  C
  C33      1.0000 0.99640  0.91486  0.48333  Biso   1.000  C
  C34      1.0000 0.75495  0.91317  0.45431  Biso   1.000  C
  C35      1.0000 0.76167  0.95177  0.41727  Biso   1.000  C
  C36      1.0000 0.75411  0.94941  0.37421  Biso   1.000  C
  C37      1.0000 0.75989  0.98419  0.34049  Biso   1.000  C
  C38      1.0000 0.77524  0.02294  0.35014  Biso   1.000  C
  C39      1.0000 0.78256  0.02496  0.39216  Biso   1.000  C
  C40      1.0000 0.77580  0.98970  0.42740  Biso   1.000  C
  C41      1.0000 0.73588  0.94888  0.28578  Biso   1.000  C
  C42      1.0000 0.71840  0.96260  0.24100  Biso   1.000  C
  C43      1.0000 0.74358  0.94988  0.20148  Biso   1.000  C
  C44      1.0000 0.72532  0.96202  0.16212  Biso   1.000  C
  C45      1.0000 0.68269  0.98889  0.16159  Biso   1.000  C
  C46      1.0000 0.65999  0.00479  0.19989  Biso   1.000  C
  C47      1.0000 0.67689  0.99039  0.24059  Biso   1.000  C
  C48      1.0000 0.75216  0.95036  0.11646  Biso   1.000  C
  C49      1.0000 0.74355  0.90145  0.06475  Biso   1.000  C
  C50      1.0000 0.72939  0.86075  0.06033  Biso   1.000  C
  C51      1.0000 0.72924  0.84964  0.01834  Biso   1.000  C
  C52      1.0000 0.74283  0.87863  0.97933  Biso   1.000  C
  C53      1.0000 0.75770  0.91810  0.98430  Biso   1.000  C
  C54      1.0000 0.75813  0.92973  0.02573  Biso   1.000  C
  C55      1.0000 0.71325  0.80605  0.01495  Biso   1.000  C
  C56      1.0000 0.61876  0.03976  0.19796  Biso   1.000  C
  C57      1.0000 0.53946  0.04466  0.19766  Biso   1.000  C
  C58      1.0000 0.53244  0.09074  0.19244  Biso   1.000  C
  C59      1.0000 0.49100  0.11540  0.18330  Biso   1.000  C
  C60      1.0000 0.45582  0.09162  0.18202  Biso   1.000  C
  C61      1.0000 0.46394  0.04454  0.18864  Biso   1.000  C
  C62      1.0000 0.50488  0.02158  0.19628  Biso   1.000  C
  C63      1.0000 0.48355  0.16475  0.17905  Biso   1.000  C
  C64      1.0000 0.78920  0.92160  0.20190  Biso   1.000  C
  C65      1.0000 0.66119  0.00059  0.11829  Biso   1.000  C
  C66      1.0000 0.64931  0.00511  0.28351  Biso   1.000  C
  C67      1.0000 0.90149  0.81309  0.21909  Biso   1.000  C
  C68      1.0000 0.92796  0.79536  0.25496  Biso   1.000  C
  C69      1.0000 0.96568  0.79388  0.16298  Biso   1.000  C
  C70      1.0000 0.89282  0.83452  0.14102  Biso   1.000  C
  C71      1.0000 0.80304  0.76274  0.20964  Biso   1.000  C
  C72      1.0000 0.76257  0.80167  0.19387  Biso   1.000  C
  C73      1.0000 0.80906  0.74806  0.13526  Biso   1.000  C
  C74      1.0000 0.86198  0.71008  0.19508  Biso   1.000  C
  C75      1.0000 0.34830  0.84681  0.87833  Biso   1.000  C
  C76      1.0000 0.34798  0.87022  0.91800  Biso   1.000  C
  C77      1.0000 0.38895  0.88026  0.92612  Biso   1.000  C
  C78      1.0000 0.38979  0.90148  0.96289  Biso   1.000  C
  C79      1.0000 0.35049  0.91311  0.99083  Biso   1.000  C
  C80      1.0000 0.31022  0.90382  0.98282  Biso   1.000  C
  C81      1.0000 0.30875  0.88231  0.94607  Biso   1.000  C
  C82      1.0000 0.46949  0.90221  0.94393  Biso   1.000  C
  C83      1.0000 0.50596  0.92048  0.95957  Biso   1.000  C
  C84      1.0000 0.53168  0.89286  0.99102  Biso   1.000  C
  C85      1.0000 0.56894  0.90838  0.00226  Biso   1.000  C
  C86      1.0000 0.57893  0.95142  0.98418  Biso   1.000  C
  C87      1.0000 0.55029  0.98022  0.95687  Biso   1.000  C
  C88      1.0000 0.51422  0.96465  0.94428  Biso   1.000  C
  C89      1.0000 0.59594  0.87944  0.03624  Biso   1.000  C
  C90      1.0000 0.60304  0.88145  0.11362  Biso   1.000  C
  C91      1.0000 0.62504  0.83788  0.12061  Biso   1.000  C
  C92      1.0000 0.63786  0.82135  0.16260  Biso   1.000  C
  C93      1.0000 0.62958  0.84773  0.19643  Biso   1.000  C
  C94      1.0000 0.60968  0.89238  0.18788  Biso   1.000  C
  C95      1.0000 0.59653  0.90887  0.14719  Biso   1.000  C
  C96      1.0000 0.65916  0.77362  0.17196  Biso   1.000  C
  C97      1.0000 0.55712  0.02833  0.94237  Biso   1.000  C
  C98      1.0000 0.59045  0.07480  0.87793  Biso   1.000  C
  C99      1.0000 0.61521  0.07872  0.83446  Biso   1.000  C
  C100     1.0000 0.62284  0.12033  0.81186  Biso   1.000  C
  C101     1.0000 0.60574  0.15894  0.83094  Biso   1.000  C
  C102     1.0000 0.58140  0.15560  0.87380  Biso   1.000  C
  C103     1.0000 0.57399  0.11339  0.89759  Biso   1.000  C
  C104     1.0000 0.65051  0.12413  0.76539  Biso   1.000  C
  C105     1.0000 0.51939  0.84655  0.01233  Biso   1.000  C
  C106     1.0000 0.61979  0.96679  0.99509  Biso   1.000  C
  C107     1.0000 0.48333  0.99640  0.91486  Biso   1.000  C
  C108     1.0000 0.45431  0.75495  0.91317  Biso   1.000  C
  C109     1.0000 0.41727  0.76167  0.95177  Biso   1.000  C
  C110     1.0000 0.37421  0.75411  0.94941  Biso   1.000  C
  C111     1.0000 0.34049  0.75989  0.98419  Biso   1.000  C
  C112     1.0000 0.35014  0.77524  0.02294  Biso   1.000  C
  C113     1.0000 0.39216  0.78256  0.02496  Biso   1.000  C
  C114     1.0000 0.42740  0.77580  0.98970  Biso   1.000  C
  C115     1.0000 0.28578  0.73588  0.94888  Biso   1.000  C
  C116     1.0000 0.24100  0.71840  0.96260  Biso   1.000  C
  C117     1.0000 0.20148  0.74358  0.94988  Biso   1.000  C
  C118     1.0000 0.16212  0.72532  0.96202  Biso   1.000  C
  C119     1.0000 0.16159  0.68269  0.98889  Biso   1.000  C
  C120     1.0000 0.19989  0.65999  0.00479  Biso   1.000  C
  C121     1.0000 0.24059  0.67689  0.99039  Biso   1.000  C
  C122     1.0000 0.11646  0.75216  0.95036  Biso   1.000  C
  C123     1.0000 0.06475  0.74355  0.90145  Biso   1.000  C
  C124     1.0000 0.06033  0.72939  0.86075  Biso   1.000  C
  C125     1.0000 0.01834  0.72924  0.84964  Biso   1.000  C
  C126     1.0000 0.97933  0.74283  0.87863  Biso   1.000  C
  C127     1.0000 0.98430  0.75770  0.91810  Biso   1.000  C
  C128     1.0000 0.02573  0.75813  0.92973  Biso   1.000  C
  C129     1.0000 0.01495  0.71325  0.80605  Biso   1.000  C
  C130     1.0000 0.19796  0.61876  0.03976  Biso   1.000  C
  C131     1.0000 0.19766  0.53946  0.04466  Biso   1.000  C
  C132     1.0000 0.19244  0.53244  0.09074  Biso   1.000  C
  C133     1.0000 0.18330  0.49100  0.11540  Biso   1.000  C
  C134     1.0000 0.18202  0.45582  0.09162  Biso   1.000  C
  C135     1.0000 0.18864  0.46394  0.04454  Biso   1.000  C
  C136     1.0000 0.19628  0.50488  0.02158  Biso   1.000  C
  C137     1.0000 0.17905  0.48355  0.16475  Biso   1.000  C
  C138     1.0000 0.20190  0.78920  0.92160  Biso   1.000  C
  C139     1.0000 0.11829  0.66119  0.00059  Biso   1.000  C
  C140     1.0000 0.28351  0.64931  0.00511  Biso   1.000  C
  C141     1.0000 0.21909  0.90149  0.81309  Biso   1.000  C
  C142     1.0000 0.25496  0.92796  0.79536  Biso   1.000  C
  C143     1.0000 0.16298  0.96568  0.79388  Biso   1.000  C
  C144     1.0000 0.14102  0.89282  0.83452  Biso   1.000  C
  C145     1.0000 0.20964  0.80304  0.76274  Biso   1.000  C
  C146     1.0000 0.19387  0.76257  0.80167  Biso   1.000  C
  C147     1.0000 0.13526  0.80906  0.74806  Biso   1.000  C
  C148     1.0000 0.19508  0.86198  0.71008  Biso   1.000  C
  C149     1.0000 0.87833  0.34830  0.84681  Biso   1.000  C
  C150     1.0000 0.91800  0.34798  0.87022  Biso   1.000  C
  C151     1.0000 0.92612  0.38895  0.88026  Biso   1.000  C
  C152     1.0000 0.96289  0.38979  0.90148  Biso   1.000  C
  C153     1.0000 0.99083  0.35049  0.91311  Biso   1.000  C
  C154     1.0000 0.98282  0.31022  0.90382  Biso   1.000  C
  C155     1.0000 0.94607  0.30875  0.88231  Biso   1.000  C
  C156     1.0000 0.94393  0.46949  0.90221  Biso   1.000  C
  C157     1.0000 0.95957  0.50596  0.92048  Biso   1.000  C
  C158     1.0000 0.99102  0.53168  0.89286  Biso   1.000  C
  C159     1.0000 0.00226  0.56894  0.90838  Biso   1.000  C
  C160     1.0000 0.98418  0.57893  0.95142  Biso   1.000  C
  C161     1.0000 0.95687  0.55029  0.98022  Biso   1.000  C
  C162     1.0000 0.94428  0.51422  0.96465  Biso   1.000  C
  C163     1.0000 0.03624  0.59594  0.87944  Biso   1.000  C
  C164     1.0000 0.11362  0.60304  0.88145  Biso   1.000  C
  C165     1.0000 0.12061  0.62504  0.83788  Biso   1.000  C
  C166     1.0000 0.16260  0.63786  0.82135  Biso   1.000  C
  C167     1.0000 0.19643  0.62958  0.84773  Biso   1.000  C
  C168     1.0000 0.18788  0.60968  0.89238  Biso   1.000  C
  C169     1.0000 0.14719  0.59653  0.90887  Biso   1.000  C
  C170     1.0000 0.17196  0.65916  0.77362  Biso   1.000  C
  C171     1.0000 0.94237  0.55712  0.02833  Biso   1.000  C
  C172     1.0000 0.87793  0.59045  0.07480  Biso   1.000  C
  C173     1.0000 0.83446  0.61521  0.07872  Biso   1.000  C
  C174     1.0000 0.81186  0.62284  0.12033  Biso   1.000  C
  C175     1.0000 0.83094  0.60574  0.15894  Biso   1.000  C
  C176     1.0000 0.87380  0.58140  0.15560  Biso   1.000  C
  C177     1.0000 0.89759  0.57399  0.11339  Biso   1.000  C
  C178     1.0000 0.76539  0.65051  0.12413  Biso   1.000  C
  C179     1.0000 0.01233  0.51939  0.84655  Biso   1.000  C
  C180     1.0000 0.99509  0.61979  0.96679  Biso   1.000  C
  C181     1.0000 0.91486  0.48333  0.99640  Biso   1.000  C
  C182     1.0000 0.91317  0.45431  0.75495  Biso   1.000  C
  C183     1.0000 0.95177  0.41727  0.76167  Biso   1.000  C
  C184     1.0000 0.94941  0.37421  0.75411  Biso   1.000  C
  C185     1.0000 0.98419  0.34049  0.75989  Biso   1.000  C
  C186     1.0000 0.02294  0.35014  0.77524  Biso   1.000  C
  C187     1.0000 0.02496  0.39216  0.78256  Biso   1.000  C
  C188     1.0000 0.98970  0.42740  0.77580  Biso   1.000  C
  C189     1.0000 0.94888  0.28578  0.73588  Biso   1.000  C
  C190     1.0000 0.96260  0.24100  0.71840  Biso   1.000  C
  C191     1.0000 0.94988  0.20148  0.74358  Biso   1.000  C
  C192     1.0000 0.96202  0.16212  0.72532  Biso   1.000  C
  C193     1.0000 0.98889  0.16159  0.68269  Biso   1.000  C
  C194     1.0000 0.00479  0.19989  0.65999  Biso   1.000  C
  C195     1.0000 0.99039  0.24059  0.67689  Biso   1.000  C
  C196     1.0000 0.95036  0.11646  0.75216  Biso   1.000  C
  C197     1.0000 0.90145  0.06475  0.74355  Biso   1.000  C
  C198     1.0000 0.86075  0.06033  0.72939  Biso   1.000  C
  C199     1.0000 0.84964  0.01834  0.72924  Biso   1.000  C
  C200     1.0000 0.87863  0.97933  0.74283  Biso   1.000  C
  C201     1.0000 0.91810  0.98430  0.75770  Biso   1.000  C
  C202     1.0000 0.92973  0.02573  0.75813  Biso   1.000  C
  C203     1.0000 0.80605  0.01495  0.71325  Biso   1.000  C
  C204     1.0000 0.03976  0.19796  0.61876  Biso   1.000  C
  C205     1.0000 0.04466  0.19766  0.53946  Biso   1.000  C
  C206     1.0000 0.09074  0.19244  0.53244  Biso   1.000  C
  C207     1.0000 0.11540  0.18330  0.49100  Biso   1.000  C
  C208     1.0000 0.09162  0.18202  0.45582  Biso   1.000  C
  C209     1.0000 0.04454  0.18864  0.46394  Biso   1.000  C
  C210     1.0000 0.02158  0.19628  0.50488  Biso   1.000  C
  C211     1.0000 0.16475  0.17905  0.48355  Biso   1.000  C
  C212     1.0000 0.92160  0.20190  0.78920  Biso   1.000  C
  C213     1.0000 0.00059  0.11829  0.66119  Biso   1.000  C
  C214     1.0000 0.00511  0.28351  0.64931  Biso   1.000  C
  C215     1.0000 0.81309  0.21909  0.90149  Biso   1.000  C
  C216     1.0000 0.79536  0.25496  0.92796  Biso   1.000  C
  C217     1.0000 0.79388  0.16298  0.96568  Biso   1.000  C
  C218     1.0000 0.83452  0.14102  0.89282  Biso   1.000  C
  C219     1.0000 0.76274  0.20964  0.80304  Biso   1.000  C
  C220     1.0000 0.80167  0.19387  0.76257  Biso   1.000  C
  C221     1.0000 0.74806  0.13526  0.80906  Biso   1.000  C
  C222     1.0000 0.71008  0.19508  0.86198  Biso   1.000  C
  C223     1.0000 0.62167  0.65319  0.15170  Biso   1.000  C
  C224     1.0000 0.58200  0.62978  0.15202  Biso   1.000  C
  C225     1.0000 0.57388  0.61974  0.11105  Biso   1.000  C
  C226     1.0000 0.53711  0.59852  0.11021  Biso   1.000  C
  C227     1.0000 0.50917  0.58689  0.14951  Biso   1.000  C
  C228     1.0000 0.51718  0.59618  0.18978  Biso   1.000  C
  C229     1.0000 0.55393  0.61769  0.19125  Biso   1.000  C
  C230     1.0000 0.55607  0.59779  0.03051  Biso   1.000  C
  C231     1.0000 0.54043  0.57952  0.99404  Biso   1.000  C
  C232     1.0000 0.50898  0.60714  0.96832  Biso   1.000  C
  C233     1.0000 0.49774  0.59162  0.93106  Biso   1.000  C
  C234     1.0000 0.51582  0.54858  0.92107  Biso   1.000  C
  C235     1.0000 0.54313  0.51978  0.94971  Biso   1.000  C
  C236     1.0000 0.55572  0.53535  0.98578  Biso   1.000  C
  C237     1.0000 0.46376  0.62056  0.90406  Biso   1.000  C
  C238     1.0000 0.38638  0.61855  0.89696  Biso   1.000  C
  C239     1.0000 0.37939  0.66212  0.87496  Biso   1.000  C
  C240     1.0000 0.33740  0.67865  0.86214  Biso   1.000  C
  C241     1.0000 0.30357  0.65227  0.87042  Biso   1.000  C
  C242     1.0000 0.31212  0.60762  0.89032  Biso   1.000  C
  C243     1.0000 0.35281  0.59113  0.90347  Biso   1.000  C
  C244     1.0000 0.32804  0.72638  0.84084  Biso   1.000  C
  C245     1.0000 0.55763  0.47167  0.94288  Biso   1.000  C
  C246     1.0000 0.62207  0.42520  0.90955  Biso   1.000  C
  C247     1.0000 0.66554  0.42128  0.88479  Biso   1.000  C
  C248     1.0000 0.68814  0.37967  0.87716  Biso   1.000  C
  C249     1.0000 0.66906  0.34106  0.89426  Biso   1.000  C
  C250     1.0000 0.62620  0.34440  0.91860  Biso   1.000  C
  C251     1.0000 0.60241  0.38661  0.92601  Biso   1.000  C
  C252     1.0000 0.73461  0.37587  0.84949  Biso   1.000  C
  C253     1.0000 0.48767  0.65345  0.98061  Biso   1.000  C
  C254     1.0000 0.50491  0.53321  0.88021  Biso   1.000  C
  C255     1.0000 0.58514  0.50360  0.01667  Biso   1.000  C
  C256     1.0000 0.58683  0.74505  0.04569  Biso   1.000  C
  C257     1.0000 0.54823  0.73833  0.08273  Biso   1.000  C
  C258     1.0000 0.55059  0.74589  0.12579  Biso   1.000  C
  C259     1.0000 0.51581  0.74011  0.15951  Biso   1.000  C
  C260     1.0000 0.47706  0.72476  0.14986  Biso   1.000  C
  C261     1.0000 0.47504  0.71744  0.10784  Biso   1.000  C
  C262     1.0000 0.51030  0.72420  0.07260  Biso   1.000  C
  C263     1.0000 0.55112  0.76412  0.21422  Biso   1.000  C
  C264     1.0000 0.53740  0.78160  0.25900  Biso   1.000  C
  C265     1.0000 0.55012  0.75642  0.29852  Biso   1.000  C
  C266     1.0000 0.53798  0.77468  0.33788  Biso   1.000  C
  C267     1.0000 0.51111  0.81731  0.33841  Biso   1.000  C
  C268     1.0000 0.49521  0.84001  0.30011  Biso   1.000  C
  C269     1.0000 0.50961  0.82311  0.25941  Biso   1.000  C
  C270     1.0000 0.54964  0.74784  0.38354  Biso   1.000  C
  C271     1.0000 0.59855  0.75645  0.43525  Biso   1.000  C
  C272     1.0000 0.63925  0.77061  0.43967  Biso   1.000  C
  C273     1.0000 0.65036  0.77076  0.48166  Biso   1.000  C
  C274     1.0000 0.62137  0.75717  0.52067  Biso   1.000  C
  C275     1.0000 0.58190  0.74230  0.51570  Biso   1.000  C
  C276     1.0000 0.57027  0.74187  0.47427  Biso   1.000  C
  C277     1.0000 0.69395  0.78675  0.48505  Biso   1.000  C
  C278     1.0000 0.46024  0.88124  0.30204  Biso   1.000  C
  C279     1.0000 0.45534  0.96054  0.30234  Biso   1.000  C
  C280     1.0000 0.40926  0.96756  0.30756  Biso   1.000  C
  C281     1.0000 0.38460  0.00900  0.31670  Biso   1.000  C
  C282     1.0000 0.40838  0.04418  0.31798  Biso   1.000  C
  C283     1.0000 0.45546  0.03606  0.31136  Biso   1.000  C
  C284     1.0000 0.47842  0.99512  0.30372  Biso   1.000  C
  C285     1.0000 0.33525  0.01645  0.32095  Biso   1.000  C
  C286     1.0000 0.57840  0.71080  0.29810  Biso   1.000  C
  C287     1.0000 0.49941  0.83881  0.38171  Biso   1.000  C
  C288     1.0000 0.49489  0.85069  0.21649  Biso   1.000  C
  C289     1.0000 0.68691  0.59851  0.28091  Biso   1.000  C
  C290     1.0000 0.70464  0.57204  0.24504  Biso   1.000  C
  C291     1.0000 0.70612  0.53432  0.33702  Biso   1.000  C
  C292     1.0000 0.66548  0.60718  0.35898  Biso   1.000  C
  C293     1.0000 0.73726  0.69696  0.29036  Biso   1.000  C
  C294     1.0000 0.69833  0.73743  0.30613  Biso   1.000  C
  C295     1.0000 0.75194  0.69094  0.36474  Biso   1.000  C
  C296     1.0000 0.78992  0.63802  0.30492  Biso   1.000  C
  C297     1.0000 0.65319  0.15170  0.62167  Biso   1.000  C
  C298     1.0000 0.62978  0.15202  0.58200  Biso   1.000  C
  C299     1.0000 0.61974  0.11105  0.57388  Biso   1.000  C
  C300     1.0000 0.59852  0.11021  0.53711  Biso   1.000  C
  C301     1.0000 0.58689  0.14951  0.50917  Biso   1.000  C
  C302     1.0000 0.59618  0.18978  0.51718  Biso   1.000  C
  C303     1.0000 0.61769  0.19125  0.55393  Biso   1.000  C
  C304     1.0000 0.59779  0.03051  0.55607  Biso   1.000  C
  C305     1.0000 0.57952  0.99404  0.54043  Biso   1.000  C
  C306     1.0000 0.60714  0.96832  0.50898  Biso   1.000  C
  C307     1.0000 0.59162  0.93106  0.49774  Biso   1.000  C
  C308     1.0000 0.54858  0.92107  0.51582  Biso   1.000  C
  C309     1.0000 0.51978  0.94971  0.54313  Biso   1.000  C
  C310     1.0000 0.53535  0.98578  0.55572  Biso   1.000  C
  C311     1.0000 0.62056  0.90406  0.46376  Biso   1.000  C
  C312     1.0000 0.61855  0.89696  0.38638  Biso   1.000  C
  C313     1.0000 0.66212  0.87496  0.37939  Biso   1.000  C
  C314     1.0000 0.67865  0.86214  0.33740  Biso   1.000  C
  C315     1.0000 0.65227  0.87042  0.30357  Biso   1.000  C
  C316     1.0000 0.60762  0.89032  0.31212  Biso   1.000  C
  C317     1.0000 0.59113  0.90347  0.35281  Biso   1.000  C
  C318     1.0000 0.72638  0.84084  0.32804  Biso   1.000  C
  C319     1.0000 0.47167  0.94288  0.55763  Biso   1.000  C
  C320     1.0000 0.42520  0.90955  0.62207  Biso   1.000  C
  C321     1.0000 0.42128  0.88479  0.66554  Biso   1.000  C
  C322     1.0000 0.37967  0.87716  0.68814  Biso   1.000  C
  C323     1.0000 0.34106  0.89426  0.66906  Biso   1.000  C
  C324     1.0000 0.34440  0.91860  0.62620  Biso   1.000  C
  C325     1.0000 0.38661  0.92601  0.60241  Biso   1.000  C
  C326     1.0000 0.37587  0.84949  0.73461  Biso   1.000  C
  C327     1.0000 0.65345  0.98061  0.48767  Biso   1.000  C
  C328     1.0000 0.53321  0.88021  0.50491  Biso   1.000  C
  C329     1.0000 0.50360  0.01667  0.58514  Biso   1.000  C
  C330     1.0000 0.74505  0.04569  0.58683  Biso   1.000  C
  C331     1.0000 0.73833  0.08273  0.54823  Biso   1.000  C
  C332     1.0000 0.74589  0.12579  0.55059  Biso   1.000  C
  C333     1.0000 0.74011  0.15951  0.51581  Biso   1.000  C
  C334     1.0000 0.72476  0.14986  0.47706  Biso   1.000  C
  C335     1.0000 0.71744  0.10784  0.47504  Biso   1.000  C
  C336     1.0000 0.72420  0.07260  0.51030  Biso   1.000  C
  C337     1.0000 0.76412  0.21422  0.55112  Biso   1.000  C
  C338     1.0000 0.78160  0.25900  0.53740  Biso   1.000  C
  C339     1.0000 0.75642  0.29852  0.55012  Biso   1.000  C
  C340     1.0000 0.77468  0.33788  0.53798  Biso   1.000  C
  C341     1.0000 0.81731  0.33841  0.51111  Biso   1.000  C
  C342     1.0000 0.84001  0.30011  0.49521  Biso   1.000  C
  C343     1.0000 0.82311  0.25941  0.50961  Biso   1.000  C
  C344     1.0000 0.74784  0.38354  0.54964  Biso   1.000  C
  C345     1.0000 0.75645  0.43525  0.59855  Biso   1.000  C
  C346     1.0000 0.77061  0.43967  0.63925  Biso   1.000  C
  C347     1.0000 0.77076  0.48166  0.65036  Biso   1.000  C
  C348     1.0000 0.75717  0.52067  0.62137  Biso   1.000  C
  C349     1.0000 0.74230  0.51570  0.58190  Biso   1.000  C
  C350     1.0000 0.74187  0.47427  0.57027  Biso   1.000  C
  C351     1.0000 0.78675  0.48505  0.69395  Biso   1.000  C
  C352     1.0000 0.88124  0.30204  0.46024  Biso   1.000  C
  C353     1.0000 0.96054  0.30234  0.45534  Biso   1.000  C
  C354     1.0000 0.96756  0.30756  0.40926  Biso   1.000  C
  C355     1.0000 0.00900  0.31670  0.38460  Biso   1.000  C
  C356     1.0000 0.04418  0.31798  0.40838  Biso   1.000  C
  C357     1.0000 0.03606  0.31136  0.45546  Biso   1.000  C
  C358     1.0000 0.99512  0.30372  0.47842  Biso   1.000  C
  C359     1.0000 0.01645  0.32095  0.33525  Biso   1.000  C
  C360     1.0000 0.71080  0.29810  0.57840  Biso   1.000  C
  C361     1.0000 0.83881  0.38171  0.49941  Biso   1.000  C
  C362     1.0000 0.85069  0.21649  0.49489  Biso   1.000  C
  C363     1.0000 0.59851  0.28091  0.68691  Biso   1.000  C
  C364     1.0000 0.57204  0.24504  0.70464  Biso   1.000  C
  C365     1.0000 0.53432  0.33702  0.70612  Biso   1.000  C
  C366     1.0000 0.60718  0.35898  0.66548  Biso   1.000  C
  C367     1.0000 0.69696  0.29036  0.73726  Biso   1.000  C
  C368     1.0000 0.73743  0.30613  0.69833  Biso   1.000  C
  C369     1.0000 0.69094  0.36474  0.75194  Biso   1.000  C
  C370     1.0000 0.63802  0.30492  0.78992  Biso   1.000  C
  C371     1.0000 0.15170  0.62167  0.65319  Biso   1.000  C
  C372     1.0000 0.15202  0.58200  0.62978  Biso   1.000  C
  C373     1.0000 0.11105  0.57388  0.61974  Biso   1.000  C
  C374     1.0000 0.11021  0.53711  0.59852  Biso   1.000  C
  C375     1.0000 0.14951  0.50917  0.58689  Biso   1.000  C
  C376     1.0000 0.18978  0.51718  0.59618  Biso   1.000  C
  C377     1.0000 0.19125  0.55393  0.61769  Biso   1.000  C
  C378     1.0000 0.03051  0.55607  0.59779  Biso   1.000  C
  C379     1.0000 0.99404  0.54043  0.57952  Biso   1.000  C
  C380     1.0000 0.96832  0.50898  0.60714  Biso   1.000  C
  C381     1.0000 0.93106  0.49774  0.59162  Biso   1.000  C
  C382     1.0000 0.92107  0.51582  0.54858  Biso   1.000  C
  C383     1.0000 0.94971  0.54313  0.51978  Biso   1.000  C
  C384     1.0000 0.98578  0.55572  0.53535  Biso   1.000  C
  C385     1.0000 0.90406  0.46376  0.62056  Biso   1.000  C
  C386     1.0000 0.89696  0.38638  0.61855  Biso   1.000  C
  C387     1.0000 0.87496  0.37939  0.66212  Biso   1.000  C
  C388     1.0000 0.86214  0.33740  0.67865  Biso   1.000  C
  C389     1.0000 0.87042  0.30357  0.65227  Biso   1.000  C
  C390     1.0000 0.89032  0.31212  0.60762  Biso   1.000  C
  C391     1.0000 0.90347  0.35281  0.59113  Biso   1.000  C
  C392     1.0000 0.84084  0.32804  0.72638  Biso   1.000  C
  C393     1.0000 0.94288  0.55763  0.47167  Biso   1.000  C
  C394     1.0000 0.90955  0.62207  0.42520  Biso   1.000  C
  C395     1.0000 0.88479  0.66554  0.42128  Biso   1.000  C
  C396     1.0000 0.87716  0.68814  0.37967  Biso   1.000  C
  C397     1.0000 0.89426  0.66906  0.34106  Biso   1.000  C
  C398     1.0000 0.91860  0.62620  0.34440  Biso   1.000  C
  C399     1.0000 0.92601  0.60241  0.38661  Biso   1.000  C
  C400     1.0000 0.84949  0.73461  0.37587  Biso   1.000  C
  C401     1.0000 0.98061  0.48767  0.65345  Biso   1.000  C
  C402     1.0000 0.88021  0.50491  0.53321  Biso   1.000  C
  C403     1.0000 0.01667  0.58514  0.50360  Biso   1.000  C
  C404     1.0000 0.04569  0.58683  0.74505  Biso   1.000  C
  C405     1.0000 0.08273  0.54823  0.73833  Biso   1.000  C
  C406     1.0000 0.12579  0.55059  0.74589  Biso   1.000  C
  C407     1.0000 0.15951  0.51581  0.74011  Biso   1.000  C
  C408     1.0000 0.14986  0.47706  0.72476  Biso   1.000  C
  C409     1.0000 0.10784  0.47504  0.71744  Biso   1.000  C
  C410     1.0000 0.07260  0.51030  0.72420  Biso   1.000  C
  C411     1.0000 0.21422  0.55112  0.76412  Biso   1.000  C
  C412     1.0000 0.25900  0.53740  0.78160  Biso   1.000  C
  C413     1.0000 0.29852  0.55012  0.75642  Biso   1.000  C
  C414     1.0000 0.33788  0.53798  0.77468  Biso   1.000  C
  C415     1.0000 0.33841  0.51111  0.81731  Biso   1.000  C
  C416     1.0000 0.30011  0.49521  0.84001  Biso   1.000  C
  C417     1.0000 0.25941  0.50961  0.82311  Biso   1.000  C
  C418     1.0000 0.38354  0.54964  0.74784  Biso   1.000  C
  C419     1.0000 0.43525  0.59855  0.75645  Biso   1.000  C
  C420     1.0000 0.43967  0.63925  0.77061  Biso   1.000  C
  C421     1.0000 0.48166  0.65036  0.77076  Biso   1.000  C
  C422     1.0000 0.52067  0.62137  0.75717  Biso   1.000  C
  C423     1.0000 0.51570  0.58190  0.74230  Biso   1.000  C
  C424     1.0000 0.47427  0.57027  0.74187  Biso   1.000  C
  C425     1.0000 0.48505  0.69395  0.78675  Biso   1.000  C
  C426     1.0000 0.30204  0.46024  0.88124  Biso   1.000  C
  C427     1.0000 0.30234  0.45534  0.96054  Biso   1.000  C
  C428     1.0000 0.30756  0.40926  0.96756  Biso   1.000  C
  C429     1.0000 0.31670  0.38460  0.00900  Biso   1.000  C
  C430     1.0000 0.31798  0.40838  0.04418  Biso   1.000  C
  C431     1.0000 0.31136  0.45546  0.03606  Biso   1.000  C
  C432     1.0000 0.30372  0.47842  0.99512  Biso   1.000  C
  C433     1.0000 0.32095  0.33525  0.01645  Biso   1.000  C
  C434     1.0000 0.29810  0.57840  0.71080  Biso   1.000  C
  C435     1.0000 0.38171  0.49941  0.83881  Biso   1.000  C
  C436     1.0000 0.21649  0.49489  0.85069  Biso   1.000  C
  C437     1.0000 0.28091  0.68691  0.59851  Biso   1.000  C
  C438     1.0000 0.24504  0.70464  0.57204  Biso   1.000  C
  C439     1.0000 0.33702  0.70612  0.53432  Biso   1.000  C
  C440     1.0000 0.35898  0.66548  0.60718  Biso   1.000  C
  C441     1.0000 0.29036  0.73726  0.69696  Biso   1.000  C
  C442     1.0000 0.30613  0.69833  0.73743  Biso   1.000  C
  C443     1.0000 0.36474  0.75194  0.69094  Biso   1.000  C
  C444     1.0000 0.30492  0.78992  0.63802  Biso   1.000  C
  C445     1.0000 0.15319  0.12167  0.65170  Biso   1.000  C
  C446     1.0000 0.12978  0.08200  0.65202  Biso   1.000  C
  C447     1.0000 0.11974  0.07388  0.61105  Biso   1.000  C
  C448     1.0000 0.09852  0.03711  0.61021  Biso   1.000  C
  C449     1.0000 0.08689  0.00917  0.64951  Biso   1.000  C
  C450     1.0000 0.09618  0.01718  0.68978  Biso   1.000  C
  C451     1.0000 0.11769  0.05393  0.69125  Biso   1.000  C
  C452     1.0000 0.09779  0.05607  0.53051  Biso   1.000  C
  C453     1.0000 0.07952  0.04043  0.49404  Biso   1.000  C
  C454     1.0000 0.10714  0.00898  0.46832  Biso   1.000  C
  C455     1.0000 0.09162  0.99774  0.43106  Biso   1.000  C
  C456     1.0000 0.04858  0.01582  0.42107  Biso   1.000  C
  C457     1.0000 0.01978  0.04313  0.44971  Biso   1.000  C
  C458     1.0000 0.03535  0.05572  0.48578  Biso   1.000  C
  C459     1.0000 0.12056  0.96376  0.40406  Biso   1.000  C
  C460     1.0000 0.11855  0.88638  0.39696  Biso   1.000  C
  C461     1.0000 0.16212  0.87939  0.37496  Biso   1.000  C
  C462     1.0000 0.17865  0.83740  0.36214  Biso   1.000  C
  C463     1.0000 0.15227  0.80357  0.37042  Biso   1.000  C
  C464     1.0000 0.10762  0.81212  0.39032  Biso   1.000  C
  C465     1.0000 0.09113  0.85281  0.40347  Biso   1.000  C
  C466     1.0000 0.22638  0.82804  0.34084  Biso   1.000  C
  C467     1.0000 0.97167  0.05763  0.44288  Biso   1.000  C
  C468     1.0000 0.92520  0.12207  0.40955  Biso   1.000  C
  C469     1.0000 0.92128  0.16554  0.38479  Biso   1.000  C
  C470     1.0000 0.87967  0.18814  0.37716  Biso   1.000  C
  C471     1.0000 0.84106  0.16906  0.39426  Biso   1.000  C
  C472     1.0000 0.84440  0.12620  0.41860  Biso   1.000  C
  C473     1.0000 0.88661  0.10241  0.42601  Biso   1.000  C
  C474     1.0000 0.87587  0.23461  0.34949  Biso   1.000  C
  C475     1.0000 0.15345  0.98767  0.48061  Biso   1.000  C
  C476     1.0000 0.03321  0.00491  0.38021  Biso   1.000  C
  C477     1.0000 0.00360  0.08514  0.51667  Biso   1.000  C
  C478     1.0000 0.24505  0.08683  0.54569  Biso   1.000  C
  C479     1.0000 0.23833  0.04823  0.58273  Biso   1.000  C
  C480     1.0000 0.24589  0.05059  0.62579  Biso   1.000  C
  C481     1.0000 0.24011  0.01581  0.65951  Biso   1.000  C
  C482     1.0000 0.22476  0.97706  0.64986  Biso   1.000  C
  C483     1.0000 0.21744  0.97504  0.60784  Biso   1.000  C
  C484     1.0000 0.22420  0.01030  0.57260  Biso   1.000  C
  C485     1.0000 0.26412  0.05112  0.71422  Biso   1.000  C
  C486     1.0000 0.28160  0.03740  0.75900  Biso   1.000  C
  C487     1.0000 0.25642  0.05012  0.79852  Biso   1.000  C
  C488     1.0000 0.27468  0.03798  0.83788  Biso   1.000  C
  C489     1.0000 0.31731  0.01111  0.83841  Biso   1.000  C
  C490     1.0000 0.34001  0.99521  0.80011  Biso   1.000  C
  C491     1.0000 0.32311  0.00961  0.75941  Biso   1.000  C
  C492     1.0000 0.24784  0.04964  0.88354  Biso   1.000  C
  C493     1.0000 0.25645  0.09855  0.93525  Biso   1.000  C
  C494     1.0000 0.27061  0.13925  0.93967  Biso   1.000  C
  C495     1.0000 0.27076  0.15036  0.98166  Biso   1.000  C
  C496     1.0000 0.25717  0.12137  0.02067  Biso   1.000  C
  C497     1.0000 0.24230  0.08190  0.01570  Biso   1.000  C
  C498     1.0000 0.24187  0.07027  0.97427  Biso   1.000  C
  C499     1.0000 0.28675  0.19395  0.98505  Biso   1.000  C
  C500     1.0000 0.38124  0.96024  0.80204  Biso   1.000  C
  C501     1.0000 0.46054  0.95534  0.80234  Biso   1.000  C
  C502     1.0000 0.46756  0.90926  0.80756  Biso   1.000  C
  C503     1.0000 0.50900  0.88460  0.81670  Biso   1.000  C
  C504     1.0000 0.54418  0.90838  0.81798  Biso   1.000  C
  C505     1.0000 0.53606  0.95546  0.81136  Biso   1.000  C
  C506     1.0000 0.49512  0.97842  0.80372  Biso   1.000  C
  C507     1.0000 0.51645  0.83525  0.82095  Biso   1.000  C
  C508     1.0000 0.21080  0.07840  0.79810  Biso   1.000  C
  C509     1.0000 0.33881  0.99941  0.88171  Biso   1.000  C
  C510     1.0000 0.35069  0.99489  0.71649  Biso   1.000  C
  C511     1.0000 0.09851  0.18691  0.78091  Biso   1.000  C
  C512     1.0000 0.07204  0.20464  0.74504  Biso   1.000  C
  C513     1.0000 0.03432  0.20612  0.83702  Biso   1.000  C
  C514     1.0000 0.10718  0.16548  0.85898  Biso   1.000  C
  C515     1.0000 0.19696  0.23726  0.79036  Biso   1.000  C
  C516     1.0000 0.23743  0.19833  0.80613  Biso   1.000  C
  C517     1.0000 0.19094  0.25194  0.86474  Biso   1.000  C
  C518     1.0000 0.13802  0.28992  0.80492  Biso   1.000  C
  C519     1.0000 0.65170  0.15319  0.12167  Biso   1.000  C
  C520     1.0000 0.65202  0.12978  0.08200  Biso   1.000  C
  C521     1.0000 0.61105  0.11974  0.07388  Biso   1.000  C
  C522     1.0000 0.61021  0.09852  0.03711  Biso   1.000  C
  C523     1.0000 0.64951  0.08689  0.00917  Biso   1.000  C
  C524     1.0000 0.68978  0.09618  0.01718  Biso   1.000  C
  C525     1.0000 0.69125  0.11769  0.05393  Biso   1.000  C
  C526     1.0000 0.53051  0.09779  0.05607  Biso   1.000  C
  C527     1.0000 0.49404  0.07952  0.04043  Biso   1.000  C
  C528     1.0000 0.46832  0.10714  0.00898  Biso   1.000  C
  C529     1.0000 0.43106  0.09162  0.99774  Biso   1.000  C
  C530     1.0000 0.42107  0.04858  0.01582  Biso   1.000  C
  C531     1.0000 0.44971  0.01978  0.04313  Biso   1.000  C
  C532     1.0000 0.48578  0.03535  0.05572  Biso   1.000  C
  C533     1.0000 0.40406  0.12056  0.96376  Biso   1.000  C
  C534     1.0000 0.39696  0.11855  0.88638  Biso   1.000  C
  C535     1.0000 0.37496  0.16212  0.87939  Biso   1.000  C
  C536     1.0000 0.36214  0.17865  0.83740  Biso   1.000  C
  C537     1.0000 0.37042  0.15227  0.80357  Biso   1.000  C
  C538     1.0000 0.39032  0.10762  0.81212  Biso   1.000  C
  C539     1.0000 0.40347  0.09113  0.85281  Biso   1.000  C
  C540     1.0000 0.34084  0.22638  0.82804  Biso   1.000  C
  C541     1.0000 0.44288  0.97167  0.05763  Biso   1.000  C
  C542     1.0000 0.40955  0.92520  0.12207  Biso   1.000  C
  C543     1.0000 0.38479  0.92128  0.16554  Biso   1.000  C
  C544     1.0000 0.37716  0.87967  0.18814  Biso   1.000  C
  C545     1.0000 0.39426  0.84106  0.16906  Biso   1.000  C
  C546     1.0000 0.41860  0.84440  0.12620  Biso   1.000  C
  C547     1.0000 0.42601  0.88661  0.10241  Biso   1.000  C
  C548     1.0000 0.34949  0.87587  0.23461  Biso   1.000  C
  C549     1.0000 0.48061  0.15345  0.98767  Biso   1.000  C
  C550     1.0000 0.38021  0.03321  0.00491  Biso   1.000  C
  C551     1.0000 0.51667  0.00360  0.08514  Biso   1.000  C
  C552     1.0000 0.54569  0.24505  0.08683  Biso   1.000  C
  C553     1.0000 0.58273  0.23833  0.04823  Biso   1.000  C
  C554     1.0000 0.62579  0.24589  0.05059  Biso   1.000  C
  C555     1.0000 0.65951  0.24011  0.01581  Biso   1.000  C
  C556     1.0000 0.64986  0.22476  0.97706  Biso   1.000  C
  C557     1.0000 0.60784  0.21744  0.97504  Biso   1.000  C
  C558     1.0000 0.57260  0.22420  0.01030  Biso   1.000  C
  C559     1.0000 0.71422  0.26412  0.05112  Biso   1.000  C
  C560     1.0000 0.75900  0.28160  0.03740  Biso   1.000  C
  C561     1.0000 0.79852  0.25642  0.05012  Biso   1.000  C
  C562     1.0000 0.83788  0.27468  0.03798  Biso   1.000  C
  C563     1.0000 0.83841  0.31731  0.01111  Biso   1.000  C
  C564     1.0000 0.80011  0.34001  0.99521  Biso   1.000  C
  C565     1.0000 0.75941  0.32311  0.00961  Biso   1.000  C
  C566     1.0000 0.88354  0.24784  0.04964  Biso   1.000  C
  C567     1.0000 0.93525  0.25645  0.09855  Biso   1.000  C
  C568     1.0000 0.93967  0.27061  0.13925  Biso   1.000  C
  C569     1.0000 0.98166  0.27076  0.15036  Biso   1.000  C
  C570     1.0000 0.02067  0.25717  0.12137  Biso   1.000  C
  C571     1.0000 0.01570  0.24230  0.08190  Biso   1.000  C
  C572     1.0000 0.97427  0.24187  0.07027  Biso   1.000  C
  C573     1.0000 0.98505  0.28675  0.19395  Biso   1.000  C
  C574     1.0000 0.80204  0.38124  0.96024  Biso   1.000  C
  C575     1.0000 0.80234  0.46054  0.95534  Biso   1.000  C
  C576     1.0000 0.80756  0.46756  0.90926  Biso   1.000  C
  C577     1.0000 0.81670  0.50900  0.88460  Biso   1.000  C
  C578     1.0000 0.81798  0.54418  0.90838  Biso   1.000  C
  C579     1.0000 0.81136  0.53606  0.95546  Biso   1.000  C
  C580     1.0000 0.80372  0.49512  0.97842  Biso   1.000  C
  C581     1.0000 0.82095  0.51645  0.83525  Biso   1.000  C
  C582     1.0000 0.79810  0.21080  0.07840  Biso   1.000  C
  C583     1.0000 0.88171  0.33881  0.99941  Biso   1.000  C
  C584     1.0000 0.71649  0.35069  0.99489  Biso   1.000  C
  C585     1.0000 0.78091  0.09851  0.18691  Biso   1.000  C
  C586     1.0000 0.74504  0.07204  0.20464  Biso   1.000  C
  C587     1.0000 0.83702  0.03432  0.20612  Biso   1.000  C
  C588     1.0000 0.85898  0.10718  0.16548  Biso   1.000  C
  C589     1.0000 0.79036  0.19696  0.23726  Biso   1.000  C
  C590     1.0000 0.80613  0.23743  0.19833  Biso   1.000  C
  C591     1.0000 0.86474  0.19094  0.25194  Biso   1.000  C
  C592     1.0000 0.80492  0.13802  0.28992  Biso   1.000  C
  C593     1.0000 0.12167  0.65170  0.15319  Biso   1.000  C
  C594     1.0000 0.08200  0.65202  0.12978  Biso   1.000  C
  C595     1.0000 0.07388  0.61105  0.11974  Biso   1.000  C
  C596     1.0000 0.03711  0.61021  0.09852  Biso   1.000  C
  C597     1.0000 0.00917  0.64951  0.08689  Biso   1.000  C
  C598     1.0000 0.01718  0.68978  0.09618  Biso   1.000  C
  C599     1.0000 0.05393  0.69125  0.11769  Biso   1.000  C
  C600     1.0000 0.05607  0.53051  0.09779  Biso   1.000  C
  C601     1.0000 0.04043  0.49404  0.07952  Biso   1.000  C
  C602     1.0000 0.00898  0.46832  0.10714  Biso   1.000  C
  C603     1.0000 0.99774  0.43106  0.09162  Biso   1.000  C
  C604     1.0000 0.01582  0.42107  0.04858  Biso   1.000  C
  C605     1.0000 0.04313  0.44971  0.01978  Biso   1.000  C
  C606     1.0000 0.05572  0.48578  0.03535  Biso   1.000  C
  C607     1.0000 0.96376  0.40406  0.12056  Biso   1.000  C
  C608     1.0000 0.88638  0.39696  0.11855  Biso   1.000  C
  C609     1.0000 0.87939  0.37496  0.16212  Biso   1.000  C
  C610     1.0000 0.83740  0.36214  0.17865  Biso   1.000  C
  C611     1.0000 0.80357  0.37042  0.15227  Biso   1.000  C
  C612     1.0000 0.81212  0.39032  0.10762  Biso   1.000  C
  C613     1.0000 0.85281  0.40347  0.09113  Biso   1.000  C
  C614     1.0000 0.82804  0.34084  0.22638  Biso   1.000  C
  C615     1.0000 0.05763  0.44288  0.97167  Biso   1.000  C
  C616     1.0000 0.12207  0.40955  0.92520  Biso   1.000  C
  C617     1.0000 0.16554  0.38479  0.92128  Biso   1.000  C
  C618     1.0000 0.18814  0.37716  0.87967  Biso   1.000  C
  C619     1.0000 0.16906  0.39426  0.84106  Biso   1.000  C
  C620     1.0000 0.12620  0.41860  0.84440  Biso   1.000  C
  C621     1.0000 0.10241  0.42601  0.88661  Biso   1.000  C
  C622     1.0000 0.23461  0.34949  0.87587  Biso   1.000  C
  C623     1.0000 0.98767  0.48061  0.15345  Biso   1.000  C
  C624     1.0000 0.00491  0.38021  0.03321  Biso   1.000  C
  C625     1.0000 0.08514  0.51667  0.00360  Biso   1.000  C
  C626     1.0000 0.08683  0.54569  0.24505  Biso   1.000  C
  C627     1.0000 0.04823  0.58273  0.23833  Biso   1.000  C
  C628     1.0000 0.05059  0.62579  0.24589  Biso   1.000  C
  C629     1.0000 0.01581  0.65951  0.24011  Biso   1.000  C
  C630     1.0000 0.97706  0.64986  0.22476  Biso   1.000  C
  C631     1.0000 0.97504  0.60784  0.21744  Biso   1.000  C
  C632     1.0000 0.01030  0.57260  0.22420  Biso   1.000  C
  C633     1.0000 0.05112  0.71422  0.26412  Biso   1.000  C
  C634     1.0000 0.03740  0.75900  0.28160  Biso   1.000  C
  C635     1.0000 0.05012  0.79852  0.25642  Biso   1.000  C
  C636     1.0000 0.03798  0.83788  0.27468  Biso   1.000  C
  C637     1.0000 0.01111  0.83841  0.31731  Biso   1.000  C
  C638     1.0000 0.99521  0.80011  0.34001  Biso   1.000  C
  C639     1.0000 0.00961  0.75941  0.32311  Biso   1.000  C
  C640     1.0000 0.04964  0.88354  0.24784  Biso   1.000  C
  C641     1.0000 0.09855  0.93525  0.25645  Biso   1.000  C
  C642     1.0000 0.13925  0.93967  0.27061  Biso   1.000  C
  C643     1.0000 0.15036  0.98166  0.27076  Biso   1.000  C
  C644     1.0000 0.12137  0.02067  0.25717  Biso   1.000  C
  C645     1.0000 0.08190  0.01570  0.24230  Biso   1.000  C
  C646     1.0000 0.07027  0.97427  0.24187  Biso   1.000  C
  C647     1.0000 0.19395  0.98505  0.28675  Biso   1.000  C
  C648     1.0000 0.96024  0.80204  0.38124  Biso   1.000  C
  C649     1.0000 0.95534  0.80234  0.46054  Biso   1.000  C
  C650     1.0000 0.90926  0.80756  0.46756  Biso   1.000  C
  C651     1.0000 0.88460  0.81670  0.50900  Biso   1.000  C
  C652     1.0000 0.90838  0.81798  0.54418  Biso   1.000  C
  C653     1.0000 0.95546  0.81136  0.53606  Biso   1.000  C
  C654     1.0000 0.97842  0.80372  0.49512  Biso   1.000  C
  C655     1.0000 0.83525  0.82095  0.51645  Biso   1.000  C
  C656     1.0000 0.07840  0.79810  0.21080  Biso   1.000  C
  C657     1.0000 0.99941  0.88171  0.33881  Biso   1.000  C
  C658     1.0000 0.99489  0.71649  0.35069  Biso   1.000  C
  C659     1.0000 0.18691  0.78091  0.09851  Biso   1.000  C
  C660     1.0000 0.20464  0.74504  0.07204  Biso   1.000  C
  C661     1.0000 0.20612  0.83702  0.03432  Biso   1.000  C
  C662     1.0000 0.16548  0.85898  0.10718  Biso   1.000  C
  C663     1.0000 0.23726  0.79036  0.19696  Biso   1.000  C
  C664     1.0000 0.19833  0.80613  0.23743  Biso   1.000  C
  C665     1.0000 0.25194  0.86474  0.19094  Biso   1.000  C
  C666     1.0000 0.28992  0.80492  0.13802  Biso   1.000  C
  C667     1.0000 0.37833  0.34681  0.84830  Biso   1.000  C
  C668     1.0000 0.41800  0.37022  0.84798  Biso   1.000  C
  C669     1.0000 0.42612  0.38026  0.88895  Biso   1.000  C
  C670     1.0000 0.46289  0.40148  0.88979  Biso   1.000  C
  C671     1.0000 0.49083  0.41311  0.85049  Biso   1.000  C
  C672     1.0000 0.48282  0.40382  0.81022  Biso   1.000  C
  C673     1.0000 0.44607  0.38231  0.80875  Biso   1.000  C
  C674     1.0000 0.44393  0.40221  0.96949  Biso   1.000  C
  C675     1.0000 0.45957  0.42048  0.00596  Biso   1.000  C
  C676     1.0000 0.49102  0.39286  0.03168  Biso   1.000  C
  C677     1.0000 0.50226  0.40838  0.06894  Biso   1.000  C
  C678     1.0000 0.48418  0.45142  0.07893  Biso   1.000  C
  C679     1.0000 0.45687  0.48022  0.05029  Biso   1.000  C
  C680     1.0000 0.44428  0.46465  0.01422  Biso   1.000  C
  C681     1.0000 0.53624  0.37944  0.09594  Biso   1.000  C
  C682     1.0000 0.61362  0.38145  0.10304  Biso   1.000  C
  C683     1.0000 0.62061  0.33788  0.12504  Biso   1.000  C
  C684     1.0000 0.66260  0.32135  0.13786  Biso   1.000  C
  C685     1.0000 0.69643  0.34773  0.12958  Biso   1.000  C
  C686     1.0000 0.68788  0.39238  0.10968  Biso   1.000  C
  C687     1.0000 0.64719  0.40887  0.09653  Biso   1.000  C
  C688     1.0000 0.67196  0.27362  0.15916  Biso   1.000  C
  C689     1.0000 0.44237  0.52833  0.05712  Biso   1.000  C
  C690     1.0000 0.37793  0.57480  0.09045  Biso   1.000  C
  C691     1.0000 0.33446  0.57872  0.11521  Biso   1.000  C
  C692     1.0000 0.31186  0.62033  0.12284  Biso   1.000  C
  C693     1.0000 0.33094  0.65894  0.10574  Biso   1.000  C
  C694     1.0000 0.37380  0.65560  0.08140  Biso   1.000  C
  C695     1.0000 0.39759  0.61339  0.07399  Biso   1.000  C
  C696     1.0000 0.26539  0.62413  0.15051  Biso   1.000  C
  C697     1.0000 0.51233  0.34655  0.01939  Biso   1.000  C
  C698     1.0000 0.49509  0.46679  0.11979  Biso   1.000  C
  C699     1.0000 0.41486  0.49640  0.98333  Biso   1.000  C
  C700     1.0000 0.41317  0.25495  0.95431  Biso   1.000  C
  C701     1.0000 0.45177  0.26167  0.91727  Biso   1.000  C
  C702     1.0000 0.44941  0.25411  0.87421  Biso   1.000  C
  C703     1.0000 0.48419  0.25989  0.84049  Biso   1.000  C
  C704     1.0000 0.52294  0.27524  0.85014  Biso   1.000  C
  C705     1.0000 0.52496  0.28256  0.89216  Biso   1.000  C
  C706     1.0000 0.48970  0.27580  0.92740  Biso   1.000  C
  C707     1.0000 0.44888  0.23588  0.78578  Biso   1.000  C
  C708     1.0000 0.46260  0.21840  0.74100  Biso   1.000  C
  C709     1.0000 0.44988  0.24358  0.70148  Biso   1.000  C
  C710     1.0000 0.46202  0.22532  0.66212  Biso   1.000  C
  C711     1.0000 0.48889  0.18269  0.66159  Biso   1.000  C
  C712     1.0000 0.50479  0.15999  0.69989  Biso   1.000  C
  C713     1.0000 0.49039  0.17689  0.74059  Biso   1.000  C
  C714     1.0000 0.45036  0.25216  0.61646  Biso   1.000  C
  C715     1.0000 0.40145  0.24355  0.56475  Biso   1.000  C
  C716     1.0000 0.36075  0.22939  0.56033  Biso   1.000  C
  C717     1.0000 0.34964  0.22924  0.51834  Biso   1.000  C
  C718     1.0000 0.37863  0.24283  0.47933  Biso   1.000  C
  C719     1.0000 0.41810  0.25770  0.48430  Biso   1.000  C
  C720     1.0000 0.42973  0.25813  0.52573  Biso   1.000  C
  C721     1.0000 0.30605  0.21325  0.51495  Biso   1.000  C
  C722     1.0000 0.53976  0.11876  0.69796  Biso   1.000  C
  C723     1.0000 0.54466  0.03946  0.69766  Biso   1.000  C
  C724     1.0000 0.59074  0.03244  0.69244  Biso   1.000  C
  C725     1.0000 0.61540  0.99100  0.68330  Biso   1.000  C
  C726     1.0000 0.59162  0.95582  0.68202  Biso   1.000  C
  C727     1.0000 0.54454  0.96394  0.68864  Biso   1.000  C
  C728     1.0000 0.52158  0.00488  0.69628  Biso   1.000  C
  C729     1.0000 0.66475  0.98355  0.67905  Biso   1.000  C
  C730     1.0000 0.42160  0.28920  0.70190  Biso   1.000  C
  C731     1.0000 0.50059  0.16119  0.61829  Biso   1.000  C
  C732     1.0000 0.50511  0.14931  0.78351  Biso   1.000  C
  C733     1.0000 0.31309  0.40149  0.71909  Biso   1.000  C
  C734     1.0000 0.29536  0.42796  0.75496  Biso   1.000  C
  C735     1.0000 0.29388  0.46568  0.66298  Biso   1.000  C
  C736     1.0000 0.33452  0.39282  0.64102  Biso   1.000  C
  C737     1.0000 0.26274  0.30304  0.70964  Biso   1.000  C
  C738     1.0000 0.30167  0.26257  0.69387  Biso   1.000  C
  C739     1.0000 0.24806  0.30906  0.63526  Biso   1.000  C
  C740     1.0000 0.21008  0.36198  0.69508  Biso   1.000  C
  C741     1.0000 0.34681  0.84830  0.37833  Biso   1.000  C
  C742     1.0000 0.37022  0.84798  0.41800  Biso   1.000  C
  C743     1.0000 0.38026  0.88895  0.42612  Biso   1.000  C
  C744     1.0000 0.40148  0.88979  0.46289  Biso   1.000  C
  C745     1.0000 0.41311  0.85049  0.49083  Biso   1.000  C
  C746     1.0000 0.40382  0.81022  0.48282  Biso   1.000  C
  C747     1.0000 0.38231  0.80875  0.44607  Biso   1.000  C
  C748     1.0000 0.40221  0.96949  0.44393  Biso   1.000  C
  C749     1.0000 0.42048  0.00596  0.45957  Biso   1.000  C
  C750     1.0000 0.39286  0.03168  0.49102  Biso   1.000  C
  C751     1.0000 0.40838  0.06894  0.50226  Biso   1.000  C
  C752     1.0000 0.45142  0.07893  0.48418  Biso   1.000  C
  C753     1.0000 0.48022  0.05029  0.45687  Biso   1.000  C
  C754     1.0000 0.46465  0.01422  0.44428  Biso   1.000  C
  C755     1.0000 0.37944  0.09594  0.53624  Biso   1.000  C
  C756     1.0000 0.38145  0.10304  0.61362  Biso   1.000  C
  C757     1.0000 0.33788  0.12504  0.62061  Biso   1.000  C
  C758     1.0000 0.32135  0.13786  0.66260  Biso   1.000  C
  C759     1.0000 0.34773  0.12958  0.69643  Biso   1.000  C
  C760     1.0000 0.39238  0.10968  0.68788  Biso   1.000  C
  C761     1.0000 0.40887  0.09653  0.64719  Biso   1.000  C
  C762     1.0000 0.27362  0.15916  0.67196  Biso   1.000  C
  C763     1.0000 0.52833  0.05712  0.44237  Biso   1.000  C
  C764     1.0000 0.57480  0.09045  0.37793  Biso   1.000  C
  C765     1.0000 0.57872  0.11521  0.33446  Biso   1.000  C
  C766     1.0000 0.62033  0.12284  0.31186  Biso   1.000  C
  C767     1.0000 0.65894  0.10574  0.33094  Biso   1.000  C
  C768     1.0000 0.65560  0.08140  0.37380  Biso   1.000  C
  C769     1.0000 0.61339  0.07399  0.39759  Biso   1.000  C
  C770     1.0000 0.62413  0.15051  0.26539  Biso   1.000  C
  C771     1.0000 0.34655  0.01939  0.51233  Biso   1.000  C
  C772     1.0000 0.46679  0.11979  0.49509  Biso   1.000  C
  C773     1.0000 0.49640  0.98333  0.41486  Biso   1.000  C
  C774     1.0000 0.25495  0.95431  0.41317  Biso   1.000  C
  C775     1.0000 0.26167  0.91727  0.45177  Biso   1.000  C
  C776     1.0000 0.25411  0.87421  0.44941  Biso   1.000  C
  C777     1.0000 0.25989  0.84049  0.48419  Biso   1.000  C
  C778     1.0000 0.27524  0.85014  0.52294  Biso   1.000  C
  C779     1.0000 0.28256  0.89216  0.52496  Biso   1.000  C
  C780     1.0000 0.27580  0.92740  0.48970  Biso   1.000  C
  C781     1.0000 0.23588  0.78578  0.44888  Biso   1.000  C
  C782     1.0000 0.21840  0.74100  0.46260  Biso   1.000  C
  C783     1.0000 0.24358  0.70148  0.44988  Biso   1.000  C
  C784     1.0000 0.22532  0.66212  0.46202  Biso   1.000  C
  C785     1.0000 0.18269  0.66159  0.48889  Biso   1.000  C
  C786     1.0000 0.15999  0.69989  0.50479  Biso   1.000  C
  C787     1.0000 0.17689  0.74059  0.49039  Biso   1.000  C
  C788     1.0000 0.25216  0.61646  0.45036  Biso   1.000  C
  C789     1.0000 0.24355  0.56475  0.40145  Biso   1.000  C
  C790     1.0000 0.22939  0.56033  0.36075  Biso   1.000  C
  C791     1.0000 0.22924  0.51834  0.34964  Biso   1.000  C
  C792     1.0000 0.24283  0.47933  0.37863  Biso   1.000  C
  C793     1.0000 0.25770  0.48430  0.41810  Biso   1.000  C
  C794     1.0000 0.25813  0.52573  0.42973  Biso   1.000  C
  C795     1.0000 0.21325  0.51495  0.30605  Biso   1.000  C
  C796     1.0000 0.11876  0.69796  0.53976  Biso   1.000  C
  C797     1.0000 0.03946  0.69766  0.54466  Biso   1.000  C
  C798     1.0000 0.03244  0.69244  0.59074  Biso   1.000  C
  C799     1.0000 0.99100  0.68330  0.61540  Biso   1.000  C
  C800     1.0000 0.95582  0.68202  0.59162  Biso   1.000  C
  C801     1.0000 0.96394  0.68864  0.54454  Biso   1.000  C
  C802     1.0000 0.00488  0.69628  0.52158  Biso   1.000  C
  C803     1.0000 0.98355  0.67905  0.66475  Biso   1.000  C
  C804     1.0000 0.28920  0.70190  0.42160  Biso   1.000  C
  C805     1.0000 0.16119  0.61829  0.50059  Biso   1.000  C
  C806     1.0000 0.14931  0.78351  0.50511  Biso   1.000  C
  C807     1.0000 0.40149  0.71909  0.31309  Biso   1.000  C
  C808     1.0000 0.42796  0.75496  0.29536  Biso   1.000  C
  C809     1.0000 0.46568  0.66298  0.29388  Biso   1.000  C
  C810     1.0000 0.39282  0.64102  0.33452  Biso   1.000  C
  C811     1.0000 0.30304  0.70964  0.26274  Biso   1.000  C
  C812     1.0000 0.26257  0.69387  0.30167  Biso   1.000  C
  C813     1.0000 0.30906  0.63526  0.24806  Biso   1.000  C
  C814     1.0000 0.36198  0.69508  0.21008  Biso   1.000  C
  C815     1.0000 0.84830  0.37833  0.34681  Biso   1.000  C
  C816     1.0000 0.84798  0.41800  0.37022  Biso   1.000  C
  C817     1.0000 0.88895  0.42612  0.38026  Biso   1.000  C
  C818     1.0000 0.88979  0.46289  0.40148  Biso   1.000  C
  C819     1.0000 0.85049  0.49083  0.41311  Biso   1.000  C
  C820     1.0000 0.81022  0.48282  0.40382  Biso   1.000  C
  C821     1.0000 0.80875  0.44607  0.38231  Biso   1.000  C
  C822     1.0000 0.96949  0.44393  0.40221  Biso   1.000  C
  C823     1.0000 0.00596  0.45957  0.42048  Biso   1.000  C
  C824     1.0000 0.03168  0.49102  0.39286  Biso   1.000  C
  C825     1.0000 0.06894  0.50226  0.40838  Biso   1.000  C
  C826     1.0000 0.07893  0.48418  0.45142  Biso   1.000  C
  C827     1.0000 0.05029  0.45687  0.48022  Biso   1.000  C
  C828     1.0000 0.01422  0.44428  0.46465  Biso   1.000  C
  C829     1.0000 0.09594  0.53624  0.37944  Biso   1.000  C
  C830     1.0000 0.10304  0.61362  0.38145  Biso   1.000  C
  C831     1.0000 0.12504  0.62061  0.33788  Biso   1.000  C
  C832     1.0000 0.13786  0.66260  0.32135  Biso   1.000  C
  C833     1.0000 0.12958  0.69643  0.34773  Biso   1.000  C
  C834     1.0000 0.10968  0.68788  0.39238  Biso   1.000  C
  C835     1.0000 0.09653  0.64719  0.40887  Biso   1.000  C
  C836     1.0000 0.15916  0.67196  0.27362  Biso   1.000  C
  C837     1.0000 0.05712  0.44237  0.52833  Biso   1.000  C
  C838     1.0000 0.09045  0.37793  0.57480  Biso   1.000  C
  C839     1.0000 0.11521  0.33446  0.57872  Biso   1.000  C
  C840     1.0000 0.12284  0.31186  0.62033  Biso   1.000  C
  C841     1.0000 0.10574  0.33094  0.65894  Biso   1.000  C
  C842     1.0000 0.08140  0.37380  0.65560  Biso   1.000  C
  C843     1.0000 0.07399  0.39759  0.61339  Biso   1.000  C
  C844     1.0000 0.15051  0.26539  0.62413  Biso   1.000  C
  C845     1.0000 0.01939  0.51233  0.34655  Biso   1.000  C
  C846     1.0000 0.11979  0.49509  0.46679  Biso   1.000  C
  C847     1.0000 0.98333  0.41486  0.49640  Biso   1.000  C
  C848     1.0000 0.95431  0.41317  0.25495  Biso   1.000  C
  C849     1.0000 0.91727  0.45177  0.26167  Biso   1.000  C
  C850     1.0000 0.87421  0.44941  0.25411  Biso   1.000  C
  C851     1.0000 0.84049  0.48419  0.25989  Biso   1.000  C
  C852     1.0000 0.85014  0.52294  0.27524  Biso   1.000  C
  C853     1.0000 0.89216  0.52496  0.28256  Biso   1.000  C
  C854     1.0000 0.92740  0.48970  0.27580  Biso   1.000  C
  C855     1.0000 0.78578  0.44888  0.23588  Biso   1.000  C
  C856     1.0000 0.74100  0.46260  0.21840  Biso   1.000  C
  C857     1.0000 0.70148  0.44988  0.24358  Biso   1.000  C
  C858     1.0000 0.66212  0.46202  0.22532  Biso   1.000  C
  C859     1.0000 0.66159  0.48889  0.18269  Biso   1.000  C
  C860     1.0000 0.69989  0.50479  0.15999  Biso   1.000  C
  C861     1.0000 0.74059  0.49039  0.17689  Biso   1.000  C
  C862     1.0000 0.61646  0.45036  0.25216  Biso   1.000  C
  C863     1.0000 0.56475  0.40145  0.24355  Biso   1.000  C
  C864     1.0000 0.56033  0.36075  0.22939  Biso   1.000  C
  C865     1.0000 0.51834  0.34964  0.22924  Biso   1.000  C
  C866     1.0000 0.47933  0.37863  0.24283  Biso   1.000  C
  C867     1.0000 0.48430  0.41810  0.25770  Biso   1.000  C
  C868     1.0000 0.52573  0.42973  0.25813  Biso   1.000  C
  C869     1.0000 0.51495  0.30605  0.21325  Biso   1.000  C
  C870     1.0000 0.69796  0.53976  0.11876  Biso   1.000  C
  C871     1.0000 0.69766  0.54466  0.03946  Biso   1.000  C
  C872     1.0000 0.69244  0.59074  0.03244  Biso   1.000  C
  C873     1.0000 0.68330  0.61540  0.99100  Biso   1.000  C
  C874     1.0000 0.68202  0.59162  0.95582  Biso   1.000  C
  C875     1.0000 0.68864  0.54454  0.96394  Biso   1.000  C
  C876     1.0000 0.69628  0.52158  0.00488  Biso   1.000  C
  C877     1.0000 0.67905  0.66475  0.98355  Biso   1.000  C
  C878     1.0000 0.70190  0.42160  0.28920  Biso   1.000  C
  C879     1.0000 0.61829  0.50059  0.16119  Biso   1.000  C
  C880     1.0000 0.78351  0.50511  0.14931  Biso   1.000  C
  C881     1.0000 0.71909  0.31309  0.40149  Biso   1.000  C
  C882     1.0000 0.75496  0.29536  0.42796  Biso   1.000  C
  C883     1.0000 0.66298  0.29388  0.46568  Biso   1.000  C
  C884     1.0000 0.64102  0.33452  0.39282  Biso   1.000  C
  C885     1.0000 0.70964  0.26274  0.30304  Biso   1.000  C
  C886     1.0000 0.69387  0.30167  0.26257  Biso   1.000  C
  C887     1.0000 0.63526  0.24806  0.30906  Biso   1.000  C
  C888     1.0000 0.69508  0.21008  0.36198  Biso   1.000  C
  N1       1.0000 0.91924  0.81314  0.17654  Biso   1.000  N
  N2       1.0000 0.82365  0.74285  0.17985  Biso   1.000  N
  N3       1.0000 0.17654  0.91924  0.81314  Biso   1.000  N
  N4       1.0000 0.17985  0.82365  0.74285  Biso   1.000  N
  N5       1.0000 0.81314  0.17654  0.91924  Biso   1.000  N
  N6       1.0000 0.74285  0.17985  0.82365  Biso   1.000  N
  N7       1.0000 0.68686  0.58076  0.32346  Biso   1.000  N
  N8       1.0000 0.75715  0.67635  0.32015  Biso   1.000  N
  N9       1.0000 0.58076  0.32346  0.68686  Biso   1.000  N
  N10      1.0000 0.67635  0.32015  0.75715  Biso   1.000  N
  N11      1.0000 0.32346  0.68686  0.58076  Biso   1.000  N
  N12      1.0000 0.32015  0.75715  0.67635  Biso   1.000  N
  N13      1.0000 0.08076  0.18686  0.82346  Biso   1.000  N
  N14      1.0000 0.17635  0.25715  0.82015  Biso   1.000  N
  N15      1.0000 0.82346  0.08076  0.18686  Biso   1.000  N
  N16      1.0000 0.82015  0.17635  0.25715  Biso   1.000  N
  N17      1.0000 0.18686  0.82346  0.08076  Biso   1.000  N
  N18      1.0000 0.25715  0.82015  0.17635  Biso   1.000  N
  N19      1.0000 0.31314  0.41924  0.67654  Biso   1.000  N
  N20      1.0000 0.24285  0.32365  0.67985  Biso   1.000  N
  N21      1.0000 0.41924  0.67654  0.31314  Biso   1.000  N
  N22      1.0000 0.32365  0.67985  0.24285  Biso   1.000  N
  N23      1.0000 0.67654  0.31314  0.41924  Biso   1.000  N
  N24      1.0000 0.67985  0.24285  0.32365  Biso   1.000  N
  O1       1.0000 0.83804  0.87248  0.31075  Biso   1.000  O
  O2       1.0000 0.83815  0.85423  0.38526  Biso   1.000  O
  O3       1.0000 0.91230  0.97331  0.42837  Biso   1.000  O
  O4       1.0000 0.90157  0.07531  0.58547  Biso   1.000  O
  O5       1.0000 0.75118  0.14160  0.67587  Biso   1.000  O
  O6       1.0000 0.75597  0.21282  0.65830  Biso   1.000  O
  O7       1.0000 0.03203  0.89790  0.58418  Biso   1.000  O
  O8       1.0000 0.08878  0.75239  0.67228  Biso   1.000  O
  O9       1.0000 0.16343  0.74403  0.64985  Biso   1.000  O
  O10      1.0000 0.76099  0.91667  0.49298  Biso   1.000  O
  O11      1.0000 0.74267  0.87884  0.44491  Biso   1.000  O
  O12      1.0000 0.75325  0.98625  0.29734  Biso   1.000  O
  O13      1.0000 0.73919  0.90936  0.11022  Biso   1.000  O
  O14      1.0000 0.69318  0.80638  0.98078  Biso   1.000  O
  O15      1.0000 0.71911  0.77404  0.04551  Biso   1.000  O
  O16      1.0000 0.57949  0.01779  0.20499  Biso   1.000  O
  O17      1.0000 0.44821  0.18561  0.16281  Biso   1.000  O
  O18      1.0000 0.51213  0.18629  0.18740  Biso   1.000  O
  O19      1.0000 0.86053  0.82984  0.22797  Biso   1.000  O
  O20      1.0000 0.80897  0.75927  0.25077  Biso   1.000  O
  O21      1.0000 0.72290  0.81830  0.59920  Biso   1.000  O
  O22      1.0000 0.69900  0.89980  0.57760  Biso   1.000  O
  O23      1.0000 0.31075  0.83804  0.87248  Biso   1.000  O
  O24      1.0000 0.38526  0.83815  0.85423  Biso   1.000  O
  O25      1.0000 0.42837  0.91230  0.97331  Biso   1.000  O
  O26      1.0000 0.58547  0.90157  0.07531  Biso   1.000  O
  O27      1.0000 0.67587  0.75118  0.14160  Biso   1.000  O
  O28      1.0000 0.65830  0.75597  0.21282  Biso   1.000  O
  O29      1.0000 0.58418  0.03203  0.89790  Biso   1.000  O
  O30      1.0000 0.67228  0.08878  0.75239  Biso   1.000  O
  O31      1.0000 0.64985  0.16343  0.74403  Biso   1.000  O
  O32      1.0000 0.49298  0.76099  0.91667  Biso   1.000  O
  O33      1.0000 0.44491  0.74267  0.87884  Biso   1.000  O
  O34      1.0000 0.29734  0.75325  0.98625  Biso   1.000  O
  O35      1.0000 0.11022  0.73919  0.90936  Biso   1.000  O
  O36      1.0000 0.98078  0.69318  0.80638  Biso   1.000  O
  O37      1.0000 0.04551  0.71911  0.77404  Biso   1.000  O
  O38      1.0000 0.20499  0.57949  0.01779  Biso   1.000  O
  O39      1.0000 0.16281  0.44821  0.18561  Biso   1.000  O
  O40      1.0000 0.18740  0.51213  0.18629  Biso   1.000  O
  O41      1.0000 0.22797  0.86053  0.82984  Biso   1.000  O
  O42      1.0000 0.25077  0.80897  0.75927  Biso   1.000  O
  O43      1.0000 0.59920  0.72290  0.81830  Biso   1.000  O
  O44      1.0000 0.57760  0.69900  0.89980  Biso   1.000  O
  O45      1.0000 0.87248  0.31075  0.83804  Biso   1.000  O
  O46      1.0000 0.85423  0.38526  0.83815  Biso   1.000  O
  O47      1.0000 0.97331  0.42837  0.91230  Biso   1.000  O
  O48      1.0000 0.07531  0.58547  0.90157  Biso   1.000  O
  O49      1.0000 0.14160  0.67587  0.75118  Biso   1.000  O
  O50      1.0000 0.21282  0.65830  0.75597  Biso   1.000  O
  O51      1.0000 0.89790  0.58418  0.03203  Biso   1.000  O
  O52      1.0000 0.75239  0.67228  0.08878  Biso   1.000  O
  O53      1.0000 0.74403  0.64985  0.16343  Biso   1.000  O
  O54      1.0000 0.91667  0.49298  0.76099  Biso   1.000  O
  O55      1.0000 0.87884  0.44491  0.74267  Biso   1.000  O
  O56      1.0000 0.98625  0.29734  0.75325  Biso   1.000  O
  O57      1.0000 0.90936  0.11022  0.73919  Biso   1.000  O
  O58      1.0000 0.80638  0.98078  0.69318  Biso   1.000  O
  O59      1.0000 0.77404  0.04551  0.71911  Biso   1.000  O
  O60      1.0000 0.01779  0.20499  0.57949  Biso   1.000  O
  O61      1.0000 0.18561  0.16281  0.44821  Biso   1.000  O
  O62      1.0000 0.18629  0.18740  0.51213  Biso   1.000  O
  O63      1.0000 0.82984  0.22797  0.86053  Biso   1.000  O
  O64      1.0000 0.75927  0.25077  0.80897  Biso   1.000  O
  O65      1.0000 0.81830  0.59920  0.72290  Biso   1.000  O
  O66      1.0000 0.89980  0.57760  0.69900  Biso   1.000  O
  O67      1.0000 0.62752  0.66196  0.18925  Biso   1.000  O
  O68      1.0000 0.64577  0.66185  0.11474  Biso   1.000  O
  O69      1.0000 0.52669  0.58770  0.07163  Biso   1.000  O
  O70      1.0000 0.42469  0.59843  0.91453  Biso   1.000  O
  O71      1.0000 0.35840  0.74882  0.82413  Biso   1.000  O
  O72      1.0000 0.28718  0.74403  0.84170  Biso   1.000  O
  O73      1.0000 0.60210  0.46797  0.91582  Biso   1.000  O
  O74      1.0000 0.74761  0.41122  0.82772  Biso   1.000  O
  O75      1.0000 0.75597  0.33657  0.85015  Biso   1.000  O
  O76      1.0000 0.58333  0.73901  0.00702  Biso   1.000  O
  O77      1.0000 0.62116  0.75733  0.05509  Biso   1.000  O
  O78      1.0000 0.51375  0.74675  0.20266  Biso   1.000  O
  O79      1.0000 0.59064  0.76081  0.38978  Biso   1.000  O
  O80      1.0000 0.69362  0.80682  0.51922  Biso   1.000  O
  O81      1.0000 0.72596  0.78089  0.45449  Biso   1.000  O
  O82      1.0000 0.48221  0.92051  0.29501  Biso   1.000  O
  O83      1.0000 0.31439  0.05179  0.33719  Biso   1.000  O
  O84      1.0000 0.31371  0.98787  0.31260  Biso   1.000  O
  O85      1.0000 0.67016  0.63947  0.27203  Biso   1.000  O
  O86      1.0000 0.74073  0.69103  0.24923  Biso   1.000  O
  O87      1.0000 0.68170  0.77710  0.90080  Biso   1.000  O
  O88      1.0000 0.60020  0.80100  0.92240  Biso   1.000  O
  O89      1.0000 0.66196  0.18925  0.62752  Biso   1.000  O
  O90      1.0000 0.66185  0.11474  0.64577  Biso   1.000  O
  O91      1.0000 0.58770  0.07163  0.52669  Biso   1.000  O
  O92      1.0000 0.59843  0.91453  0.42469  Biso   1.000  O
  O93      1.0000 0.74882  0.82413  0.35840  Biso   1.000  O
  O94      1.0000 0.74403  0.84170  0.28718  Biso   1.000  O
  O95      1.0000 0.46797  0.91582  0.60210  Biso   1.000  O
  O96      1.0000 0.41122  0.82772  0.74761  Biso   1.000  O
  O97      1.0000 0.33657  0.85015  0.75597  Biso   1.000  O
  O98      1.0000 0.73901  0.00702  0.58333  Biso   1.000  O
  O99      1.0000 0.75733  0.05509  0.62116  Biso   1.000  O
  O100     1.0000 0.74675  0.20266  0.51375  Biso   1.000  O
  O101     1.0000 0.76081  0.38978  0.59064  Biso   1.000  O
  O102     1.0000 0.80682  0.51922  0.69362  Biso   1.000  O
  O103     1.0000 0.78089  0.45449  0.72596  Biso   1.000  O
  O104     1.0000 0.92051  0.29501  0.48221  Biso   1.000  O
  O105     1.0000 0.05179  0.33719  0.31439  Biso   1.000  O
  O106     1.0000 0.98787  0.31260  0.31371  Biso   1.000  O
  O107     1.0000 0.63947  0.27203  0.67016  Biso   1.000  O
  O108     1.0000 0.69103  0.24923  0.74073  Biso   1.000  O
  O109     1.0000 0.77710  0.90080  0.68170  Biso   1.000  O
  O110     1.0000 0.80100  0.92240  0.60020  Biso   1.000  O
  O111     1.0000 0.18925  0.62752  0.66196  Biso   1.000  O
  O112     1.0000 0.11474  0.64577  0.66185  Biso   1.000  O
  O113     1.0000 0.07163  0.52669  0.58770  Biso   1.000  O
  O114     1.0000 0.91453  0.42469  0.59843  Biso   1.000  O
  O115     1.0000 0.82413  0.35840  0.74882  Biso   1.000  O
  O116     1.0000 0.84170  0.28718  0.74403  Biso   1.000  O
  O117     1.0000 0.91582  0.60210  0.46797  Biso   1.000  O
  O118     1.0000 0.82772  0.74761  0.41122  Biso   1.000  O
  O119     1.0000 0.85015  0.75597  0.33657  Biso   1.000  O
  O120     1.0000 0.00702  0.58333  0.73901  Biso   1.000  O
  O121     1.0000 0.05509  0.62116  0.75733  Biso   1.000  O
  O122     1.0000 0.20266  0.51375  0.74675  Biso   1.000  O
  O123     1.0000 0.38978  0.59064  0.76081  Biso   1.000  O
  O124     1.0000 0.51922  0.69362  0.80682  Biso   1.000  O
  O125     1.0000 0.45449  0.72596  0.78089  Biso   1.000  O
  O126     1.0000 0.29501  0.48221  0.92051  Biso   1.000  O
  O127     1.0000 0.33719  0.31439  0.05179  Biso   1.000  O
  O128     1.0000 0.31260  0.31371  0.98787  Biso   1.000  O
  O129     1.0000 0.27203  0.67016  0.63947  Biso   1.000  O
  O130     1.0000 0.24923  0.74073  0.69103  Biso   1.000  O
  O131     1.0000 0.90080  0.68170  0.77710  Biso   1.000  O
  O132     1.0000 0.92240  0.60020  0.80100  Biso   1.000  O
  O133     1.0000 0.16196  0.12752  0.68925  Biso   1.000  O
  O134     1.0000 0.16185  0.14577  0.61474  Biso   1.000  O
  O135     1.0000 0.08770  0.02669  0.57163  Biso   1.000  O
  O136     1.0000 0.09843  0.92469  0.41453  Biso   1.000  O
  O137     1.0000 0.24882  0.85840  0.32413  Biso   1.000  O
  O138     1.0000 0.24403  0.78718  0.34170  Biso   1.000  O
  O139     1.0000 0.96797  0.10210  0.41582  Biso   1.000  O
  O140     1.0000 0.91122  0.24761  0.32772  Biso   1.000  O
  O141     1.0000 0.83657  0.25597  0.35015  Biso   1.000  O
  O142     1.0000 0.23901  0.08333  0.50702  Biso   1.000  O
  O143     1.0000 0.25733  0.12116  0.55509  Biso   1.000  O
  O144     1.0000 0.24675  0.01375  0.70266  Biso   1.000  O
  O145     1.0000 0.26081  0.09064  0.88978  Biso   1.000  O
  O146     1.0000 0.30682  0.19362  0.01922  Biso   1.000  O
  O147     1.0000 0.28089  0.22596  0.95449  Biso   1.000  O
  O148     1.0000 0.42051  0.98221  0.79501  Biso   1.000  O
  O149     1.0000 0.55179  0.81439  0.83719  Biso   1.000  O
  O150     1.0000 0.48787  0.81371  0.81260  Biso   1.000  O
  O151     1.0000 0.13947  0.17016  0.77203  Biso   1.000  O
  O152     1.0000 0.19103  0.24073  0.74923  Biso   1.000  O
  O153     1.0000 0.27710  0.18170  0.40080  Biso   1.000  O
  O154     1.0000 0.30100  0.10020  0.42240  Biso   1.000  O
  O155     1.0000 0.68925  0.16196  0.12752  Biso   1.000  O
  O156     1.0000 0.61474  0.16185  0.14577  Biso   1.000  O
  O157     1.0000 0.57163  0.08770  0.02669  Biso   1.000  O
  O158     1.0000 0.41453  0.09843  0.92469  Biso   1.000  O
  O159     1.0000 0.32413  0.24882  0.85840  Biso   1.000  O
  O160     1.0000 0.34170  0.24403  0.78718  Biso   1.000  O
  O161     1.0000 0.41582  0.96797  0.10210  Biso   1.000  O
  O162     1.0000 0.32772  0.91122  0.24761  Biso   1.000  O
  O163     1.0000 0.35015  0.83657  0.25597  Biso   1.000  O
  O164     1.0000 0.50702  0.23901  0.08333  Biso   1.000  O
  O165     1.0000 0.55509  0.25733  0.12116  Biso   1.000  O
  O166     1.0000 0.70266  0.24675  0.01375  Biso   1.000  O
  O167     1.0000 0.88978  0.26081  0.09064  Biso   1.000  O
  O168     1.0000 0.01922  0.30682  0.19362  Biso   1.000  O
  O169     1.0000 0.95449  0.28089  0.22596  Biso   1.000  O
  O170     1.0000 0.79501  0.42051  0.98221  Biso   1.000  O
  O171     1.0000 0.83719  0.55179  0.81439  Biso   1.000  O
  O172     1.0000 0.81260  0.48787  0.81371  Biso   1.000  O
  O173     1.0000 0.77203  0.13947  0.17016  Biso   1.000  O
  O174     1.0000 0.74923  0.19103  0.24073  Biso   1.000  O
  O175     1.0000 0.40080  0.27710  0.18170  Biso   1.000  O
  O176     1.0000 0.42240  0.30100  0.10020  Biso   1.000  O
  O177     1.0000 0.12752  0.68925  0.16196  Biso   1.000  O
  O178     1.0000 0.14577  0.61474  0.16185  Biso   1.000  O
  O179     1.0000 0.02669  0.57163  0.08770  Biso   1.000  O
  O180     1.0000 0.92469  0.41453  0.09843  Biso   1.000  O
  O181     1.0000 0.85840  0.32413  0.24882  Biso   1.000  O
  O182     1.0000 0.78718  0.34170  0.24403  Biso   1.000  O
  O183     1.0000 0.10210  0.41582  0.96797  Biso   1.000  O
  O184     1.0000 0.24761  0.32772  0.91122  Biso   1.000  O
  O185     1.0000 0.25597  0.35015  0.83657  Biso   1.000  O
  O186     1.0000 0.08333  0.50702  0.23901  Biso   1.000  O
  O187     1.0000 0.12116  0.55509  0.25733  Biso   1.000  O
  O188     1.0000 0.01375  0.70266  0.24675  Biso   1.000  O
  O189     1.0000 0.09064  0.88978  0.26081  Biso   1.000  O
  O190     1.0000 0.19362  0.01922  0.30682  Biso   1.000  O
  O191     1.0000 0.22596  0.95449  0.28089  Biso   1.000  O
  O192     1.0000 0.98221  0.79501  0.42051  Biso   1.000  O
  O193     1.0000 0.81439  0.83719  0.55179  Biso   1.000  O
  O194     1.0000 0.81371  0.81260  0.48787  Biso   1.000  O
  O195     1.0000 0.17016  0.77203  0.13947  Biso   1.000  O
  O196     1.0000 0.24073  0.74923  0.19103  Biso   1.000  O
  O197     1.0000 0.18170  0.40080  0.27710  Biso   1.000  O
  O198     1.0000 0.10020  0.42240  0.30100  Biso   1.000  O
  O199     1.0000 0.37248  0.33804  0.81075  Biso   1.000  O
  O200     1.0000 0.35423  0.33815  0.88526  Biso   1.000  O
  O201     1.0000 0.47331  0.41230  0.92837  Biso   1.000  O
  O202     1.0000 0.57531  0.40157  0.08547  Biso   1.000  O
  O203     1.0000 0.64160  0.25118  0.17587  Biso   1.000  O
  O204     1.0000 0.71282  0.25597  0.15830  Biso   1.000  O
  O205     1.0000 0.39790  0.53203  0.08418  Biso   1.000  O
  O206     1.0000 0.25239  0.58878  0.17228  Biso   1.000  O
  O207     1.0000 0.24403  0.66343  0.14985  Biso   1.000  O
  O208     1.0000 0.41667  0.26099  0.99298  Biso   1.000  O
  O209     1.0000 0.37884  0.24267  0.94491  Biso   1.000  O
  O210     1.0000 0.48625  0.25325  0.79734  Biso   1.000  O
  O211     1.0000 0.40936  0.23919  0.61022  Biso   1.000  O
  O212     1.0000 0.30638  0.19318  0.48078  Biso   1.000  O
  O213     1.0000 0.27404  0.21911  0.54551  Biso   1.000  O
  O214     1.0000 0.51779  0.07949  0.70499  Biso   1.000  O
  O215     1.0000 0.68561  0.94821  0.66281  Biso   1.000  O
  O216     1.0000 0.68629  0.01213  0.68740  Biso   1.000  O
  O217     1.0000 0.32984  0.36053  0.72797  Biso   1.000  O
  O218     1.0000 0.25927  0.30897  0.75077  Biso   1.000  O
  O219     1.0000 0.31830  0.22290  0.09920  Biso   1.000  O
  O220     1.0000 0.39980  0.19900  0.07760  Biso   1.000  O
  O221     1.0000 0.33804  0.81075  0.37248  Biso   1.000  O
  O222     1.0000 0.33815  0.88526  0.35423  Biso   1.000  O
  O223     1.0000 0.41230  0.92837  0.47331  Biso   1.000  O
  O224     1.0000 0.40157  0.08547  0.57531  Biso   1.000  O
  O225     1.0000 0.25118  0.17587  0.64160  Biso   1.000  O
  O226     1.0000 0.25597  0.15830  0.71282  Biso   1.000  O
  O227     1.0000 0.53203  0.08418  0.39790  Biso   1.000  O
  O228     1.0000 0.58878  0.17228  0.25239  Biso   1.000  O
  O229     1.0000 0.66343  0.14985  0.24403  Biso   1.000  O
  O230     1.0000 0.26099  0.99298  0.41667  Biso   1.000  O
  O231     1.0000 0.24267  0.94491  0.37884  Biso   1.000  O
  O232     1.0000 0.25325  0.79734  0.48625  Biso   1.000  O
  O233     1.0000 0.23919  0.61022  0.40936  Biso   1.000  O
  O234     1.0000 0.19318  0.48078  0.30638  Biso   1.000  O
  O235     1.0000 0.21911  0.54551  0.27404  Biso   1.000  O
  O236     1.0000 0.07949  0.70499  0.51779  Biso   1.000  O
  O237     1.0000 0.94821  0.66281  0.68561  Biso   1.000  O
  O238     1.0000 0.01213  0.68740  0.68629  Biso   1.000  O
  O239     1.0000 0.36053  0.72797  0.32984  Biso   1.000  O
  O240     1.0000 0.30897  0.75077  0.25927  Biso   1.000  O
  O241     1.0000 0.22290  0.09920  0.31830  Biso   1.000  O
  O242     1.0000 0.19900  0.07760  0.39980  Biso   1.000  O
  O243     1.0000 0.81075  0.37248  0.33804  Biso   1.000  O
  O244     1.0000 0.88526  0.35423  0.33815  Biso   1.000  O
  O245     1.0000 0.92837  0.47331  0.41230  Biso   1.000  O
  O246     1.0000 0.08547  0.57531  0.40157  Biso   1.000  O
  O247     1.0000 0.17587  0.64160  0.25118  Biso   1.000  O
  O248     1.0000 0.15830  0.71282  0.25597  Biso   1.000  O
  O249     1.0000 0.08418  0.39790  0.53203  Biso   1.000  O
  O250     1.0000 0.17228  0.25239  0.58878  Biso   1.000  O
  O251     1.0000 0.14985  0.24403  0.66343  Biso   1.000  O
  O252     1.0000 0.99298  0.41667  0.26099  Biso   1.000  O
  O253     1.0000 0.94491  0.37884  0.24267  Biso   1.000  O
  O254     1.0000 0.79734  0.48625  0.25325  Biso   1.000  O
  O255     1.0000 0.61022  0.40936  0.23919  Biso   1.000  O
  O256     1.0000 0.48078  0.30638  0.19318  Biso   1.000  O
  O257     1.0000 0.54551  0.27404  0.21911  Biso   1.000  O
  O258     1.0000 0.70499  0.51779  0.07949  Biso   1.000  O
  O259     1.0000 0.66281  0.68561  0.94821  Biso   1.000  O
  O260     1.0000 0.68740  0.68629  0.01213  Biso   1.000  O
  O261     1.0000 0.72797  0.32984  0.36053  Biso   1.000  O
  O262     1.0000 0.75077  0.25927  0.30897  Biso   1.000  O
  O263     1.0000 0.09920  0.31830  0.22290  Biso   1.000  O
  O264     1.0000 0.07760  0.39980  0.19900  Biso   1.000  O
