data_image0
_cell_length_a       30.0913
_cell_length_b       30.0913
_cell_length_c       30.0913
_cell_angle_alpha    80.2844
_cell_angle_beta     80.2844
_cell_angle_gamma    80.2844

_symmetry_space_group_name_H-M    P 1
_symmetry_int_tables_number       1

loop_
  _symmetry_equiv_pos_as_xyz
  'x, y, z'

loop_
  _atom_site_label
  _atom_site_occupancy
  _atom_site_fract_x
  _atom_site_fract_y
  _atom_site_fract_z
  _atom_site_thermal_displace_type
  _atom_site_B_iso_or_equiv
  _atom_site_type_symbol
  Zn1      1.0000 0.80536  0.30250  0.81472  Biso   1.000  Zn
  Zn2      1.0000 0.80569  0.41925  0.78591  Biso   1.000  Zn
  Zn3      1.0000 0.25103  0.15797  0.48129  Biso   1.000  Zn
  Zn4      1.0000 0.81472  0.80536  0.30250  Biso   1.000  Zn
  Zn5      1.0000 0.78591  0.80569  0.41925  Biso   1.000  Zn
  Zn6      1.0000 0.48129  0.25103  0.15797  Biso   1.000  Zn
  Zn7      1.0000 0.30250  0.81472  0.80536  Biso   1.000  Zn
  Zn8      1.0000 0.41925  0.78590  0.80569  Biso   1.000  Zn
  Zn9      1.0000 0.15797  0.48129  0.25103  Biso   1.000  Zn
  Zn10     1.0000 0.19750  0.69464  0.68528  Biso   1.000  Zn
  Zn11     1.0000 0.08075  0.69431  0.71409  Biso   1.000  Zn
  Zn12     1.0000 0.34203  0.24897  0.01871  Biso   1.000  Zn
  Zn13     1.0000 0.69464  0.68528  0.19750  Biso   1.000  Zn
  Zn14     1.0000 0.69431  0.71409  0.08075  Biso   1.000  Zn
  Zn15     1.0000 0.24897  0.01871  0.34203  Biso   1.000  Zn
  Zn16     1.0000 0.68528  0.19750  0.69464  Biso   1.000  Zn
  Zn17     1.0000 0.71410  0.08075  0.69431  Biso   1.000  Zn
  Zn18     1.0000 0.01871  0.34203  0.24897  Biso   1.000  Zn
  Zn19     1.0000 0.19464  0.69750  0.18528  Biso   1.000  Zn
  Zn20     1.0000 0.19431  0.58075  0.21409  Biso   1.000  Zn
  Zn21     1.0000 0.74897  0.84203  0.51871  Biso   1.000  Zn
  Zn22     1.0000 0.18528  0.19464  0.69750  Biso   1.000  Zn
  Zn23     1.0000 0.21409  0.19431  0.58075  Biso   1.000  Zn
  Zn24     1.0000 0.51871  0.74897  0.84203  Biso   1.000  Zn
  Zn25     1.0000 0.69750  0.18528  0.19464  Biso   1.000  Zn
  Zn26     1.0000 0.58075  0.21409  0.19431  Biso   1.000  Zn
  Zn27     1.0000 0.84203  0.51871  0.74897  Biso   1.000  Zn
  Zn28     1.0000 0.80250  0.30536  0.31472  Biso   1.000  Zn
  Zn29     1.0000 0.91925  0.30569  0.28591  Biso   1.000  Zn
  Zn30     1.0000 0.65797  0.75103  0.98129  Biso   1.000  Zn
  Zn31     1.0000 0.30536  0.31472  0.80250  Biso   1.000  Zn
  Zn32     1.0000 0.30569  0.28591  0.91925  Biso   1.000  Zn
  Zn33     1.0000 0.75103  0.98129  0.65797  Biso   1.000  Zn
  Zn34     1.0000 0.31472  0.80250  0.30536  Biso   1.000  Zn
  Zn35     1.0000 0.28591  0.91925  0.30569  Biso   1.000  Zn
  Zn36     1.0000 0.98129  0.65797  0.75103  Biso   1.000  Zn
  H1       1.0000 0.92430  0.28010  0.88200  Biso   1.000  H
  H2       1.0000 0.98490  0.28040  0.91980  Biso   1.000  H
  H3       1.0000 0.00380  0.34860  0.93080  Biso   1.000  H
  H4       1.0000 0.89870  0.41660  0.87010  Biso   1.000  H
  H5       1.0000 0.94190  0.47750  0.86590  Biso   1.000  H
  H6       1.0000 0.90810  0.46940  0.91140  Biso   1.000  H
  H7       1.0000 0.92470  0.46890  0.01860  Biso   1.000  H
  H8       1.0000 0.88300  0.50440  0.00470  Biso   1.000  H
  H9       1.0000 0.90170  0.46380  0.97710  Biso   1.000  H
  H10      1.0000 0.99560  0.53930  0.82000  Biso   1.000  H
  H11      1.0000 0.04230  0.52030  0.83760  Biso   1.000  H
  H12      1.0000 0.00570  0.48800  0.84140  Biso   1.000  H
  H13      1.0000 0.02530  0.60510  0.98430  Biso   1.000  H
  H14      1.0000 0.00920  0.63800  0.94200  Biso   1.000  H
  H15      1.0000 0.97490  0.62980  0.98690  Biso   1.000  H
  H16      1.0000 0.02930  0.62610  0.87830  Biso   1.000  H
  H17      1.0000 0.04150  0.58890  0.84540  Biso   1.000  H
  H18      1.0000 0.09680  0.63540  0.81890  Biso   1.000  H
  H19      1.0000 0.15440  0.55970  0.92280  Biso   1.000  H
  H20      1.0000 0.96570  0.56870  0.03830  Biso   1.000  H
  H21      1.0000 0.94090  0.52540  0.04640  Biso   1.000  H
  H22      1.0000 0.82440  0.63010  0.05430  Biso   1.000  H
  H23      1.0000 0.82340  0.61590  0.18950  Biso   1.000  H
  H24      1.0000 0.89130  0.56870  0.18260  Biso   1.000  H
  H25      1.0000 0.92910  0.55450  0.11160  Biso   1.000  H
  H26      1.0000 0.84510  0.08320  0.72310  Biso   1.000  H
  H27      1.0000 0.96000  0.01120  0.76240  Biso   1.000  H
  H28      1.0000 0.93320  0.94460  0.76130  Biso   1.000  H
  H29      1.0000 0.86260  0.94710  0.73940  Biso   1.000  H
  H30      1.0000 0.87890  0.14420  0.73510  Biso   1.000  H
  H31      1.0000 0.90040  0.12610  0.68910  Biso   1.000  H
  H32      1.0000 0.91090  0.21300  0.80110  Biso   1.000  H
  H33      1.0000 0.89330  0.17120  0.78850  Biso   1.000  H
  H34      1.0000 0.87150  0.22090  0.77140  Biso   1.000  H
  H35      1.0000 0.99940  0.30630  0.67750  Biso   1.000  H
  H36      1.0000 0.01780  0.28650  0.63180  Biso   1.000  H
  H37      1.0000 0.04620  0.27410  0.67250  Biso   1.000  H
  H38      1.0000 0.99220  0.13390  0.61500  Biso   1.000  H
  H39      1.0000 0.96020  0.10780  0.65360  Biso   1.000  H
  H40      1.0000 0.01220  0.10390  0.65680  Biso   1.000  H
  H41      1.0000 0.00710  0.29590  0.52120  Biso   1.000  H
  H42      1.0000 0.05200  0.32020  0.45710  Biso   1.000  H
  H43      1.0000 0.12820  0.29030  0.44410  Biso   1.000  H
  H44      1.0000 0.11110  0.20180  0.55900  Biso   1.000  H
  H45      1.0000 0.93850  0.30890  0.71720  Biso   1.000  H
  H46      1.0000 0.91810  0.28190  0.76340  Biso   1.000  H
  H47      1.0000 0.91870  0.36430  0.75180  Biso   1.000  H
  H48      1.0000 0.98800  0.45610  0.77670  Biso   1.000  H
  H49      1.0000 0.04810  0.39980  0.78970  Biso   1.000  H
  H50      1.0000 0.04570  0.32380  0.78260  Biso   1.000  H
  H51      1.0000 0.06610  0.20970  0.62670  Biso   1.000  H
  H52      1.0000 0.04780  0.16980  0.61110  Biso   1.000  H
  H53      1.0000 0.22770  0.63830  0.82790  Biso   1.000  H
  H54      1.0000 0.22280  0.58470  0.89240  Biso   1.000  H
  H55      1.0000 0.37110  0.07070  0.38330  Biso   1.000  H
  H56      1.0000 0.33870  0.05300  0.35660  Biso   1.000  H
  H57      1.0000 0.32110  0.06490  0.40580  Biso   1.000  H
  H58      1.0000 0.30860  0.15130  0.29740  Biso   1.000  H
  H59      1.0000 0.34980  0.11170  0.29460  Biso   1.000  H
  H60      1.0000 0.35650  0.15890  0.30610  Biso   1.000  H
  H61      1.0000 0.24890  0.18670  0.35320  Biso   1.000  H
  H62      1.0000 0.29540  0.20570  0.34650  Biso   1.000  H
  H63      1.0000 0.26270  0.20700  0.39290  Biso   1.000  H
  H64      1.0000 0.88200  0.92430  0.28010  Biso   1.000  H
  H65      1.0000 0.91980  0.98490  0.28040  Biso   1.000  H
  H66      1.0000 0.93080  0.00380  0.34860  Biso   1.000  H
  H67      1.0000 0.87010  0.89870  0.41660  Biso   1.000  H
  H68      1.0000 0.86590  0.94190  0.47750  Biso   1.000  H
  H69      1.0000 0.91140  0.90810  0.46940  Biso   1.000  H
  H70      1.0000 0.01860  0.92470  0.46890  Biso   1.000  H
  H71      1.0000 0.00470  0.88300  0.50440  Biso   1.000  H
  H72      1.0000 0.97710  0.90170  0.46380  Biso   1.000  H
  H73      1.0000 0.82000  0.99560  0.53930  Biso   1.000  H
  H74      1.0000 0.83760  0.04230  0.52030  Biso   1.000  H
  H75      1.0000 0.84140  0.00570  0.48800  Biso   1.000  H
  H76      1.0000 0.98430  0.02530  0.60510  Biso   1.000  H
  H77      1.0000 0.94200  0.00920  0.63800  Biso   1.000  H
  H78      1.0000 0.98690  0.97490  0.62980  Biso   1.000  H
  H79      1.0000 0.87830  0.02930  0.62610  Biso   1.000  H
  H80      1.0000 0.84540  0.04150  0.58890  Biso   1.000  H
  H81      1.0000 0.81890  0.09680  0.63540  Biso   1.000  H
  H82      1.0000 0.92280  0.15440  0.55970  Biso   1.000  H
  H83      1.0000 0.03830  0.96570  0.56870  Biso   1.000  H
  H84      1.0000 0.04640  0.94090  0.52540  Biso   1.000  H
  H85      1.0000 0.05430  0.82440  0.63010  Biso   1.000  H
  H86      1.0000 0.18950  0.82340  0.61590  Biso   1.000  H
  H87      1.0000 0.18260  0.89130  0.56870  Biso   1.000  H
  H88      1.0000 0.11160  0.92910  0.55450  Biso   1.000  H
  H89      1.0000 0.72310  0.84510  0.08320  Biso   1.000  H
  H90      1.0000 0.76240  0.96000  0.01120  Biso   1.000  H
  H91      1.0000 0.76130  0.93320  0.94460  Biso   1.000  H
  H92      1.0000 0.73940  0.86260  0.94710  Biso   1.000  H
  H93      1.0000 0.73510  0.87890  0.14420  Biso   1.000  H
  H94      1.0000 0.68910  0.90040  0.12610  Biso   1.000  H
  H95      1.0000 0.80110  0.91090  0.21300  Biso   1.000  H
  H96      1.0000 0.78850  0.89330  0.17120  Biso   1.000  H
  H97      1.0000 0.77140  0.87150  0.22090  Biso   1.000  H
  H98      1.0000 0.67750  0.99940  0.30630  Biso   1.000  H
  H99      1.0000 0.63180  0.01780  0.28650  Biso   1.000  H
  H100     1.0000 0.67250  0.04620  0.27410  Biso   1.000  H
  H101     1.0000 0.61500  0.99220  0.13390  Biso   1.000  H
  H102     1.0000 0.65360  0.96020  0.10780  Biso   1.000  H
  H103     1.0000 0.65680  0.01220  0.10390  Biso   1.000  H
  H104     1.0000 0.52120  0.00710  0.29590  Biso   1.000  H
  H105     1.0000 0.45710  0.05200  0.32020  Biso   1.000  H
  H106     1.0000 0.44410  0.12820  0.29030  Biso   1.000  H
  H107     1.0000 0.55900  0.11110  0.20180  Biso   1.000  H
  H108     1.0000 0.71720  0.93850  0.30890  Biso   1.000  H
  H109     1.0000 0.76340  0.91810  0.28190  Biso   1.000  H
  H110     1.0000 0.75180  0.91870  0.36430  Biso   1.000  H
  H111     1.0000 0.77670  0.98800  0.45610  Biso   1.000  H
  H112     1.0000 0.78970  0.04810  0.39980  Biso   1.000  H
  H113     1.0000 0.78260  0.04570  0.32380  Biso   1.000  H
  H114     1.0000 0.62670  0.06610  0.20970  Biso   1.000  H
  H115     1.0000 0.61110  0.04780  0.16980  Biso   1.000  H
  H116     1.0000 0.82790  0.22770  0.63830  Biso   1.000  H
  H117     1.0000 0.89240  0.22280  0.58470  Biso   1.000  H
  H118     1.0000 0.38330  0.37110  0.07070  Biso   1.000  H
  H119     1.0000 0.35660  0.33870  0.05300  Biso   1.000  H
  H120     1.0000 0.40580  0.32110  0.06490  Biso   1.000  H
  H121     1.0000 0.29740  0.30860  0.15130  Biso   1.000  H
  H122     1.0000 0.29460  0.34980  0.11170  Biso   1.000  H
  H123     1.0000 0.30610  0.35650  0.15890  Biso   1.000  H
  H124     1.0000 0.35320  0.24890  0.18670  Biso   1.000  H
  H125     1.0000 0.34650  0.29540  0.20570  Biso   1.000  H
  H126     1.0000 0.39290  0.26270  0.20700  Biso   1.000  H
  H127     1.0000 0.28010  0.88200  0.92430  Biso   1.000  H
  H128     1.0000 0.28040  0.91980  0.98490  Biso   1.000  H
  H129     1.0000 0.34860  0.93080  0.00380  Biso   1.000  H
  H130     1.0000 0.41660  0.87010  0.89870  Biso   1.000  H
  H131     1.0000 0.47750  0.86590  0.94190  Biso   1.000  H
  H132     1.0000 0.46940  0.91140  0.90810  Biso   1.000  H
  H133     1.0000 0.46890  0.01860  0.92470  Biso   1.000  H
  H134     1.0000 0.50440  0.00470  0.88300  Biso   1.000  H
  H135     1.0000 0.46380  0.97710  0.90170  Biso   1.000  H
  H136     1.0000 0.53930  0.82000  0.99560  Biso   1.000  H
  H137     1.0000 0.52030  0.83760  0.04230  Biso   1.000  H
  H138     1.0000 0.48800  0.84140  0.00570  Biso   1.000  H
  H139     1.0000 0.60510  0.98430  0.02530  Biso   1.000  H
  H140     1.0000 0.63800  0.94200  0.00920  Biso   1.000  H
  H141     1.0000 0.62980  0.98690  0.97490  Biso   1.000  H
  H142     1.0000 0.62610  0.87830  0.02930  Biso   1.000  H
  H143     1.0000 0.58890  0.84540  0.04150  Biso   1.000  H
  H144     1.0000 0.63540  0.81890  0.09680  Biso   1.000  H
  H145     1.0000 0.55970  0.92280  0.15440  Biso   1.000  H
  H146     1.0000 0.56870  0.03830  0.96570  Biso   1.000  H
  H147     1.0000 0.52540  0.04640  0.94090  Biso   1.000  H
  H148     1.0000 0.63010  0.05430  0.82440  Biso   1.000  H
  H149     1.0000 0.61590  0.18950  0.82340  Biso   1.000  H
  H150     1.0000 0.56870  0.18260  0.89130  Biso   1.000  H
  H151     1.0000 0.55450  0.11160  0.92910  Biso   1.000  H
  H152     1.0000 0.08320  0.72310  0.84510  Biso   1.000  H
  H153     1.0000 0.01120  0.76240  0.96000  Biso   1.000  H
  H154     1.0000 0.94460  0.76130  0.93320  Biso   1.000  H
  H155     1.0000 0.94710  0.73940  0.86260  Biso   1.000  H
  H156     1.0000 0.14420  0.73510  0.87890  Biso   1.000  H
  H157     1.0000 0.12610  0.68910  0.90040  Biso   1.000  H
  H158     1.0000 0.21300  0.80110  0.91090  Biso   1.000  H
  H159     1.0000 0.17120  0.78850  0.89330  Biso   1.000  H
  H160     1.0000 0.22090  0.77140  0.87150  Biso   1.000  H
  H161     1.0000 0.30630  0.67750  0.99940  Biso   1.000  H
  H162     1.0000 0.28650  0.63180  0.01780  Biso   1.000  H
  H163     1.0000 0.27410  0.67250  0.04620  Biso   1.000  H
  H164     1.0000 0.13390  0.61500  0.99220  Biso   1.000  H
  H165     1.0000 0.10780  0.65360  0.96020  Biso   1.000  H
  H166     1.0000 0.10390  0.65680  0.01220  Biso   1.000  H
  H167     1.0000 0.29590  0.52120  0.00710  Biso   1.000  H
  H168     1.0000 0.32020  0.45710  0.05200  Biso   1.000  H
  H169     1.0000 0.29030  0.44410  0.12820  Biso   1.000  H
  H170     1.0000 0.20180  0.55900  0.11110  Biso   1.000  H
  H171     1.0000 0.30890  0.71720  0.93850  Biso   1.000  H
  H172     1.0000 0.28190  0.76340  0.91810  Biso   1.000  H
  H173     1.0000 0.36430  0.75180  0.91870  Biso   1.000  H
  H174     1.0000 0.45610  0.77670  0.98800  Biso   1.000  H
  H175     1.0000 0.39980  0.78970  0.04810  Biso   1.000  H
  H176     1.0000 0.32380  0.78260  0.04570  Biso   1.000  H
  H177     1.0000 0.20970  0.62670  0.06610  Biso   1.000  H
  H178     1.0000 0.16980  0.61110  0.04780  Biso   1.000  H
  H179     1.0000 0.63830  0.82790  0.22770  Biso   1.000  H
  H180     1.0000 0.58470  0.89240  0.22280  Biso   1.000  H
  H181     1.0000 0.07070  0.38330  0.37110  Biso   1.000  H
  H182     1.0000 0.05300  0.35660  0.33870  Biso   1.000  H
  H183     1.0000 0.06490  0.40580  0.32110  Biso   1.000  H
  H184     1.0000 0.15130  0.29740  0.30860  Biso   1.000  H
  H185     1.0000 0.11170  0.29460  0.34980  Biso   1.000  H
  H186     1.0000 0.15890  0.30610  0.35650  Biso   1.000  H
  H187     1.0000 0.18670  0.35320  0.24890  Biso   1.000  H
  H188     1.0000 0.20570  0.34650  0.29540  Biso   1.000  H
  H189     1.0000 0.20700  0.39290  0.26270  Biso   1.000  H
  H190     1.0000 0.21990  0.57570  0.61800  Biso   1.000  H
  H191     1.0000 0.21960  0.51510  0.58020  Biso   1.000  H
  H192     1.0000 0.15140  0.49620  0.56920  Biso   1.000  H
  H193     1.0000 0.08340  0.60130  0.62990  Biso   1.000  H
  H194     1.0000 0.02250  0.55810  0.63410  Biso   1.000  H
  H195     1.0000 0.03060  0.59190  0.58860  Biso   1.000  H
  H196     1.0000 0.03110  0.57530  0.48140  Biso   1.000  H
  H197     1.0000 0.99560  0.61700  0.49530  Biso   1.000  H
  H198     1.0000 0.03620  0.59830  0.52290  Biso   1.000  H
  H199     1.0000 0.96070  0.50440  0.68000  Biso   1.000  H
  H200     1.0000 0.97970  0.45770  0.66240  Biso   1.000  H
  H201     1.0000 0.01200  0.49430  0.65860  Biso   1.000  H
  H202     1.0000 0.89490  0.47470  0.51570  Biso   1.000  H
  H203     1.0000 0.86200  0.49080  0.55800  Biso   1.000  H
  H204     1.0000 0.87020  0.52510  0.51310  Biso   1.000  H
  H205     1.0000 0.87390  0.47070  0.62170  Biso   1.000  H
  H206     1.0000 0.91110  0.45850  0.65460  Biso   1.000  H
  H207     1.0000 0.86460  0.40320  0.68110  Biso   1.000  H
  H208     1.0000 0.94030  0.34560  0.57720  Biso   1.000  H
  H209     1.0000 0.93130  0.53430  0.46170  Biso   1.000  H
  H210     1.0000 0.97460  0.55910  0.45360  Biso   1.000  H
  H211     1.0000 0.86990  0.67560  0.44570  Biso   1.000  H
  H212     1.0000 0.88410  0.67660  0.31050  Biso   1.000  H
  H213     1.0000 0.93130  0.60870  0.31740  Biso   1.000  H
  H214     1.0000 0.94550  0.57090  0.38840  Biso   1.000  H
  H215     1.0000 0.41680  0.65490  0.77690  Biso   1.000  H
  H216     1.0000 0.48880  0.54000  0.73760  Biso   1.000  H
  H217     1.0000 0.55540  0.56680  0.73870  Biso   1.000  H
  H218     1.0000 0.55290  0.63740  0.76060  Biso   1.000  H
  H219     1.0000 0.35580  0.62110  0.76490  Biso   1.000  H
  H220     1.0000 0.37390  0.59960  0.81090  Biso   1.000  H
  H221     1.0000 0.28700  0.58910  0.69890  Biso   1.000  H
  H222     1.0000 0.32880  0.60670  0.71150  Biso   1.000  H
  H223     1.0000 0.27910  0.62850  0.72860  Biso   1.000  H
  H224     1.0000 0.19370  0.50060  0.82250  Biso   1.000  H
  H225     1.0000 0.21350  0.48220  0.86820  Biso   1.000  H
  H226     1.0000 0.22590  0.45380  0.82750  Biso   1.000  H
  H227     1.0000 0.36610  0.50780  0.88500  Biso   1.000  H
  H228     1.0000 0.39220  0.53980  0.84640  Biso   1.000  H
  H229     1.0000 0.39610  0.48780  0.84320  Biso   1.000  H
  H230     1.0000 0.20410  0.49290  0.97880  Biso   1.000  H
  H231     1.0000 0.17980  0.44800  0.04290  Biso   1.000  H
  H232     1.0000 0.20970  0.37180  0.05590  Biso   1.000  H
  H233     1.0000 0.29820  0.38890  0.94100  Biso   1.000  H
  H234     1.0000 0.19110  0.56150  0.78280  Biso   1.000  H
  H235     1.0000 0.21810  0.58190  0.73660  Biso   1.000  H
  H236     1.0000 0.13570  0.58130  0.74820  Biso   1.000  H
  H237     1.0000 0.04390  0.51200  0.72330  Biso   1.000  H
  H238     1.0000 0.10020  0.45190  0.71030  Biso   1.000  H
  H239     1.0000 0.17620  0.45430  0.71740  Biso   1.000  H
  H240     1.0000 0.29030  0.43390  0.87330  Biso   1.000  H
  H241     1.0000 0.33020  0.45220  0.88890  Biso   1.000  H
  H242     1.0000 0.86170  0.27230  0.67210  Biso   1.000  H
  H243     1.0000 0.91530  0.27720  0.60760  Biso   1.000  H
  H244     1.0000 0.42930  0.12890  0.11670  Biso   1.000  H
  H245     1.0000 0.44700  0.16130  0.14340  Biso   1.000  H
  H246     1.0000 0.43510  0.17890  0.09420  Biso   1.000  H
  H247     1.0000 0.34870  0.19140  0.20260  Biso   1.000  H
  H248     1.0000 0.38830  0.15020  0.20540  Biso   1.000  H
  H249     1.0000 0.34110  0.14350  0.19390  Biso   1.000  H
  H250     1.0000 0.31330  0.25110  0.14680  Biso   1.000  H
  H251     1.0000 0.29430  0.20460  0.15350  Biso   1.000  H
  H252     1.0000 0.29300  0.23730  0.10710  Biso   1.000  H
  H253     1.0000 0.57570  0.61800  0.21990  Biso   1.000  H
  H254     1.0000 0.51510  0.58020  0.21960  Biso   1.000  H
  H255     1.0000 0.49620  0.56920  0.15140  Biso   1.000  H
  H256     1.0000 0.60130  0.62990  0.08340  Biso   1.000  H
  H257     1.0000 0.55810  0.63410  0.02250  Biso   1.000  H
  H258     1.0000 0.59190  0.58860  0.03060  Biso   1.000  H
  H259     1.0000 0.57530  0.48140  0.03110  Biso   1.000  H
  H260     1.0000 0.61700  0.49530  0.99560  Biso   1.000  H
  H261     1.0000 0.59830  0.52290  0.03620  Biso   1.000  H
  H262     1.0000 0.50440  0.68000  0.96070  Biso   1.000  H
  H263     1.0000 0.45770  0.66240  0.97970  Biso   1.000  H
  H264     1.0000 0.49430  0.65860  0.01200  Biso   1.000  H
  H265     1.0000 0.47470  0.51570  0.89490  Biso   1.000  H
  H266     1.0000 0.49080  0.55800  0.86200  Biso   1.000  H
  H267     1.0000 0.52510  0.51310  0.87020  Biso   1.000  H
  H268     1.0000 0.47070  0.62170  0.87390  Biso   1.000  H
  H269     1.0000 0.45850  0.65460  0.91110  Biso   1.000  H
  H270     1.0000 0.40320  0.68110  0.86460  Biso   1.000  H
  H271     1.0000 0.34560  0.57720  0.94030  Biso   1.000  H
  H272     1.0000 0.53430  0.46170  0.93130  Biso   1.000  H
  H273     1.0000 0.55910  0.45360  0.97460  Biso   1.000  H
  H274     1.0000 0.67560  0.44570  0.86990  Biso   1.000  H
  H275     1.0000 0.67660  0.31050  0.88410  Biso   1.000  H
  H276     1.0000 0.60870  0.31740  0.93130  Biso   1.000  H
  H277     1.0000 0.57090  0.38840  0.94550  Biso   1.000  H
  H278     1.0000 0.65490  0.77690  0.41680  Biso   1.000  H
  H279     1.0000 0.54000  0.73760  0.48880  Biso   1.000  H
  H280     1.0000 0.56680  0.73870  0.55540  Biso   1.000  H
  H281     1.0000 0.63740  0.76060  0.55290  Biso   1.000  H
  H282     1.0000 0.62110  0.76490  0.35580  Biso   1.000  H
  H283     1.0000 0.59960  0.81090  0.37390  Biso   1.000  H
  H284     1.0000 0.58910  0.69890  0.28700  Biso   1.000  H
  H285     1.0000 0.60670  0.71150  0.32880  Biso   1.000  H
  H286     1.0000 0.62850  0.72860  0.27910  Biso   1.000  H
  H287     1.0000 0.50060  0.82250  0.19370  Biso   1.000  H
  H288     1.0000 0.48220  0.86820  0.21350  Biso   1.000  H
  H289     1.0000 0.45380  0.82750  0.22590  Biso   1.000  H
  H290     1.0000 0.50780  0.88500  0.36610  Biso   1.000  H
  H291     1.0000 0.53980  0.84640  0.39220  Biso   1.000  H
  H292     1.0000 0.48780  0.84320  0.39610  Biso   1.000  H
  H293     1.0000 0.49290  0.97880  0.20410  Biso   1.000  H
  H294     1.0000 0.44800  0.04290  0.17980  Biso   1.000  H
  H295     1.0000 0.37180  0.05590  0.20970  Biso   1.000  H
  H296     1.0000 0.38890  0.94100  0.29820  Biso   1.000  H
  H297     1.0000 0.56150  0.78280  0.19110  Biso   1.000  H
  H298     1.0000 0.58190  0.73660  0.21810  Biso   1.000  H
  H299     1.0000 0.58130  0.74820  0.13570  Biso   1.000  H
  H300     1.0000 0.51200  0.72330  0.04390  Biso   1.000  H
  H301     1.0000 0.45190  0.71030  0.10020  Biso   1.000  H
  H302     1.0000 0.45430  0.71740  0.17620  Biso   1.000  H
  H303     1.0000 0.43390  0.87330  0.29030  Biso   1.000  H
  H304     1.0000 0.45220  0.88890  0.33020  Biso   1.000  H
  H305     1.0000 0.27230  0.67210  0.86170  Biso   1.000  H
  H306     1.0000 0.27720  0.60760  0.91530  Biso   1.000  H
  H307     1.0000 0.12890  0.11670  0.42930  Biso   1.000  H
  H308     1.0000 0.16130  0.14340  0.44700  Biso   1.000  H
  H309     1.0000 0.17890  0.09420  0.43510  Biso   1.000  H
  H310     1.0000 0.19140  0.20260  0.34870  Biso   1.000  H
  H311     1.0000 0.15020  0.20540  0.38830  Biso   1.000  H
  H312     1.0000 0.14350  0.19390  0.34110  Biso   1.000  H
  H313     1.0000 0.25110  0.14680  0.31330  Biso   1.000  H
  H314     1.0000 0.20460  0.15350  0.29430  Biso   1.000  H
  H315     1.0000 0.23730  0.10710  0.29300  Biso   1.000  H
  H316     1.0000 0.61800  0.21990  0.57570  Biso   1.000  H
  H317     1.0000 0.58020  0.21960  0.51510  Biso   1.000  H
  H318     1.0000 0.56920  0.15140  0.49620  Biso   1.000  H
  H319     1.0000 0.62990  0.08340  0.60130  Biso   1.000  H
  H320     1.0000 0.63410  0.02250  0.55810  Biso   1.000  H
  H321     1.0000 0.58860  0.03060  0.59190  Biso   1.000  H
  H322     1.0000 0.48140  0.03110  0.57530  Biso   1.000  H
  H323     1.0000 0.49530  0.99560  0.61700  Biso   1.000  H
  H324     1.0000 0.52290  0.03620  0.59830  Biso   1.000  H
  H325     1.0000 0.68000  0.96070  0.50440  Biso   1.000  H
  H326     1.0000 0.66240  0.97970  0.45770  Biso   1.000  H
  H327     1.0000 0.65860  0.01200  0.49430  Biso   1.000  H
  H328     1.0000 0.51570  0.89490  0.47470  Biso   1.000  H
  H329     1.0000 0.55800  0.86200  0.49080  Biso   1.000  H
  H330     1.0000 0.51310  0.87020  0.52510  Biso   1.000  H
  H331     1.0000 0.62170  0.87390  0.47070  Biso   1.000  H
  H332     1.0000 0.65460  0.91110  0.45850  Biso   1.000  H
  H333     1.0000 0.68110  0.86460  0.40320  Biso   1.000  H
  H334     1.0000 0.57720  0.94030  0.34560  Biso   1.000  H
  H335     1.0000 0.46170  0.93130  0.53430  Biso   1.000  H
  H336     1.0000 0.45360  0.97460  0.55910  Biso   1.000  H
  H337     1.0000 0.44570  0.86990  0.67560  Biso   1.000  H
  H338     1.0000 0.31050  0.88410  0.67660  Biso   1.000  H
  H339     1.0000 0.31740  0.93130  0.60870  Biso   1.000  H
  H340     1.0000 0.38840  0.94550  0.57090  Biso   1.000  H
  H341     1.0000 0.77690  0.41680  0.65490  Biso   1.000  H
  H342     1.0000 0.73760  0.48880  0.54000  Biso   1.000  H
  H343     1.0000 0.73870  0.55540  0.56680  Biso   1.000  H
  H344     1.0000 0.76060  0.55290  0.63740  Biso   1.000  H
  H345     1.0000 0.76490  0.35580  0.62110  Biso   1.000  H
  H346     1.0000 0.81090  0.37390  0.59960  Biso   1.000  H
  H347     1.0000 0.69890  0.28700  0.58910  Biso   1.000  H
  H348     1.0000 0.71150  0.32880  0.60670  Biso   1.000  H
  H349     1.0000 0.72860  0.27910  0.62850  Biso   1.000  H
  H350     1.0000 0.82250  0.19370  0.50060  Biso   1.000  H
  H351     1.0000 0.86820  0.21350  0.48220  Biso   1.000  H
  H352     1.0000 0.82750  0.22590  0.45380  Biso   1.000  H
  H353     1.0000 0.88500  0.36610  0.50780  Biso   1.000  H
  H354     1.0000 0.84640  0.39220  0.53980  Biso   1.000  H
  H355     1.0000 0.84320  0.39610  0.48780  Biso   1.000  H
  H356     1.0000 0.97880  0.20410  0.49290  Biso   1.000  H
  H357     1.0000 0.04290  0.17980  0.44800  Biso   1.000  H
  H358     1.0000 0.05590  0.20970  0.37180  Biso   1.000  H
  H359     1.0000 0.94100  0.29820  0.38890  Biso   1.000  H
  H360     1.0000 0.78280  0.19110  0.56150  Biso   1.000  H
  H361     1.0000 0.73660  0.21810  0.58190  Biso   1.000  H
  H362     1.0000 0.74820  0.13570  0.58130  Biso   1.000  H
  H363     1.0000 0.72330  0.04390  0.51200  Biso   1.000  H
  H364     1.0000 0.71030  0.10020  0.45190  Biso   1.000  H
  H365     1.0000 0.71740  0.17620  0.45430  Biso   1.000  H
  H366     1.0000 0.87330  0.29030  0.43390  Biso   1.000  H
  H367     1.0000 0.88890  0.33020  0.45220  Biso   1.000  H
  H368     1.0000 0.67210  0.86170  0.27230  Biso   1.000  H
  H369     1.0000 0.60760  0.91530  0.27720  Biso   1.000  H
  H370     1.0000 0.11670  0.42930  0.12890  Biso   1.000  H
  H371     1.0000 0.14340  0.44700  0.16130  Biso   1.000  H
  H372     1.0000 0.09420  0.43510  0.17890  Biso   1.000  H
  H373     1.0000 0.20260  0.34870  0.19140  Biso   1.000  H
  H374     1.0000 0.20540  0.38830  0.15020  Biso   1.000  H
  H375     1.0000 0.19390  0.34110  0.14350  Biso   1.000  H
  H376     1.0000 0.14680  0.31330  0.25110  Biso   1.000  H
  H377     1.0000 0.15350  0.29430  0.20460  Biso   1.000  H
  H378     1.0000 0.10710  0.29300  0.23730  Biso   1.000  H
  H379     1.0000 0.07570  0.71990  0.11800  Biso   1.000  H
  H380     1.0000 0.01510  0.71960  0.08020  Biso   1.000  H
  H381     1.0000 0.99620  0.65140  0.06920  Biso   1.000  H
  H382     1.0000 0.10130  0.58340  0.12990  Biso   1.000  H
  H383     1.0000 0.05810  0.52250  0.13410  Biso   1.000  H
  H384     1.0000 0.09190  0.53060  0.08860  Biso   1.000  H
  H385     1.0000 0.07530  0.53110  0.98140  Biso   1.000  H
  H386     1.0000 0.11700  0.49560  0.99530  Biso   1.000  H
  H387     1.0000 0.09830  0.53620  0.02290  Biso   1.000  H
  H388     1.0000 0.00440  0.46070  0.18000  Biso   1.000  H
  H389     1.0000 0.95770  0.47970  0.16240  Biso   1.000  H
  H390     1.0000 0.99430  0.51200  0.15860  Biso   1.000  H
  H391     1.0000 0.97470  0.39490  0.01570  Biso   1.000  H
  H392     1.0000 0.99080  0.36200  0.05800  Biso   1.000  H
  H393     1.0000 0.02510  0.37020  0.01310  Biso   1.000  H
  H394     1.0000 0.97070  0.37390  0.12170  Biso   1.000  H
  H395     1.0000 0.95850  0.41110  0.15460  Biso   1.000  H
  H396     1.0000 0.90320  0.36460  0.18110  Biso   1.000  H
  H397     1.0000 0.84560  0.44030  0.07720  Biso   1.000  H
  H398     1.0000 0.03430  0.43130  0.96170  Biso   1.000  H
  H399     1.0000 0.05910  0.47460  0.95360  Biso   1.000  H
  H400     1.0000 0.17560  0.36990  0.94570  Biso   1.000  H
  H401     1.0000 0.17660  0.38410  0.81050  Biso   1.000  H
  H402     1.0000 0.10870  0.43130  0.81740  Biso   1.000  H
  H403     1.0000 0.07090  0.44550  0.88840  Biso   1.000  H
  H404     1.0000 0.15490  0.91680  0.27690  Biso   1.000  H
  H405     1.0000 0.04000  0.98880  0.23760  Biso   1.000  H
  H406     1.0000 0.06680  0.05540  0.23870  Biso   1.000  H
  H407     1.0000 0.13740  0.05290  0.26060  Biso   1.000  H
  H408     1.0000 0.12110  0.85580  0.26490  Biso   1.000  H
  H409     1.0000 0.09960  0.87390  0.31090  Biso   1.000  H
  H410     1.0000 0.08910  0.78700  0.19890  Biso   1.000  H
  H411     1.0000 0.10670  0.82880  0.21150  Biso   1.000  H
  H412     1.0000 0.12850  0.77910  0.22860  Biso   1.000  H
  H413     1.0000 0.00060  0.69370  0.32250  Biso   1.000  H
  H414     1.0000 0.98220  0.71350  0.36820  Biso   1.000  H
  H415     1.0000 0.95380  0.72590  0.32750  Biso   1.000  H
  H416     1.0000 0.00780  0.86610  0.38500  Biso   1.000  H
  H417     1.0000 0.03980  0.89220  0.34640  Biso   1.000  H
  H418     1.0000 0.98780  0.89610  0.34320  Biso   1.000  H
  H419     1.0000 0.99290  0.70410  0.47880  Biso   1.000  H
  H420     1.0000 0.94800  0.67980  0.54290  Biso   1.000  H
  H421     1.0000 0.87180  0.70970  0.55590  Biso   1.000  H
  H422     1.0000 0.88890  0.79820  0.44100  Biso   1.000  H
  H423     1.0000 0.06150  0.69110  0.28280  Biso   1.000  H
  H424     1.0000 0.08190  0.71810  0.23660  Biso   1.000  H
  H425     1.0000 0.08130  0.63570  0.24820  Biso   1.000  H
  H426     1.0000 0.01200  0.54390  0.22330  Biso   1.000  H
  H427     1.0000 0.95190  0.60020  0.21030  Biso   1.000  H
  H428     1.0000 0.95430  0.67620  0.21740  Biso   1.000  H
  H429     1.0000 0.93390  0.79030  0.37330  Biso   1.000  H
  H430     1.0000 0.95220  0.83020  0.38890  Biso   1.000  H
  H431     1.0000 0.77230  0.36170  0.17210  Biso   1.000  H
  H432     1.0000 0.77720  0.41530  0.10760  Biso   1.000  H
  H433     1.0000 0.62890  0.92930  0.61670  Biso   1.000  H
  H434     1.0000 0.66130  0.94700  0.64340  Biso   1.000  H
  H435     1.0000 0.67890  0.93510  0.59420  Biso   1.000  H
  H436     1.0000 0.69140  0.84870  0.70260  Biso   1.000  H
  H437     1.0000 0.65020  0.88830  0.70540  Biso   1.000  H
  H438     1.0000 0.64350  0.84110  0.69390  Biso   1.000  H
  H439     1.0000 0.75110  0.81330  0.64680  Biso   1.000  H
  H440     1.0000 0.70460  0.79430  0.65350  Biso   1.000  H
  H441     1.0000 0.73730  0.79300  0.60710  Biso   1.000  H
  H442     1.0000 0.11800  0.07570  0.71990  Biso   1.000  H
  H443     1.0000 0.08020  0.01510  0.71960  Biso   1.000  H
  H444     1.0000 0.06920  0.99620  0.65140  Biso   1.000  H
  H445     1.0000 0.12990  0.10130  0.58340  Biso   1.000  H
  H446     1.0000 0.13410  0.05810  0.52250  Biso   1.000  H
  H447     1.0000 0.08860  0.09190  0.53060  Biso   1.000  H
  H448     1.0000 0.98140  0.07530  0.53110  Biso   1.000  H
  H449     1.0000 0.99530  0.11700  0.49560  Biso   1.000  H
  H450     1.0000 0.02290  0.09830  0.53620  Biso   1.000  H
  H451     1.0000 0.18000  0.00440  0.46070  Biso   1.000  H
  H452     1.0000 0.16240  0.95770  0.47970  Biso   1.000  H
  H453     1.0000 0.15860  0.99430  0.51200  Biso   1.000  H
  H454     1.0000 0.01570  0.97470  0.39490  Biso   1.000  H
  H455     1.0000 0.05800  0.99080  0.36200  Biso   1.000  H
  H456     1.0000 0.01310  0.02510  0.37020  Biso   1.000  H
  H457     1.0000 0.12170  0.97070  0.37390  Biso   1.000  H
  H458     1.0000 0.15460  0.95850  0.41110  Biso   1.000  H
  H459     1.0000 0.18110  0.90320  0.36460  Biso   1.000  H
  H460     1.0000 0.07720  0.84560  0.44030  Biso   1.000  H
  H461     1.0000 0.96170  0.03430  0.43130  Biso   1.000  H
  H462     1.0000 0.95360  0.05910  0.47460  Biso   1.000  H
  H463     1.0000 0.94570  0.17560  0.36990  Biso   1.000  H
  H464     1.0000 0.81050  0.17660  0.38410  Biso   1.000  H
  H465     1.0000 0.81740  0.10870  0.43130  Biso   1.000  H
  H466     1.0000 0.88840  0.07090  0.44550  Biso   1.000  H
  H467     1.0000 0.27690  0.15490  0.91680  Biso   1.000  H
  H468     1.0000 0.23760  0.04000  0.98880  Biso   1.000  H
  H469     1.0000 0.23870  0.06680  0.05540  Biso   1.000  H
  H470     1.0000 0.26060  0.13740  0.05290  Biso   1.000  H
  H471     1.0000 0.26490  0.12110  0.85580  Biso   1.000  H
  H472     1.0000 0.31090  0.09960  0.87390  Biso   1.000  H
  H473     1.0000 0.19890  0.08910  0.78700  Biso   1.000  H
  H474     1.0000 0.21150  0.10670  0.82880  Biso   1.000  H
  H475     1.0000 0.22860  0.12850  0.77910  Biso   1.000  H
  H476     1.0000 0.32250  0.00060  0.69370  Biso   1.000  H
  H477     1.0000 0.36820  0.98220  0.71350  Biso   1.000  H
  H478     1.0000 0.32750  0.95380  0.72590  Biso   1.000  H
  H479     1.0000 0.38500  0.00780  0.86610  Biso   1.000  H
  H480     1.0000 0.34640  0.03980  0.89220  Biso   1.000  H
  H481     1.0000 0.34320  0.98780  0.89610  Biso   1.000  H
  H482     1.0000 0.47880  0.99290  0.70410  Biso   1.000  H
  H483     1.0000 0.54290  0.94800  0.67980  Biso   1.000  H
  H484     1.0000 0.55590  0.87180  0.70970  Biso   1.000  H
  H485     1.0000 0.44100  0.88890  0.79820  Biso   1.000  H
  H486     1.0000 0.28280  0.06150  0.69110  Biso   1.000  H
  H487     1.0000 0.23660  0.08190  0.71810  Biso   1.000  H
  H488     1.0000 0.24820  0.08130  0.63570  Biso   1.000  H
  H489     1.0000 0.22330  0.01200  0.54390  Biso   1.000  H
  H490     1.0000 0.21030  0.95190  0.60020  Biso   1.000  H
  H491     1.0000 0.21740  0.95430  0.67620  Biso   1.000  H
  H492     1.0000 0.37330  0.93390  0.79030  Biso   1.000  H
  H493     1.0000 0.38890  0.95220  0.83020  Biso   1.000  H
  H494     1.0000 0.17210  0.77230  0.36170  Biso   1.000  H
  H495     1.0000 0.10760  0.77720  0.41530  Biso   1.000  H
  H496     1.0000 0.61670  0.62890  0.92930  Biso   1.000  H
  H497     1.0000 0.64340  0.66130  0.94700  Biso   1.000  H
  H498     1.0000 0.59420  0.67890  0.93510  Biso   1.000  H
  H499     1.0000 0.70260  0.69140  0.84870  Biso   1.000  H
  H500     1.0000 0.70540  0.65020  0.88830  Biso   1.000  H
  H501     1.0000 0.69390  0.64350  0.84110  Biso   1.000  H
  H502     1.0000 0.64680  0.75110  0.81330  Biso   1.000  H
  H503     1.0000 0.65350  0.70460  0.79430  Biso   1.000  H
  H504     1.0000 0.60710  0.73730  0.79300  Biso   1.000  H
  H505     1.0000 0.71990  0.11800  0.07570  Biso   1.000  H
  H506     1.0000 0.71960  0.08020  0.01510  Biso   1.000  H
  H507     1.0000 0.65140  0.06920  0.99620  Biso   1.000  H
  H508     1.0000 0.58340  0.12990  0.10130  Biso   1.000  H
  H509     1.0000 0.52250  0.13410  0.05810  Biso   1.000  H
  H510     1.0000 0.53060  0.08860  0.09190  Biso   1.000  H
  H511     1.0000 0.53110  0.98140  0.07530  Biso   1.000  H
  H512     1.0000 0.49560  0.99530  0.11700  Biso   1.000  H
  H513     1.0000 0.53620  0.02290  0.09830  Biso   1.000  H
  H514     1.0000 0.46070  0.18000  0.00440  Biso   1.000  H
  H515     1.0000 0.47970  0.16240  0.95770  Biso   1.000  H
  H516     1.0000 0.51200  0.15860  0.99430  Biso   1.000  H
  H517     1.0000 0.39490  0.01570  0.97470  Biso   1.000  H
  H518     1.0000 0.36200  0.05800  0.99080  Biso   1.000  H
  H519     1.0000 0.37020  0.01310  0.02510  Biso   1.000  H
  H520     1.0000 0.37390  0.12170  0.97070  Biso   1.000  H
  H521     1.0000 0.41110  0.15460  0.95850  Biso   1.000  H
  H522     1.0000 0.36460  0.18110  0.90320  Biso   1.000  H
  H523     1.0000 0.44030  0.07720  0.84560  Biso   1.000  H
  H524     1.0000 0.43130  0.96170  0.03430  Biso   1.000  H
  H525     1.0000 0.47460  0.95360  0.05910  Biso   1.000  H
  H526     1.0000 0.36990  0.94570  0.17560  Biso   1.000  H
  H527     1.0000 0.38410  0.81050  0.17660  Biso   1.000  H
  H528     1.0000 0.43130  0.81740  0.10870  Biso   1.000  H
  H529     1.0000 0.44550  0.88840  0.07090  Biso   1.000  H
  H530     1.0000 0.91680  0.27690  0.15490  Biso   1.000  H
  H531     1.0000 0.98880  0.23760  0.04000  Biso   1.000  H
  H532     1.0000 0.05540  0.23870  0.06680  Biso   1.000  H
  H533     1.0000 0.05290  0.26060  0.13740  Biso   1.000  H
  H534     1.0000 0.85580  0.26490  0.12110  Biso   1.000  H
  H535     1.0000 0.87390  0.31090  0.09960  Biso   1.000  H
  H536     1.0000 0.78700  0.19890  0.08910  Biso   1.000  H
  H537     1.0000 0.82880  0.21150  0.10670  Biso   1.000  H
  H538     1.0000 0.77910  0.22860  0.12850  Biso   1.000  H
  H539     1.0000 0.69370  0.32250  0.00060  Biso   1.000  H
  H540     1.0000 0.71350  0.36820  0.98220  Biso   1.000  H
  H541     1.0000 0.72590  0.32750  0.95380  Biso   1.000  H
  H542     1.0000 0.86610  0.38500  0.00780  Biso   1.000  H
  H543     1.0000 0.89220  0.34640  0.03980  Biso   1.000  H
  H544     1.0000 0.89610  0.34320  0.98780  Biso   1.000  H
  H545     1.0000 0.70410  0.47880  0.99290  Biso   1.000  H
  H546     1.0000 0.67980  0.54290  0.94800  Biso   1.000  H
  H547     1.0000 0.70970  0.55590  0.87180  Biso   1.000  H
  H548     1.0000 0.79820  0.44100  0.88890  Biso   1.000  H
  H549     1.0000 0.69110  0.28280  0.06150  Biso   1.000  H
  H550     1.0000 0.71810  0.23660  0.08190  Biso   1.000  H
  H551     1.0000 0.63570  0.24820  0.08130  Biso   1.000  H
  H552     1.0000 0.54390  0.22330  0.01200  Biso   1.000  H
  H553     1.0000 0.60020  0.21030  0.95190  Biso   1.000  H
  H554     1.0000 0.67620  0.21740  0.95430  Biso   1.000  H
  H555     1.0000 0.79030  0.37330  0.93390  Biso   1.000  H
  H556     1.0000 0.83020  0.38890  0.95220  Biso   1.000  H
  H557     1.0000 0.36170  0.17210  0.77230  Biso   1.000  H
  H558     1.0000 0.41530  0.10760  0.77720  Biso   1.000  H
  H559     1.0000 0.92930  0.61670  0.62890  Biso   1.000  H
  H560     1.0000 0.94700  0.64340  0.66130  Biso   1.000  H
  H561     1.0000 0.93510  0.59420  0.67890  Biso   1.000  H
  H562     1.0000 0.84870  0.70260  0.69140  Biso   1.000  H
  H563     1.0000 0.88830  0.70540  0.65020  Biso   1.000  H
  H564     1.0000 0.84110  0.69390  0.64350  Biso   1.000  H
  H565     1.0000 0.81330  0.64680  0.75110  Biso   1.000  H
  H566     1.0000 0.79430  0.65350  0.70460  Biso   1.000  H
  H567     1.0000 0.79300  0.60710  0.73730  Biso   1.000  H
  H568     1.0000 0.78010  0.42430  0.38200  Biso   1.000  H
  H569     1.0000 0.78040  0.48490  0.41980  Biso   1.000  H
  H570     1.0000 0.84860  0.50380  0.43080  Biso   1.000  H
  H571     1.0000 0.91660  0.39870  0.37010  Biso   1.000  H
  H572     1.0000 0.97750  0.44190  0.36590  Biso   1.000  H
  H573     1.0000 0.96940  0.40810  0.41140  Biso   1.000  H
  H574     1.0000 0.96890  0.42470  0.51860  Biso   1.000  H
  H575     1.0000 0.00440  0.38300  0.50470  Biso   1.000  H
  H576     1.0000 0.96380  0.40170  0.47710  Biso   1.000  H
  H577     1.0000 0.03930  0.49560  0.32000  Biso   1.000  H
  H578     1.0000 0.02030  0.54230  0.33760  Biso   1.000  H
  H579     1.0000 0.98800  0.50570  0.34140  Biso   1.000  H
  H580     1.0000 0.10510  0.52530  0.48430  Biso   1.000  H
  H581     1.0000 0.13800  0.50920  0.44200  Biso   1.000  H
  H582     1.0000 0.12980  0.47490  0.48690  Biso   1.000  H
  H583     1.0000 0.12610  0.52930  0.37830  Biso   1.000  H
  H584     1.0000 0.08890  0.54150  0.34540  Biso   1.000  H
  H585     1.0000 0.13540  0.59680  0.31890  Biso   1.000  H
  H586     1.0000 0.05970  0.65440  0.42280  Biso   1.000  H
  H587     1.0000 0.06870  0.46570  0.53830  Biso   1.000  H
  H588     1.0000 0.02540  0.44090  0.54640  Biso   1.000  H
  H589     1.0000 0.13010  0.32440  0.55430  Biso   1.000  H
  H590     1.0000 0.11590  0.32340  0.68950  Biso   1.000  H
  H591     1.0000 0.06870  0.39130  0.68260  Biso   1.000  H
  H592     1.0000 0.05450  0.42910  0.61160  Biso   1.000  H
  H593     1.0000 0.58320  0.34510  0.22310  Biso   1.000  H
  H594     1.0000 0.51120  0.46000  0.26240  Biso   1.000  H
  H595     1.0000 0.44460  0.43320  0.26130  Biso   1.000  H
  H596     1.0000 0.44710  0.36260  0.23940  Biso   1.000  H
  H597     1.0000 0.64420  0.37890  0.23510  Biso   1.000  H
  H598     1.0000 0.62610  0.40040  0.18910  Biso   1.000  H
  H599     1.0000 0.71300  0.41090  0.30110  Biso   1.000  H
  H600     1.0000 0.67120  0.39330  0.28850  Biso   1.000  H
  H601     1.0000 0.72090  0.37150  0.27140  Biso   1.000  H
  H602     1.0000 0.80630  0.49940  0.17750  Biso   1.000  H
  H603     1.0000 0.78650  0.51780  0.13180  Biso   1.000  H
  H604     1.0000 0.77410  0.54620  0.17250  Biso   1.000  H
  H605     1.0000 0.63390  0.49220  0.11500  Biso   1.000  H
  H606     1.0000 0.60780  0.46020  0.15360  Biso   1.000  H
  H607     1.0000 0.60390  0.51220  0.15680  Biso   1.000  H
  H608     1.0000 0.79590  0.50710  0.02120  Biso   1.000  H
  H609     1.0000 0.82020  0.55200  0.95710  Biso   1.000  H
  H610     1.0000 0.79030  0.62820  0.94410  Biso   1.000  H
  H611     1.0000 0.70180  0.61110  0.05900  Biso   1.000  H
  H612     1.0000 0.80890  0.43850  0.21720  Biso   1.000  H
  H613     1.0000 0.78190  0.41810  0.26340  Biso   1.000  H
  H614     1.0000 0.86430  0.41870  0.25180  Biso   1.000  H
  H615     1.0000 0.95610  0.48800  0.27670  Biso   1.000  H
  H616     1.0000 0.89980  0.54810  0.28970  Biso   1.000  H
  H617     1.0000 0.82380  0.54570  0.28260  Biso   1.000  H
  H618     1.0000 0.70970  0.56610  0.12670  Biso   1.000  H
  H619     1.0000 0.66980  0.54780  0.11110  Biso   1.000  H
  H620     1.0000 0.13830  0.72770  0.32790  Biso   1.000  H
  H621     1.0000 0.08470  0.72280  0.39240  Biso   1.000  H
  H622     1.0000 0.57070  0.87110  0.88330  Biso   1.000  H
  H623     1.0000 0.55300  0.83870  0.85660  Biso   1.000  H
  H624     1.0000 0.56490  0.82110  0.90580  Biso   1.000  H
  H625     1.0000 0.65130  0.80860  0.79740  Biso   1.000  H
  H626     1.0000 0.61170  0.84980  0.79460  Biso   1.000  H
  H627     1.0000 0.65890  0.85650  0.80610  Biso   1.000  H
  H628     1.0000 0.68670  0.74890  0.85320  Biso   1.000  H
  H629     1.0000 0.70570  0.79540  0.84650  Biso   1.000  H
  H630     1.0000 0.70700  0.76270  0.89290  Biso   1.000  H
  H631     1.0000 0.42430  0.38200  0.78010  Biso   1.000  H
  H632     1.0000 0.48490  0.41980  0.78040  Biso   1.000  H
  H633     1.0000 0.50380  0.43080  0.84860  Biso   1.000  H
  H634     1.0000 0.39870  0.37010  0.91660  Biso   1.000  H
  H635     1.0000 0.44190  0.36590  0.97750  Biso   1.000  H
  H636     1.0000 0.40810  0.41140  0.96940  Biso   1.000  H
  H637     1.0000 0.42470  0.51860  0.96890  Biso   1.000  H
  H638     1.0000 0.38300  0.50470  0.00440  Biso   1.000  H
  H639     1.0000 0.40170  0.47710  0.96380  Biso   1.000  H
  H640     1.0000 0.49560  0.32000  0.03930  Biso   1.000  H
  H641     1.0000 0.54230  0.33760  0.02030  Biso   1.000  H
  H642     1.0000 0.50570  0.34140  0.98800  Biso   1.000  H
  H643     1.0000 0.52530  0.48430  0.10510  Biso   1.000  H
  H644     1.0000 0.50920  0.44200  0.13800  Biso   1.000  H
  H645     1.0000 0.47490  0.48690  0.12980  Biso   1.000  H
  H646     1.0000 0.52930  0.37830  0.12610  Biso   1.000  H
  H647     1.0000 0.54150  0.34540  0.08890  Biso   1.000  H
  H648     1.0000 0.59680  0.31890  0.13540  Biso   1.000  H
  H649     1.0000 0.65440  0.42280  0.05970  Biso   1.000  H
  H650     1.0000 0.46570  0.53830  0.06870  Biso   1.000  H
  H651     1.0000 0.44090  0.54640  0.02540  Biso   1.000  H
  H652     1.0000 0.32440  0.55430  0.13010  Biso   1.000  H
  H653     1.0000 0.32340  0.68950  0.11590  Biso   1.000  H
  H654     1.0000 0.39130  0.68260  0.06870  Biso   1.000  H
  H655     1.0000 0.42910  0.61160  0.05450  Biso   1.000  H
  H656     1.0000 0.34510  0.22310  0.58320  Biso   1.000  H
  H657     1.0000 0.46000  0.26240  0.51120  Biso   1.000  H
  H658     1.0000 0.43320  0.26130  0.44460  Biso   1.000  H
  H659     1.0000 0.36260  0.23940  0.44710  Biso   1.000  H
  H660     1.0000 0.37890  0.23510  0.64420  Biso   1.000  H
  H661     1.0000 0.40040  0.18910  0.62610  Biso   1.000  H
  H662     1.0000 0.41090  0.30110  0.71300  Biso   1.000  H
  H663     1.0000 0.39330  0.28850  0.67120  Biso   1.000  H
  H664     1.0000 0.37150  0.27140  0.72090  Biso   1.000  H
  H665     1.0000 0.49940  0.17750  0.80630  Biso   1.000  H
  H666     1.0000 0.51780  0.13180  0.78650  Biso   1.000  H
  H667     1.0000 0.54620  0.17250  0.77410  Biso   1.000  H
  H668     1.0000 0.49220  0.11500  0.63390  Biso   1.000  H
  H669     1.0000 0.46020  0.15360  0.60780  Biso   1.000  H
  H670     1.0000 0.51220  0.15680  0.60390  Biso   1.000  H
  H671     1.0000 0.50710  0.02120  0.79590  Biso   1.000  H
  H672     1.0000 0.55200  0.95710  0.82020  Biso   1.000  H
  H673     1.0000 0.62820  0.94410  0.79030  Biso   1.000  H
  H674     1.0000 0.61110  0.05900  0.70180  Biso   1.000  H
  H675     1.0000 0.43850  0.21720  0.80890  Biso   1.000  H
  H676     1.0000 0.41810  0.26340  0.78190  Biso   1.000  H
  H677     1.0000 0.41870  0.25180  0.86430  Biso   1.000  H
  H678     1.0000 0.48800  0.27670  0.95610  Biso   1.000  H
  H679     1.0000 0.54810  0.28970  0.89980  Biso   1.000  H
  H680     1.0000 0.54570  0.28260  0.82380  Biso   1.000  H
  H681     1.0000 0.56610  0.12670  0.70970  Biso   1.000  H
  H682     1.0000 0.54780  0.11110  0.66980  Biso   1.000  H
  H683     1.0000 0.72770  0.32790  0.13830  Biso   1.000  H
  H684     1.0000 0.72280  0.39240  0.08470  Biso   1.000  H
  H685     1.0000 0.87110  0.88330  0.57070  Biso   1.000  H
  H686     1.0000 0.83870  0.85660  0.55300  Biso   1.000  H
  H687     1.0000 0.82110  0.90580  0.56490  Biso   1.000  H
  H688     1.0000 0.80860  0.79740  0.65130  Biso   1.000  H
  H689     1.0000 0.84980  0.79460  0.61170  Biso   1.000  H
  H690     1.0000 0.85650  0.80610  0.65890  Biso   1.000  H
  H691     1.0000 0.74890  0.85320  0.68670  Biso   1.000  H
  H692     1.0000 0.79540  0.84650  0.70570  Biso   1.000  H
  H693     1.0000 0.76270  0.89290  0.70700  Biso   1.000  H
  H694     1.0000 0.38200  0.78010  0.42430  Biso   1.000  H
  H695     1.0000 0.41980  0.78040  0.48490  Biso   1.000  H
  H696     1.0000 0.43080  0.84860  0.50380  Biso   1.000  H
  H697     1.0000 0.37010  0.91660  0.39870  Biso   1.000  H
  H698     1.0000 0.36590  0.97750  0.44190  Biso   1.000  H
  H699     1.0000 0.41140  0.96940  0.40810  Biso   1.000  H
  H700     1.0000 0.51860  0.96890  0.42470  Biso   1.000  H
  H701     1.0000 0.50470  0.00440  0.38300  Biso   1.000  H
  H702     1.0000 0.47710  0.96380  0.40170  Biso   1.000  H
  H703     1.0000 0.32000  0.03930  0.49560  Biso   1.000  H
  H704     1.0000 0.33760  0.02030  0.54230  Biso   1.000  H
  H705     1.0000 0.34140  0.98800  0.50570  Biso   1.000  H
  H706     1.0000 0.48430  0.10510  0.52530  Biso   1.000  H
  H707     1.0000 0.44200  0.13800  0.50920  Biso   1.000  H
  H708     1.0000 0.48690  0.12980  0.47490  Biso   1.000  H
  H709     1.0000 0.37830  0.12610  0.52930  Biso   1.000  H
  H710     1.0000 0.34540  0.08890  0.54150  Biso   1.000  H
  H711     1.0000 0.31890  0.13540  0.59680  Biso   1.000  H
  H712     1.0000 0.42280  0.05970  0.65440  Biso   1.000  H
  H713     1.0000 0.53830  0.06870  0.46570  Biso   1.000  H
  H714     1.0000 0.54640  0.02540  0.44090  Biso   1.000  H
  H715     1.0000 0.55430  0.13010  0.32440  Biso   1.000  H
  H716     1.0000 0.68950  0.11590  0.32340  Biso   1.000  H
  H717     1.0000 0.68260  0.06870  0.39130  Biso   1.000  H
  H718     1.0000 0.61160  0.05450  0.42910  Biso   1.000  H
  H719     1.0000 0.22310  0.58320  0.34510  Biso   1.000  H
  H720     1.0000 0.26240  0.51120  0.46000  Biso   1.000  H
  H721     1.0000 0.26130  0.44460  0.43320  Biso   1.000  H
  H722     1.0000 0.23940  0.44710  0.36260  Biso   1.000  H
  H723     1.0000 0.23510  0.64420  0.37890  Biso   1.000  H
  H724     1.0000 0.18910  0.62610  0.40040  Biso   1.000  H
  H725     1.0000 0.30110  0.71300  0.41090  Biso   1.000  H
  H726     1.0000 0.28850  0.67120  0.39330  Biso   1.000  H
  H727     1.0000 0.27140  0.72090  0.37150  Biso   1.000  H
  H728     1.0000 0.17750  0.80630  0.49940  Biso   1.000  H
  H729     1.0000 0.13180  0.78650  0.51780  Biso   1.000  H
  H730     1.0000 0.17250  0.77410  0.54620  Biso   1.000  H
  H731     1.0000 0.11500  0.63390  0.49220  Biso   1.000  H
  H732     1.0000 0.15360  0.60780  0.46020  Biso   1.000  H
  H733     1.0000 0.15680  0.60390  0.51220  Biso   1.000  H
  H734     1.0000 0.02120  0.79590  0.50710  Biso   1.000  H
  H735     1.0000 0.95710  0.82020  0.55200  Biso   1.000  H
  H736     1.0000 0.94410  0.79030  0.62820  Biso   1.000  H
  H737     1.0000 0.05900  0.70180  0.61110  Biso   1.000  H
  H738     1.0000 0.21720  0.80890  0.43850  Biso   1.000  H
  H739     1.0000 0.26340  0.78190  0.41810  Biso   1.000  H
  H740     1.0000 0.25180  0.86430  0.41870  Biso   1.000  H
  H741     1.0000 0.27670  0.95610  0.48800  Biso   1.000  H
  H742     1.0000 0.28970  0.89980  0.54810  Biso   1.000  H
  H743     1.0000 0.28260  0.82380  0.54570  Biso   1.000  H
  H744     1.0000 0.12670  0.70970  0.56610  Biso   1.000  H
  H745     1.0000 0.11110  0.66980  0.54780  Biso   1.000  H
  H746     1.0000 0.32790  0.13830  0.72770  Biso   1.000  H
  H747     1.0000 0.39240  0.08470  0.72280  Biso   1.000  H
  H748     1.0000 0.88330  0.57070  0.87110  Biso   1.000  H
  H749     1.0000 0.85660  0.55300  0.83870  Biso   1.000  H
  H750     1.0000 0.90580  0.56490  0.82110  Biso   1.000  H
  H751     1.0000 0.79740  0.65130  0.80860  Biso   1.000  H
  H752     1.0000 0.79460  0.61170  0.84980  Biso   1.000  H
  H753     1.0000 0.80610  0.65890  0.85650  Biso   1.000  H
  H754     1.0000 0.85320  0.68670  0.74890  Biso   1.000  H
  H755     1.0000 0.84650  0.70570  0.79540  Biso   1.000  H
  H756     1.0000 0.89290  0.70700  0.76270  Biso   1.000  H
  C1       1.0000 0.90505  0.34768  0.87315  Biso   1.000  C
  C2       1.0000 0.93121  0.30749  0.88736  Biso   1.000  C
  C3       1.0000 0.96774  0.30761  0.90948  Biso   1.000  C
  C4       1.0000 0.97883  0.34841  0.91633  Biso   1.000  C
  C5       1.0000 0.95303  0.38893  0.90179  Biso   1.000  C
  C6       1.0000 0.91602  0.38915  0.87999  Biso   1.000  C
  C7       1.0000 0.86501  0.34851  0.84882  Biso   1.000  C
  C8       1.0000 0.98992  0.53085  0.88981  Biso   1.000  C
  C9       1.0000 0.00412  0.56661  0.90624  Biso   1.000  C
  C10      1.0000 0.98655  0.57633  0.95054  Biso   1.000  C
  C11      1.0000 0.95742  0.54890  0.97845  Biso   1.000  C
  C12      1.0000 0.93980  0.47039  0.89881  Biso   1.000  C
  C13      1.0000 0.90989  0.48507  0.99348  Biso   1.000  C
  C14      1.0000 0.01026  0.51840  0.84289  Biso   1.000  C
  C15      1.0000 0.00023  0.61580  0.96747  Biso   1.000  C
  C16      1.0000 0.03839  0.59377  0.87688  Biso   1.000  C
  C17      1.0000 0.94220  0.51402  0.96195  Biso   1.000  C
  C18      1.0000 0.16337  0.64086  0.81584  Biso   1.000  C
  C19      1.0000 0.12205  0.62554  0.83393  Biso   1.000  C
  C20      1.0000 0.15654  0.58031  0.89609  Biso   1.000  C
  C21      1.0000 0.16849  0.66761  0.76978  Biso   1.000  C
  C22      1.0000 0.94319  0.55474  0.02791  Biso   1.000  C
  C23      1.0000 0.88027  0.59091  0.07572  Biso   1.000  C
  C24      1.0000 0.83835  0.61825  0.08001  Biso   1.000  C
  C25      1.0000 0.81715  0.62815  0.12245  Biso   1.000  C
  C26      1.0000 0.83755  0.60942  0.16092  Biso   1.000  C
  C27      1.0000 0.87825  0.58169  0.15662  Biso   1.000  C
  C28      1.0000 0.90078  0.57256  0.11427  Biso   1.000  C
  C29      1.0000 0.77161  0.65825  0.12694  Biso   1.000  C
  C30      1.0000 0.80173  0.01618  0.71454  Biso   1.000  C
  C31      1.0000 0.84686  0.01471  0.72998  Biso   1.000  C
  C32      1.0000 0.86293  0.05534  0.73034  Biso   1.000  C
  C33      1.0000 0.90598  0.05349  0.74161  Biso   1.000  C
  C34      1.0000 0.93159  0.01212  0.75371  Biso   1.000  C
  C35      1.0000 0.91566  0.97246  0.75326  Biso   1.000  C
  C36      1.0000 0.87322  0.97404  0.74060  Biso   1.000  C
  C37      1.0000 0.11860  0.59591  0.87427  Biso   1.000  C
  C38      1.0000 0.90720  0.13195  0.71776  Biso   1.000  C
  C39      1.0000 0.94054  0.16690  0.70842  Biso   1.000  C
  C40      1.0000 0.93426  0.20262  0.73499  Biso   1.000  C
  C41      1.0000 0.89929  0.20186  0.77792  Biso   1.000  C
  C42      1.0000 0.95868  0.23955  0.72092  Biso   1.000  C
  C43      1.0000 0.99184  0.24001  0.68211  Biso   1.000  C
  C44      1.0000 0.01598  0.28028  0.66438  Biso   1.000  C
  C45      1.0000 0.97650  0.16450  0.67219  Biso   1.000  C
  C46      1.0000 0.98615  0.12389  0.64711  Biso   1.000  C
  C47      1.0000 0.05405  0.24451  0.54589  Biso   1.000  C
  C48      1.0000 0.03701  0.28181  0.51531  Biso   1.000  C
  C49      1.0000 0.06400  0.29670  0.47790  Biso   1.000  C
  C50      1.0000 0.10939  0.27809  0.46939  Biso   1.000  C
  C51      1.0000 0.12610  0.24158  0.49882  Biso   1.000  C
  C52      1.0000 0.09905  0.22534  0.53806  Biso   1.000  C
  C53      1.0000 0.94519  0.28378  0.74106  Biso   1.000  C
  C54      1.0000 0.98138  0.33568  0.76619  Biso   1.000  C
  C55      1.0000 0.94517  0.37102  0.75971  Biso   1.000  C
  C56      1.0000 0.98579  0.42609  0.77469  Biso   1.000  C
  C57      1.0000 0.02209  0.39219  0.78189  Biso   1.000  C
  C58      1.0000 0.94732  0.41582  0.76469  Biso   1.000  C
  C59      1.0000 0.02091  0.34621  0.77781  Biso   1.000  C
  C60      1.0000 0.00199  0.20035  0.65948  Biso   1.000  C
  C61      1.0000 0.90605  0.45125  0.75745  Biso   1.000  C
  C62      1.0000 0.03938  0.20025  0.61916  Biso   1.000  C
  C63      1.0000 0.95747  0.50628  0.91716  Biso   1.000  C
  C64      1.0000 0.20049  0.62671  0.83886  Biso   1.000  C
  C65      1.0000 0.19727  0.59538  0.87806  Biso   1.000  C
  C66      1.0000 0.29694  0.14334  0.38584  Biso   1.000  C
  C67      1.0000 0.34010  0.07310  0.37770  Biso   1.000  C
  C68      1.0000 0.33570  0.13710  0.31000  Biso   1.000  C
  C69      1.0000 0.27390  0.18990  0.36790  Biso   1.000  C
  C70      1.0000 0.17310  0.21810  0.48850  Biso   1.000  C
  C71      1.0000 0.87315  0.90505  0.34768  Biso   1.000  C
  C72      1.0000 0.88736  0.93121  0.30749  Biso   1.000  C
  C73      1.0000 0.90948  0.96774  0.30761  Biso   1.000  C
  C74      1.0000 0.91633  0.97883  0.34841  Biso   1.000  C
  C75      1.0000 0.90179  0.95303  0.38893  Biso   1.000  C
  C76      1.0000 0.87999  0.91602  0.38915  Biso   1.000  C
  C77      1.0000 0.84882  0.86501  0.34851  Biso   1.000  C
  C78      1.0000 0.88981  0.98992  0.53085  Biso   1.000  C
  C79      1.0000 0.90624  0.00412  0.56661  Biso   1.000  C
  C80      1.0000 0.95054  0.98655  0.57633  Biso   1.000  C
  C81      1.0000 0.97845  0.95742  0.54890  Biso   1.000  C
  C82      1.0000 0.89881  0.93980  0.47039  Biso   1.000  C
  C83      1.0000 0.99348  0.90989  0.48507  Biso   1.000  C
  C84      1.0000 0.84289  0.01026  0.51840  Biso   1.000  C
  C85      1.0000 0.96747  0.00023  0.61580  Biso   1.000  C
  C86      1.0000 0.87688  0.03839  0.59377  Biso   1.000  C
  C87      1.0000 0.96195  0.94220  0.51402  Biso   1.000  C
  C88      1.0000 0.81584  0.16337  0.64086  Biso   1.000  C
  C89      1.0000 0.83393  0.12205  0.62554  Biso   1.000  C
  C90      1.0000 0.89609  0.15654  0.58031  Biso   1.000  C
  C91      1.0000 0.76978  0.16849  0.66761  Biso   1.000  C
  C92      1.0000 0.02791  0.94319  0.55474  Biso   1.000  C
  C93      1.0000 0.07572  0.88027  0.59091  Biso   1.000  C
  C94      1.0000 0.08001  0.83835  0.61825  Biso   1.000  C
  C95      1.0000 0.12245  0.81715  0.62815  Biso   1.000  C
  C96      1.0000 0.16092  0.83755  0.60942  Biso   1.000  C
  C97      1.0000 0.15662  0.87825  0.58169  Biso   1.000  C
  C98      1.0000 0.11427  0.90078  0.57256  Biso   1.000  C
  C99      1.0000 0.12694  0.77161  0.65825  Biso   1.000  C
  C100     1.0000 0.71454  0.80173  0.01618  Biso   1.000  C
  C101     1.0000 0.72998  0.84686  0.01471  Biso   1.000  C
  C102     1.0000 0.73034  0.86293  0.05534  Biso   1.000  C
  C103     1.0000 0.74161  0.90598  0.05349  Biso   1.000  C
  C104     1.0000 0.75371  0.93159  0.01212  Biso   1.000  C
  C105     1.0000 0.75326  0.91566  0.97246  Biso   1.000  C
  C106     1.0000 0.74060  0.87322  0.97404  Biso   1.000  C
  C107     1.0000 0.87427  0.11860  0.59591  Biso   1.000  C
  C108     1.0000 0.71776  0.90720  0.13195  Biso   1.000  C
  C109     1.0000 0.70842  0.94054  0.16690  Biso   1.000  C
  C110     1.0000 0.73499  0.93426  0.20262  Biso   1.000  C
  C111     1.0000 0.77792  0.89929  0.20186  Biso   1.000  C
  C112     1.0000 0.72092  0.95868  0.23955  Biso   1.000  C
  C113     1.0000 0.68211  0.99184  0.24001  Biso   1.000  C
  C114     1.0000 0.66438  0.01598  0.28028  Biso   1.000  C
  C115     1.0000 0.67219  0.97650  0.16450  Biso   1.000  C
  C116     1.0000 0.64711  0.98615  0.12389  Biso   1.000  C
  C117     1.0000 0.54589  0.05405  0.24451  Biso   1.000  C
  C118     1.0000 0.51531  0.03701  0.28181  Biso   1.000  C
  C119     1.0000 0.47790  0.06400  0.29670  Biso   1.000  C
  C120     1.0000 0.46939  0.10939  0.27809  Biso   1.000  C
  C121     1.0000 0.49882  0.12610  0.24158  Biso   1.000  C
  C122     1.0000 0.53806  0.09905  0.22534  Biso   1.000  C
  C123     1.0000 0.74106  0.94519  0.28378  Biso   1.000  C
  C124     1.0000 0.76619  0.98138  0.33568  Biso   1.000  C
  C125     1.0000 0.75971  0.94517  0.37102  Biso   1.000  C
  C126     1.0000 0.77469  0.98579  0.42609  Biso   1.000  C
  C127     1.0000 0.78189  0.02209  0.39219  Biso   1.000  C
  C128     1.0000 0.76469  0.94732  0.41582  Biso   1.000  C
  C129     1.0000 0.77781  0.02091  0.34621  Biso   1.000  C
  C130     1.0000 0.65948  0.00199  0.20035  Biso   1.000  C
  C131     1.0000 0.75745  0.90605  0.45125  Biso   1.000  C
  C132     1.0000 0.61916  0.03938  0.20025  Biso   1.000  C
  C133     1.0000 0.91716  0.95747  0.50628  Biso   1.000  C
  C134     1.0000 0.83886  0.20049  0.62671  Biso   1.000  C
  C135     1.0000 0.87806  0.19727  0.59538  Biso   1.000  C
  C136     1.0000 0.38584  0.29694  0.14334  Biso   1.000  C
  C137     1.0000 0.37770  0.34010  0.07310  Biso   1.000  C
  C138     1.0000 0.31000  0.33570  0.13710  Biso   1.000  C
  C139     1.0000 0.36790  0.27390  0.18990  Biso   1.000  C
  C140     1.0000 0.48850  0.17310  0.21810  Biso   1.000  C
  C141     1.0000 0.34768  0.87315  0.90505  Biso   1.000  C
  C142     1.0000 0.30749  0.88736  0.93121  Biso   1.000  C
  C143     1.0000 0.30761  0.90948  0.96774  Biso   1.000  C
  C144     1.0000 0.34841  0.91633  0.97883  Biso   1.000  C
  C145     1.0000 0.38893  0.90179  0.95303  Biso   1.000  C
  C146     1.0000 0.38915  0.87999  0.91602  Biso   1.000  C
  C147     1.0000 0.34851  0.84882  0.86501  Biso   1.000  C
  C148     1.0000 0.53085  0.88981  0.98992  Biso   1.000  C
  C149     1.0000 0.56661  0.90624  0.00412  Biso   1.000  C
  C150     1.0000 0.57633  0.95054  0.98655  Biso   1.000  C
  C151     1.0000 0.54890  0.97845  0.95742  Biso   1.000  C
  C152     1.0000 0.47039  0.89881  0.93980  Biso   1.000  C
  C153     1.0000 0.48507  0.99348  0.90989  Biso   1.000  C
  C154     1.0000 0.51840  0.84289  0.01026  Biso   1.000  C
  C155     1.0000 0.61580  0.96747  0.00023  Biso   1.000  C
  C156     1.0000 0.59377  0.87688  0.03839  Biso   1.000  C
  C157     1.0000 0.51402  0.96195  0.94220  Biso   1.000  C
  C158     1.0000 0.64086  0.81584  0.16337  Biso   1.000  C
  C159     1.0000 0.62554  0.83393  0.12205  Biso   1.000  C
  C160     1.0000 0.58031  0.89609  0.15654  Biso   1.000  C
  C161     1.0000 0.66761  0.76978  0.16849  Biso   1.000  C
  C162     1.0000 0.55474  0.02791  0.94319  Biso   1.000  C
  C163     1.0000 0.59091  0.07572  0.88027  Biso   1.000  C
  C164     1.0000 0.61825  0.08001  0.83835  Biso   1.000  C
  C165     1.0000 0.62815  0.12245  0.81715  Biso   1.000  C
  C166     1.0000 0.60942  0.16092  0.83755  Biso   1.000  C
  C167     1.0000 0.58169  0.15662  0.87825  Biso   1.000  C
  C168     1.0000 0.57256  0.11427  0.90078  Biso   1.000  C
  C169     1.0000 0.65825  0.12694  0.77161  Biso   1.000  C
  C170     1.0000 0.01618  0.71454  0.80173  Biso   1.000  C
  C171     1.0000 0.01471  0.72998  0.84686  Biso   1.000  C
  C172     1.0000 0.05534  0.73034  0.86293  Biso   1.000  C
  C173     1.0000 0.05349  0.74161  0.90598  Biso   1.000  C
  C174     1.0000 0.01212  0.75371  0.93159  Biso   1.000  C
  C175     1.0000 0.97246  0.75326  0.91566  Biso   1.000  C
  C176     1.0000 0.97404  0.74060  0.87322  Biso   1.000  C
  C177     1.0000 0.59591  0.87427  0.11860  Biso   1.000  C
  C178     1.0000 0.13195  0.71776  0.90720  Biso   1.000  C
  C179     1.0000 0.16690  0.70842  0.94054  Biso   1.000  C
  C180     1.0000 0.20262  0.73499  0.93426  Biso   1.000  C
  C181     1.0000 0.20186  0.77792  0.89929  Biso   1.000  C
  C182     1.0000 0.23955  0.72092  0.95868  Biso   1.000  C
  C183     1.0000 0.24001  0.68211  0.99184  Biso   1.000  C
  C184     1.0000 0.28028  0.66438  0.01598  Biso   1.000  C
  C185     1.0000 0.16450  0.67219  0.97650  Biso   1.000  C
  C186     1.0000 0.12389  0.64711  0.98615  Biso   1.000  C
  C187     1.0000 0.24451  0.54589  0.05405  Biso   1.000  C
  C188     1.0000 0.28181  0.51531  0.03701  Biso   1.000  C
  C189     1.0000 0.29670  0.47790  0.06400  Biso   1.000  C
  C190     1.0000 0.27809  0.46939  0.10939  Biso   1.000  C
  C191     1.0000 0.24158  0.49882  0.12610  Biso   1.000  C
  C192     1.0000 0.22534  0.53806  0.09905  Biso   1.000  C
  C193     1.0000 0.28378  0.74106  0.94519  Biso   1.000  C
  C194     1.0000 0.33568  0.76619  0.98138  Biso   1.000  C
  C195     1.0000 0.37102  0.75971  0.94517  Biso   1.000  C
  C196     1.0000 0.42609  0.77469  0.98579  Biso   1.000  C
  C197     1.0000 0.39219  0.78189  0.02209  Biso   1.000  C
  C198     1.0000 0.41582  0.76469  0.94732  Biso   1.000  C
  C199     1.0000 0.34621  0.77781  0.02091  Biso   1.000  C
  C200     1.0000 0.20035  0.65948  0.00199  Biso   1.000  C
  C201     1.0000 0.45125  0.75745  0.90605  Biso   1.000  C
  C202     1.0000 0.20025  0.61916  0.03938  Biso   1.000  C
  C203     1.0000 0.50628  0.91716  0.95747  Biso   1.000  C
  C204     1.0000 0.62671  0.83886  0.20049  Biso   1.000  C
  C205     1.0000 0.59538  0.87806  0.19727  Biso   1.000  C
  C206     1.0000 0.14334  0.38584  0.29694  Biso   1.000  C
  C207     1.0000 0.07310  0.37770  0.34010  Biso   1.000  C
  C208     1.0000 0.13710  0.31000  0.33570  Biso   1.000  C
  C209     1.0000 0.18990  0.36790  0.27390  Biso   1.000  C
  C210     1.0000 0.21810  0.48850  0.17310  Biso   1.000  C
  C211     1.0000 0.15232  0.59495  0.62685  Biso   1.000  C
  C212     1.0000 0.19251  0.56879  0.61264  Biso   1.000  C
  C213     1.0000 0.19239  0.53226  0.59052  Biso   1.000  C
  C214     1.0000 0.15159  0.52117  0.58367  Biso   1.000  C
  C215     1.0000 0.11107  0.54697  0.59821  Biso   1.000  C
  C216     1.0000 0.11085  0.58398  0.62001  Biso   1.000  C
  C217     1.0000 0.15149  0.63499  0.65118  Biso   1.000  C
  C218     1.0000 0.96915  0.51008  0.61019  Biso   1.000  C
  C219     1.0000 0.93339  0.49588  0.59376  Biso   1.000  C
  C220     1.0000 0.92367  0.51345  0.54946  Biso   1.000  C
  C221     1.0000 0.95110  0.54258  0.52155  Biso   1.000  C
  C222     1.0000 0.02961  0.56020  0.60119  Biso   1.000  C
  C223     1.0000 0.01493  0.59011  0.50652  Biso   1.000  C
  C224     1.0000 0.98160  0.48974  0.65711  Biso   1.000  C
  C225     1.0000 0.88420  0.49977  0.53253  Biso   1.000  C
  C226     1.0000 0.90623  0.46161  0.62312  Biso   1.000  C
  C227     1.0000 0.98598  0.55780  0.53805  Biso   1.000  C
  C228     1.0000 0.85914  0.33663  0.68416  Biso   1.000  C
  C229     1.0000 0.87446  0.37795  0.66607  Biso   1.000  C
  C230     1.0000 0.91969  0.34346  0.60391  Biso   1.000  C
  C231     1.0000 0.83239  0.33151  0.73022  Biso   1.000  C
  C232     1.0000 0.94526  0.55681  0.47209  Biso   1.000  C
  C233     1.0000 0.90909  0.61973  0.42428  Biso   1.000  C
  C234     1.0000 0.88175  0.66165  0.41999  Biso   1.000  C
  C235     1.0000 0.87185  0.68285  0.37755  Biso   1.000  C
  C236     1.0000 0.89058  0.66245  0.33908  Biso   1.000  C
  C237     1.0000 0.91831  0.62175  0.34338  Biso   1.000  C
  C238     1.0000 0.92744  0.59922  0.38573  Biso   1.000  C
  C239     1.0000 0.84175  0.72839  0.37306  Biso   1.000  C
  C240     1.0000 0.48382  0.69827  0.78546  Biso   1.000  C
  C241     1.0000 0.48529  0.65314  0.77002  Biso   1.000  C
  C242     1.0000 0.44466  0.63707  0.76966  Biso   1.000  C
  C243     1.0000 0.44651  0.59402  0.75839  Biso   1.000  C
  C244     1.0000 0.48788  0.56841  0.74629  Biso   1.000  C
  C245     1.0000 0.52754  0.58434  0.74674  Biso   1.000  C
  C246     1.0000 0.52596  0.62678  0.75940  Biso   1.000  C
  C247     1.0000 0.90409  0.38140  0.62573  Biso   1.000  C
  C248     1.0000 0.36805  0.59280  0.78224  Biso   1.000  C
  C249     1.0000 0.33310  0.55946  0.79158  Biso   1.000  C
  C250     1.0000 0.29738  0.56574  0.76501  Biso   1.000  C
  C251     1.0000 0.29814  0.60071  0.72208  Biso   1.000  C
  C252     1.0000 0.26045  0.54132  0.77908  Biso   1.000  C
  C253     1.0000 0.25999  0.50816  0.81789  Biso   1.000  C
  C254     1.0000 0.21972  0.48402  0.83562  Biso   1.000  C
  C255     1.0000 0.33550  0.52350  0.82781  Biso   1.000  C
  C256     1.0000 0.37611  0.51385  0.85289  Biso   1.000  C
  C257     1.0000 0.25549  0.44595  0.95411  Biso   1.000  C
  C258     1.0000 0.21819  0.46299  0.98469  Biso   1.000  C
  C259     1.0000 0.20330  0.43600  0.02210  Biso   1.000  C
  C260     1.0000 0.22191  0.39061  0.03061  Biso   1.000  C
  C261     1.0000 0.25842  0.37390  0.00118  Biso   1.000  C
  C262     1.0000 0.27466  0.40095  0.96194  Biso   1.000  C
  C263     1.0000 0.21622  0.55481  0.75894  Biso   1.000  C
  C264     1.0000 0.16432  0.51862  0.73381  Biso   1.000  C
  C265     1.0000 0.12898  0.55483  0.74029  Biso   1.000  C
  C266     1.0000 0.07391  0.51421  0.72531  Biso   1.000  C
  C267     1.0000 0.10781  0.47791  0.71811  Biso   1.000  C
  C268     1.0000 0.08418  0.55268  0.73531  Biso   1.000  C
  C269     1.0000 0.15379  0.47909  0.72219  Biso   1.000  C
  C270     1.0000 0.29965  0.49801  0.84052  Biso   1.000  C
  C271     1.0000 0.04875  0.59395  0.74255  Biso   1.000  C
  C272     1.0000 0.29975  0.46062  0.88084  Biso   1.000  C
  C273     1.0000 0.99372  0.54253  0.58284  Biso   1.000  C
  C274     1.0000 0.87329  0.29951  0.66114  Biso   1.000  C
  C275     1.0000 0.90462  0.30273  0.62194  Biso   1.000  C
  C276     1.0000 0.35666  0.20306  0.11416  Biso   1.000  C
  C277     1.0000 0.42690  0.15990  0.12230  Biso   1.000  C
  C278     1.0000 0.36290  0.16430  0.19000  Biso   1.000  C
  C279     1.0000 0.31010  0.22610  0.13210  Biso   1.000  C
  C280     1.0000 0.28190  0.32690  0.01150  Biso   1.000  C
  C281     1.0000 0.59495  0.62685  0.15232  Biso   1.000  C
  C282     1.0000 0.56879  0.61264  0.19251  Biso   1.000  C
  C283     1.0000 0.53226  0.59052  0.19239  Biso   1.000  C
  C284     1.0000 0.52117  0.58367  0.15159  Biso   1.000  C
  C285     1.0000 0.54697  0.59821  0.11107  Biso   1.000  C
  C286     1.0000 0.58398  0.62001  0.11085  Biso   1.000  C
  C287     1.0000 0.63499  0.65118  0.15149  Biso   1.000  C
  C288     1.0000 0.51008  0.61019  0.96915  Biso   1.000  C
  C289     1.0000 0.49588  0.59376  0.93339  Biso   1.000  C
  C290     1.0000 0.51345  0.54946  0.92367  Biso   1.000  C
  C291     1.0000 0.54258  0.52155  0.95110  Biso   1.000  C
  C292     1.0000 0.56020  0.60119  0.02961  Biso   1.000  C
  C293     1.0000 0.59011  0.50652  0.01493  Biso   1.000  C
  C294     1.0000 0.48974  0.65711  0.98160  Biso   1.000  C
  C295     1.0000 0.49977  0.53253  0.88420  Biso   1.000  C
  C296     1.0000 0.46161  0.62312  0.90623  Biso   1.000  C
  C297     1.0000 0.55780  0.53805  0.98598  Biso   1.000  C
  C298     1.0000 0.33663  0.68416  0.85914  Biso   1.000  C
  C299     1.0000 0.37795  0.66607  0.87446  Biso   1.000  C
  C300     1.0000 0.34346  0.60391  0.91969  Biso   1.000  C
  C301     1.0000 0.33151  0.73022  0.83239  Biso   1.000  C
  C302     1.0000 0.55681  0.47209  0.94526  Biso   1.000  C
  C303     1.0000 0.61973  0.42428  0.90909  Biso   1.000  C
  C304     1.0000 0.66165  0.41999  0.88175  Biso   1.000  C
  C305     1.0000 0.68285  0.37755  0.87185  Biso   1.000  C
  C306     1.0000 0.66245  0.33908  0.89058  Biso   1.000  C
  C307     1.0000 0.62175  0.34338  0.91831  Biso   1.000  C
  C308     1.0000 0.59922  0.38573  0.92744  Biso   1.000  C
  C309     1.0000 0.72839  0.37306  0.84175  Biso   1.000  C
  C310     1.0000 0.69827  0.78546  0.48382  Biso   1.000  C
  C311     1.0000 0.65314  0.77002  0.48529  Biso   1.000  C
  C312     1.0000 0.63707  0.76966  0.44466  Biso   1.000  C
  C313     1.0000 0.59402  0.75839  0.44651  Biso   1.000  C
  C314     1.0000 0.56841  0.74629  0.48788  Biso   1.000  C
  C315     1.0000 0.58434  0.74674  0.52754  Biso   1.000  C
  C316     1.0000 0.62678  0.75940  0.52596  Biso   1.000  C
  C317     1.0000 0.38140  0.62573  0.90409  Biso   1.000  C
  C318     1.0000 0.59280  0.78224  0.36805  Biso   1.000  C
  C319     1.0000 0.55946  0.79158  0.33310  Biso   1.000  C
  C320     1.0000 0.56574  0.76501  0.29738  Biso   1.000  C
  C321     1.0000 0.60071  0.72208  0.29814  Biso   1.000  C
  C322     1.0000 0.54132  0.77908  0.26045  Biso   1.000  C
  C323     1.0000 0.50816  0.81789  0.25999  Biso   1.000  C
  C324     1.0000 0.48402  0.83562  0.21972  Biso   1.000  C
  C325     1.0000 0.52350  0.82781  0.33550  Biso   1.000  C
  C326     1.0000 0.51385  0.85289  0.37611  Biso   1.000  C
  C327     1.0000 0.44595  0.95411  0.25549  Biso   1.000  C
  C328     1.0000 0.46299  0.98469  0.21819  Biso   1.000  C
  C329     1.0000 0.43600  0.02210  0.20330  Biso   1.000  C
  C330     1.0000 0.39061  0.03061  0.22191  Biso   1.000  C
  C331     1.0000 0.37390  0.00118  0.25842  Biso   1.000  C
  C332     1.0000 0.40095  0.96194  0.27466  Biso   1.000  C
  C333     1.0000 0.55481  0.75894  0.21622  Biso   1.000  C
  C334     1.0000 0.51862  0.73381  0.16432  Biso   1.000  C
  C335     1.0000 0.55483  0.74029  0.12898  Biso   1.000  C
  C336     1.0000 0.51421  0.72531  0.07391  Biso   1.000  C
  C337     1.0000 0.47791  0.71811  0.10781  Biso   1.000  C
  C338     1.0000 0.55268  0.73531  0.08418  Biso   1.000  C
  C339     1.0000 0.47909  0.72219  0.15379  Biso   1.000  C
  C340     1.0000 0.49801  0.84052  0.29965  Biso   1.000  C
  C341     1.0000 0.59395  0.74255  0.04875  Biso   1.000  C
  C342     1.0000 0.46062  0.88084  0.29975  Biso   1.000  C
  C343     1.0000 0.54253  0.58284  0.99372  Biso   1.000  C
  C344     1.0000 0.29951  0.66114  0.87329  Biso   1.000  C
  C345     1.0000 0.30273  0.62194  0.90462  Biso   1.000  C
  C346     1.0000 0.20306  0.11416  0.35666  Biso   1.000  C
  C347     1.0000 0.15990  0.12230  0.42690  Biso   1.000  C
  C348     1.0000 0.16430  0.19000  0.36290  Biso   1.000  C
  C349     1.0000 0.22610  0.13210  0.31010  Biso   1.000  C
  C350     1.0000 0.32690  0.01150  0.28190  Biso   1.000  C
  C351     1.0000 0.62685  0.15232  0.59495  Biso   1.000  C
  C352     1.0000 0.61264  0.19251  0.56879  Biso   1.000  C
  C353     1.0000 0.59052  0.19239  0.53226  Biso   1.000  C
  C354     1.0000 0.58367  0.15159  0.52117  Biso   1.000  C
  C355     1.0000 0.59821  0.11107  0.54697  Biso   1.000  C
  C356     1.0000 0.62001  0.11085  0.58398  Biso   1.000  C
  C357     1.0000 0.65118  0.15149  0.63499  Biso   1.000  C
  C358     1.0000 0.61019  0.96915  0.51008  Biso   1.000  C
  C359     1.0000 0.59376  0.93339  0.49588  Biso   1.000  C
  C360     1.0000 0.54946  0.92367  0.51345  Biso   1.000  C
  C361     1.0000 0.52155  0.95110  0.54258  Biso   1.000  C
  C362     1.0000 0.60119  0.02961  0.56020  Biso   1.000  C
  C363     1.0000 0.50652  0.01493  0.59011  Biso   1.000  C
  C364     1.0000 0.65711  0.98160  0.48974  Biso   1.000  C
  C365     1.0000 0.53253  0.88420  0.49977  Biso   1.000  C
  C366     1.0000 0.62312  0.90623  0.46161  Biso   1.000  C
  C367     1.0000 0.53805  0.98598  0.55780  Biso   1.000  C
  C368     1.0000 0.68416  0.85914  0.33663  Biso   1.000  C
  C369     1.0000 0.66607  0.87446  0.37795  Biso   1.000  C
  C370     1.0000 0.60391  0.91969  0.34346  Biso   1.000  C
  C371     1.0000 0.73022  0.83239  0.33151  Biso   1.000  C
  C372     1.0000 0.47209  0.94526  0.55681  Biso   1.000  C
  C373     1.0000 0.42428  0.90909  0.61973  Biso   1.000  C
  C374     1.0000 0.41999  0.88175  0.66165  Biso   1.000  C
  C375     1.0000 0.37755  0.87185  0.68285  Biso   1.000  C
  C376     1.0000 0.33908  0.89058  0.66245  Biso   1.000  C
  C377     1.0000 0.34338  0.91831  0.62175  Biso   1.000  C
  C378     1.0000 0.38573  0.92744  0.59922  Biso   1.000  C
  C379     1.0000 0.37306  0.84175  0.72839  Biso   1.000  C
  C380     1.0000 0.78546  0.48382  0.69827  Biso   1.000  C
  C381     1.0000 0.77002  0.48529  0.65314  Biso   1.000  C
  C382     1.0000 0.76966  0.44466  0.63707  Biso   1.000  C
  C383     1.0000 0.75839  0.44651  0.59402  Biso   1.000  C
  C384     1.0000 0.74629  0.48788  0.56841  Biso   1.000  C
  C385     1.0000 0.74674  0.52754  0.58434  Biso   1.000  C
  C386     1.0000 0.75940  0.52596  0.62678  Biso   1.000  C
  C387     1.0000 0.62573  0.90409  0.38140  Biso   1.000  C
  C388     1.0000 0.78224  0.36805  0.59280  Biso   1.000  C
  C389     1.0000 0.79158  0.33310  0.55946  Biso   1.000  C
  C390     1.0000 0.76501  0.29738  0.56574  Biso   1.000  C
  C391     1.0000 0.72208  0.29814  0.60071  Biso   1.000  C
  C392     1.0000 0.77908  0.26045  0.54132  Biso   1.000  C
  C393     1.0000 0.81789  0.25999  0.50816  Biso   1.000  C
  C394     1.0000 0.83562  0.21972  0.48402  Biso   1.000  C
  C395     1.0000 0.82781  0.33550  0.52350  Biso   1.000  C
  C396     1.0000 0.85289  0.37611  0.51385  Biso   1.000  C
  C397     1.0000 0.95411  0.25549  0.44595  Biso   1.000  C
  C398     1.0000 0.98469  0.21819  0.46299  Biso   1.000  C
  C399     1.0000 0.02210  0.20330  0.43600  Biso   1.000  C
  C400     1.0000 0.03061  0.22191  0.39061  Biso   1.000  C
  C401     1.0000 0.00118  0.25842  0.37390  Biso   1.000  C
  C402     1.0000 0.96194  0.27466  0.40095  Biso   1.000  C
  C403     1.0000 0.75894  0.21622  0.55481  Biso   1.000  C
  C404     1.0000 0.73381  0.16432  0.51862  Biso   1.000  C
  C405     1.0000 0.74029  0.12898  0.55483  Biso   1.000  C
  C406     1.0000 0.72531  0.07391  0.51421  Biso   1.000  C
  C407     1.0000 0.71811  0.10781  0.47791  Biso   1.000  C
  C408     1.0000 0.73531  0.08418  0.55268  Biso   1.000  C
  C409     1.0000 0.72219  0.15379  0.47909  Biso   1.000  C
  C410     1.0000 0.84052  0.29965  0.49801  Biso   1.000  C
  C411     1.0000 0.74255  0.04875  0.59395  Biso   1.000  C
  C412     1.0000 0.88084  0.29975  0.46062  Biso   1.000  C
  C413     1.0000 0.58284  0.99372  0.54253  Biso   1.000  C
  C414     1.0000 0.66114  0.87329  0.29951  Biso   1.000  C
  C415     1.0000 0.62194  0.90462  0.30273  Biso   1.000  C
  C416     1.0000 0.11416  0.35666  0.20306  Biso   1.000  C
  C417     1.0000 0.12230  0.42690  0.15990  Biso   1.000  C
  C418     1.0000 0.19000  0.36290  0.16430  Biso   1.000  C
  C419     1.0000 0.13210  0.31010  0.22610  Biso   1.000  C
  C420     1.0000 0.01150  0.28190  0.32690  Biso   1.000  C
  C421     1.0000 0.09495  0.65232  0.12685  Biso   1.000  C
  C422     1.0000 0.06879  0.69251  0.11264  Biso   1.000  C
  C423     1.0000 0.03226  0.69239  0.09052  Biso   1.000  C
  C424     1.0000 0.02117  0.65159  0.08367  Biso   1.000  C
  C425     1.0000 0.04697  0.61107  0.09821  Biso   1.000  C
  C426     1.0000 0.08398  0.61085  0.12001  Biso   1.000  C
  C427     1.0000 0.13499  0.65149  0.15118  Biso   1.000  C
  C428     1.0000 0.01008  0.46915  0.11019  Biso   1.000  C
  C429     1.0000 0.99588  0.43339  0.09376  Biso   1.000  C
  C430     1.0000 0.01345  0.42367  0.04946  Biso   1.000  C
  C431     1.0000 0.04258  0.45110  0.02155  Biso   1.000  C
  C432     1.0000 0.06020  0.52961  0.10119  Biso   1.000  C
  C433     1.0000 0.09011  0.51493  0.00652  Biso   1.000  C
  C434     1.0000 0.98974  0.48160  0.15711  Biso   1.000  C
  C435     1.0000 0.99977  0.38420  0.03253  Biso   1.000  C
  C436     1.0000 0.96161  0.40623  0.12312  Biso   1.000  C
  C437     1.0000 0.05780  0.48598  0.03805  Biso   1.000  C
  C438     1.0000 0.83663  0.35914  0.18416  Biso   1.000  C
  C439     1.0000 0.87795  0.37446  0.16607  Biso   1.000  C
  C440     1.0000 0.84346  0.41969  0.10391  Biso   1.000  C
  C441     1.0000 0.83151  0.33239  0.23022  Biso   1.000  C
  C442     1.0000 0.05681  0.44526  0.97209  Biso   1.000  C
  C443     1.0000 0.11973  0.40909  0.92428  Biso   1.000  C
  C444     1.0000 0.16165  0.38175  0.91999  Biso   1.000  C
  C445     1.0000 0.18285  0.37185  0.87755  Biso   1.000  C
  C446     1.0000 0.16245  0.39058  0.83908  Biso   1.000  C
  C447     1.0000 0.12175  0.41831  0.84338  Biso   1.000  C
  C448     1.0000 0.09922  0.42744  0.88573  Biso   1.000  C
  C449     1.0000 0.22839  0.34175  0.87306  Biso   1.000  C
  C450     1.0000 0.19827  0.98382  0.28546  Biso   1.000  C
  C451     1.0000 0.15314  0.98529  0.27002  Biso   1.000  C
  C452     1.0000 0.13707  0.94466  0.26966  Biso   1.000  C
  C453     1.0000 0.09402  0.94651  0.25839  Biso   1.000  C
  C454     1.0000 0.06841  0.98788  0.24629  Biso   1.000  C
  C455     1.0000 0.08434  0.02754  0.24674  Biso   1.000  C
  C456     1.0000 0.12678  0.02596  0.25940  Biso   1.000  C
  C457     1.0000 0.88140  0.40409  0.12573  Biso   1.000  C
  C458     1.0000 0.09280  0.86805  0.28224  Biso   1.000  C
  C459     1.0000 0.05946  0.83310  0.29158  Biso   1.000  C
  C460     1.0000 0.06574  0.79738  0.26501  Biso   1.000  C
  C461     1.0000 0.10071  0.79814  0.22208  Biso   1.000  C
  C462     1.0000 0.04132  0.76045  0.27908  Biso   1.000  C
  C463     1.0000 0.00816  0.75999  0.31789  Biso   1.000  C
  C464     1.0000 0.98402  0.71972  0.33562  Biso   1.000  C
  C465     1.0000 0.02350  0.83550  0.32781  Biso   1.000  C
  C466     1.0000 0.01385  0.87611  0.35289  Biso   1.000  C
  C467     1.0000 0.94595  0.75549  0.45411  Biso   1.000  C
  C468     1.0000 0.96299  0.71819  0.48469  Biso   1.000  C
  C469     1.0000 0.93600  0.70330  0.52210  Biso   1.000  C
  C470     1.0000 0.89061  0.72191  0.53061  Biso   1.000  C
  C471     1.0000 0.87390  0.75842  0.50118  Biso   1.000  C
  C472     1.0000 0.90095  0.77466  0.46194  Biso   1.000  C
  C473     1.0000 0.05481  0.71622  0.25894  Biso   1.000  C
  C474     1.0000 0.01862  0.66432  0.23381  Biso   1.000  C
  C475     1.0000 0.05483  0.62898  0.24029  Biso   1.000  C
  C476     1.0000 0.01421  0.57391  0.22531  Biso   1.000  C
  C477     1.0000 0.97791  0.60781  0.21811  Biso   1.000  C
  C478     1.0000 0.05268  0.58418  0.23531  Biso   1.000  C
  C479     1.0000 0.97909  0.65379  0.22219  Biso   1.000  C
  C480     1.0000 0.99801  0.79965  0.34052  Biso   1.000  C
  C481     1.0000 0.09395  0.54875  0.24255  Biso   1.000  C
  C482     1.0000 0.96062  0.79975  0.38084  Biso   1.000  C
  C483     1.0000 0.04253  0.49372  0.08284  Biso   1.000  C
  C484     1.0000 0.79951  0.37329  0.16114  Biso   1.000  C
  C485     1.0000 0.80273  0.40462  0.12194  Biso   1.000  C
  C486     1.0000 0.70306  0.85666  0.61416  Biso   1.000  C
  C487     1.0000 0.65990  0.92690  0.62230  Biso   1.000  C
  C488     1.0000 0.66430  0.86290  0.69000  Biso   1.000  C
  C489     1.0000 0.72610  0.81010  0.63210  Biso   1.000  C
  C490     1.0000 0.82690  0.78190  0.51150  Biso   1.000  C
  C491     1.0000 0.12685  0.09495  0.65232  Biso   1.000  C
  C492     1.0000 0.11264  0.06879  0.69251  Biso   1.000  C
  C493     1.0000 0.09052  0.03226  0.69239  Biso   1.000  C
  C494     1.0000 0.08367  0.02117  0.65159  Biso   1.000  C
  C495     1.0000 0.09821  0.04697  0.61107  Biso   1.000  C
  C496     1.0000 0.12001  0.08398  0.61085  Biso   1.000  C
  C497     1.0000 0.15118  0.13499  0.65149  Biso   1.000  C
  C498     1.0000 0.11019  0.01008  0.46915  Biso   1.000  C
  C499     1.0000 0.09376  0.99588  0.43339  Biso   1.000  C
  C500     1.0000 0.04946  0.01345  0.42367  Biso   1.000  C
  C501     1.0000 0.02155  0.04258  0.45110  Biso   1.000  C
  C502     1.0000 0.10119  0.06020  0.52961  Biso   1.000  C
  C503     1.0000 0.00652  0.09011  0.51493  Biso   1.000  C
  C504     1.0000 0.15711  0.98974  0.48160  Biso   1.000  C
  C505     1.0000 0.03253  0.99977  0.38420  Biso   1.000  C
  C506     1.0000 0.12312  0.96161  0.40623  Biso   1.000  C
  C507     1.0000 0.03805  0.05780  0.48598  Biso   1.000  C
  C508     1.0000 0.18416  0.83663  0.35914  Biso   1.000  C
  C509     1.0000 0.16607  0.87795  0.37446  Biso   1.000  C
  C510     1.0000 0.10391  0.84346  0.41969  Biso   1.000  C
  C511     1.0000 0.23022  0.83151  0.33239  Biso   1.000  C
  C512     1.0000 0.97209  0.05681  0.44526  Biso   1.000  C
  C513     1.0000 0.92428  0.11973  0.40909  Biso   1.000  C
  C514     1.0000 0.91999  0.16165  0.38175  Biso   1.000  C
  C515     1.0000 0.87755  0.18285  0.37185  Biso   1.000  C
  C516     1.0000 0.83908  0.16245  0.39058  Biso   1.000  C
  C517     1.0000 0.84338  0.12175  0.41831  Biso   1.000  C
  C518     1.0000 0.88573  0.09922  0.42744  Biso   1.000  C
  C519     1.0000 0.87306  0.22839  0.34175  Biso   1.000  C
  C520     1.0000 0.28546  0.19827  0.98382  Biso   1.000  C
  C521     1.0000 0.27002  0.15314  0.98529  Biso   1.000  C
  C522     1.0000 0.26966  0.13707  0.94466  Biso   1.000  C
  C523     1.0000 0.25839  0.09402  0.94651  Biso   1.000  C
  C524     1.0000 0.24629  0.06841  0.98788  Biso   1.000  C
  C525     1.0000 0.24674  0.08434  0.02754  Biso   1.000  C
  C526     1.0000 0.25940  0.12678  0.02596  Biso   1.000  C
  C527     1.0000 0.12573  0.88140  0.40409  Biso   1.000  C
  C528     1.0000 0.28224  0.09280  0.86805  Biso   1.000  C
  C529     1.0000 0.29158  0.05946  0.83310  Biso   1.000  C
  C530     1.0000 0.26501  0.06574  0.79738  Biso   1.000  C
  C531     1.0000 0.22208  0.10071  0.79814  Biso   1.000  C
  C532     1.0000 0.27908  0.04132  0.76045  Biso   1.000  C
  C533     1.0000 0.31789  0.00816  0.75999  Biso   1.000  C
  C534     1.0000 0.33562  0.98402  0.71972  Biso   1.000  C
  C535     1.0000 0.32781  0.02350  0.83550  Biso   1.000  C
  C536     1.0000 0.35289  0.01385  0.87611  Biso   1.000  C
  C537     1.0000 0.45411  0.94595  0.75549  Biso   1.000  C
  C538     1.0000 0.48469  0.96299  0.71819  Biso   1.000  C
  C539     1.0000 0.52210  0.93600  0.70330  Biso   1.000  C
  C540     1.0000 0.53061  0.89061  0.72191  Biso   1.000  C
  C541     1.0000 0.50118  0.87390  0.75842  Biso   1.000  C
  C542     1.0000 0.46194  0.90095  0.77466  Biso   1.000  C
  C543     1.0000 0.25894  0.05481  0.71622  Biso   1.000  C
  C544     1.0000 0.23381  0.01862  0.66432  Biso   1.000  C
  C545     1.0000 0.24029  0.05483  0.62898  Biso   1.000  C
  C546     1.0000 0.22531  0.01421  0.57391  Biso   1.000  C
  C547     1.0000 0.21811  0.97791  0.60781  Biso   1.000  C
  C548     1.0000 0.23531  0.05268  0.58418  Biso   1.000  C
  C549     1.0000 0.22219  0.97909  0.65379  Biso   1.000  C
  C550     1.0000 0.34052  0.99801  0.79965  Biso   1.000  C
  C551     1.0000 0.24255  0.09395  0.54875  Biso   1.000  C
  C552     1.0000 0.38084  0.96062  0.79975  Biso   1.000  C
  C553     1.0000 0.08284  0.04253  0.49372  Biso   1.000  C
  C554     1.0000 0.16114  0.79951  0.37329  Biso   1.000  C
  C555     1.0000 0.12194  0.80273  0.40462  Biso   1.000  C
  C556     1.0000 0.61416  0.70306  0.85666  Biso   1.000  C
  C557     1.0000 0.62230  0.65990  0.92690  Biso   1.000  C
  C558     1.0000 0.69000  0.66430  0.86290  Biso   1.000  C
  C559     1.0000 0.63210  0.72610  0.81010  Biso   1.000  C
  C560     1.0000 0.51150  0.82690  0.78190  Biso   1.000  C
  C561     1.0000 0.65232  0.12685  0.09495  Biso   1.000  C
  C562     1.0000 0.69251  0.11264  0.06879  Biso   1.000  C
  C563     1.0000 0.69239  0.09052  0.03226  Biso   1.000  C
  C564     1.0000 0.65159  0.08367  0.02117  Biso   1.000  C
  C565     1.0000 0.61107  0.09821  0.04697  Biso   1.000  C
  C566     1.0000 0.61085  0.12001  0.08398  Biso   1.000  C
  C567     1.0000 0.65149  0.15118  0.13499  Biso   1.000  C
  C568     1.0000 0.46915  0.11019  0.01008  Biso   1.000  C
  C569     1.0000 0.43339  0.09376  0.99588  Biso   1.000  C
  C570     1.0000 0.42367  0.04946  0.01345  Biso   1.000  C
  C571     1.0000 0.45110  0.02155  0.04258  Biso   1.000  C
  C572     1.0000 0.52961  0.10119  0.06020  Biso   1.000  C
  C573     1.0000 0.51493  0.00652  0.09011  Biso   1.000  C
  C574     1.0000 0.48160  0.15711  0.98974  Biso   1.000  C
  C575     1.0000 0.38420  0.03253  0.99977  Biso   1.000  C
  C576     1.0000 0.40623  0.12312  0.96161  Biso   1.000  C
  C577     1.0000 0.48598  0.03805  0.05780  Biso   1.000  C
  C578     1.0000 0.35914  0.18416  0.83663  Biso   1.000  C
  C579     1.0000 0.37446  0.16607  0.87795  Biso   1.000  C
  C580     1.0000 0.41969  0.10391  0.84346  Biso   1.000  C
  C581     1.0000 0.33239  0.23022  0.83151  Biso   1.000  C
  C582     1.0000 0.44526  0.97209  0.05681  Biso   1.000  C
  C583     1.0000 0.40909  0.92428  0.11973  Biso   1.000  C
  C584     1.0000 0.38175  0.91999  0.16165  Biso   1.000  C
  C585     1.0000 0.37185  0.87755  0.18285  Biso   1.000  C
  C586     1.0000 0.39058  0.83908  0.16245  Biso   1.000  C
  C587     1.0000 0.41831  0.84338  0.12175  Biso   1.000  C
  C588     1.0000 0.42744  0.88573  0.09922  Biso   1.000  C
  C589     1.0000 0.34175  0.87306  0.22839  Biso   1.000  C
  C590     1.0000 0.98382  0.28546  0.19827  Biso   1.000  C
  C591     1.0000 0.98529  0.27002  0.15314  Biso   1.000  C
  C592     1.0000 0.94466  0.26966  0.13707  Biso   1.000  C
  C593     1.0000 0.94651  0.25839  0.09402  Biso   1.000  C
  C594     1.0000 0.98788  0.24629  0.06841  Biso   1.000  C
  C595     1.0000 0.02754  0.24674  0.08434  Biso   1.000  C
  C596     1.0000 0.02596  0.25940  0.12678  Biso   1.000  C
  C597     1.0000 0.40409  0.12573  0.88140  Biso   1.000  C
  C598     1.0000 0.86805  0.28224  0.09280  Biso   1.000  C
  C599     1.0000 0.83310  0.29158  0.05946  Biso   1.000  C
  C600     1.0000 0.79738  0.26501  0.06574  Biso   1.000  C
  C601     1.0000 0.79814  0.22208  0.10071  Biso   1.000  C
  C602     1.0000 0.76045  0.27908  0.04132  Biso   1.000  C
  C603     1.0000 0.75999  0.31789  0.00816  Biso   1.000  C
  C604     1.0000 0.71972  0.33562  0.98402  Biso   1.000  C
  C605     1.0000 0.83550  0.32781  0.02350  Biso   1.000  C
  C606     1.0000 0.87611  0.35289  0.01385  Biso   1.000  C
  C607     1.0000 0.75549  0.45411  0.94595  Biso   1.000  C
  C608     1.0000 0.71819  0.48469  0.96299  Biso   1.000  C
  C609     1.0000 0.70330  0.52210  0.93600  Biso   1.000  C
  C610     1.0000 0.72191  0.53061  0.89061  Biso   1.000  C
  C611     1.0000 0.75842  0.50118  0.87390  Biso   1.000  C
  C612     1.0000 0.77466  0.46194  0.90095  Biso   1.000  C
  C613     1.0000 0.71622  0.25894  0.05481  Biso   1.000  C
  C614     1.0000 0.66432  0.23381  0.01862  Biso   1.000  C
  C615     1.0000 0.62898  0.24029  0.05483  Biso   1.000  C
  C616     1.0000 0.57391  0.22531  0.01421  Biso   1.000  C
  C617     1.0000 0.60781  0.21811  0.97791  Biso   1.000  C
  C618     1.0000 0.58418  0.23531  0.05268  Biso   1.000  C
  C619     1.0000 0.65379  0.22219  0.97909  Biso   1.000  C
  C620     1.0000 0.79965  0.34052  0.99801  Biso   1.000  C
  C621     1.0000 0.54875  0.24255  0.09395  Biso   1.000  C
  C622     1.0000 0.79975  0.38084  0.96062  Biso   1.000  C
  C623     1.0000 0.49372  0.08284  0.04253  Biso   1.000  C
  C624     1.0000 0.37329  0.16114  0.79951  Biso   1.000  C
  C625     1.0000 0.40462  0.12194  0.80273  Biso   1.000  C
  C626     1.0000 0.85666  0.61416  0.70306  Biso   1.000  C
  C627     1.0000 0.92690  0.62230  0.65990  Biso   1.000  C
  C628     1.0000 0.86290  0.69000  0.66430  Biso   1.000  C
  C629     1.0000 0.81010  0.63210  0.72610  Biso   1.000  C
  C630     1.0000 0.78190  0.51150  0.82690  Biso   1.000  C
  C631     1.0000 0.84768  0.40505  0.37315  Biso   1.000  C
  C632     1.0000 0.80749  0.43121  0.38736  Biso   1.000  C
  C633     1.0000 0.80761  0.46774  0.40948  Biso   1.000  C
  C634     1.0000 0.84841  0.47883  0.41633  Biso   1.000  C
  C635     1.0000 0.88893  0.45303  0.40179  Biso   1.000  C
  C636     1.0000 0.88915  0.41602  0.37999  Biso   1.000  C
  C637     1.0000 0.84851  0.36501  0.34882  Biso   1.000  C
  C638     1.0000 0.03085  0.48992  0.38981  Biso   1.000  C
  C639     1.0000 0.06661  0.50412  0.40624  Biso   1.000  C
  C640     1.0000 0.07633  0.48655  0.45054  Biso   1.000  C
  C641     1.0000 0.04890  0.45742  0.47845  Biso   1.000  C
  C642     1.0000 0.97039  0.43980  0.39881  Biso   1.000  C
  C643     1.0000 0.98507  0.40989  0.49348  Biso   1.000  C
  C644     1.0000 0.01840  0.51026  0.34289  Biso   1.000  C
  C645     1.0000 0.11580  0.50023  0.46747  Biso   1.000  C
  C646     1.0000 0.09377  0.53839  0.37688  Biso   1.000  C
  C647     1.0000 0.01402  0.44220  0.46195  Biso   1.000  C
  C648     1.0000 0.14086  0.66337  0.31584  Biso   1.000  C
  C649     1.0000 0.12554  0.62205  0.33393  Biso   1.000  C
  C650     1.0000 0.08031  0.65654  0.39609  Biso   1.000  C
  C651     1.0000 0.16761  0.66849  0.26978  Biso   1.000  C
  C652     1.0000 0.05474  0.44319  0.52791  Biso   1.000  C
  C653     1.0000 0.09091  0.38027  0.57572  Biso   1.000  C
  C654     1.0000 0.11825  0.33835  0.58001  Biso   1.000  C
  C655     1.0000 0.12815  0.31715  0.62245  Biso   1.000  C
  C656     1.0000 0.10942  0.33755  0.66092  Biso   1.000  C
  C657     1.0000 0.08169  0.37825  0.65662  Biso   1.000  C
  C658     1.0000 0.07256  0.40078  0.61427  Biso   1.000  C
  C659     1.0000 0.15825  0.27161  0.62694  Biso   1.000  C
  C660     1.0000 0.51618  0.30173  0.21454  Biso   1.000  C
  C661     1.0000 0.51471  0.34686  0.22998  Biso   1.000  C
  C662     1.0000 0.55534  0.36293  0.23034  Biso   1.000  C
  C663     1.0000 0.55349  0.40598  0.24161  Biso   1.000  C
  C664     1.0000 0.51212  0.43159  0.25371  Biso   1.000  C
  C665     1.0000 0.47246  0.41566  0.25326  Biso   1.000  C
  C666     1.0000 0.47404  0.37322  0.24060  Biso   1.000  C
  C667     1.0000 0.09591  0.61860  0.37427  Biso   1.000  C
  C668     1.0000 0.63195  0.40720  0.21776  Biso   1.000  C
  C669     1.0000 0.66690  0.44054  0.20842  Biso   1.000  C
  C670     1.0000 0.70262  0.43426  0.23499  Biso   1.000  C
  C671     1.0000 0.70186  0.39929  0.27792  Biso   1.000  C
  C672     1.0000 0.73955  0.45868  0.22092  Biso   1.000  C
  C673     1.0000 0.74001  0.49184  0.18211  Biso   1.000  C
  C674     1.0000 0.78028  0.51598  0.16438  Biso   1.000  C
  C675     1.0000 0.66450  0.47650  0.17219  Biso   1.000  C
  C676     1.0000 0.62389  0.48615  0.14711  Biso   1.000  C
  C677     1.0000 0.74451  0.55405  0.04589  Biso   1.000  C
  C678     1.0000 0.78181  0.53701  0.01531  Biso   1.000  C
  C679     1.0000 0.79670  0.56400  0.97790  Biso   1.000  C
  C680     1.0000 0.77809  0.60939  0.96939  Biso   1.000  C
  C681     1.0000 0.74158  0.62610  0.99882  Biso   1.000  C
  C682     1.0000 0.72534  0.59905  0.03806  Biso   1.000  C
  C683     1.0000 0.78378  0.44519  0.24106  Biso   1.000  C
  C684     1.0000 0.83568  0.48138  0.26619  Biso   1.000  C
  C685     1.0000 0.87102  0.44517  0.25971  Biso   1.000  C
  C686     1.0000 0.92609  0.48579  0.27469  Biso   1.000  C
  C687     1.0000 0.89219  0.52209  0.28189  Biso   1.000  C
  C688     1.0000 0.91582  0.44732  0.26469  Biso   1.000  C
  C689     1.0000 0.84621  0.52091  0.27781  Biso   1.000  C
  C690     1.0000 0.70035  0.50199  0.15948  Biso   1.000  C
  C691     1.0000 0.95125  0.40605  0.25745  Biso   1.000  C
  C692     1.0000 0.70025  0.53938  0.11916  Biso   1.000  C
  C693     1.0000 0.00628  0.45747  0.41716  Biso   1.000  C
  C694     1.0000 0.12671  0.70049  0.33886  Biso   1.000  C
  C695     1.0000 0.09538  0.69727  0.37806  Biso   1.000  C
  C696     1.0000 0.64334  0.79694  0.88584  Biso   1.000  C
  C697     1.0000 0.57310  0.84010  0.87770  Biso   1.000  C
  C698     1.0000 0.63710  0.83570  0.81000  Biso   1.000  C
  C699     1.0000 0.68990  0.77390  0.86790  Biso   1.000  C
  C700     1.0000 0.71810  0.67310  0.98850  Biso   1.000  C
  C701     1.0000 0.40505  0.37315  0.84768  Biso   1.000  C
  C702     1.0000 0.43121  0.38736  0.80749  Biso   1.000  C
  C703     1.0000 0.46774  0.40948  0.80761  Biso   1.000  C
  C704     1.0000 0.47883  0.41633  0.84841  Biso   1.000  C
  C705     1.0000 0.45303  0.40179  0.88893  Biso   1.000  C
  C706     1.0000 0.41602  0.37999  0.88915  Biso   1.000  C
  C707     1.0000 0.36501  0.34882  0.84851  Biso   1.000  C
  C708     1.0000 0.48992  0.38981  0.03085  Biso   1.000  C
  C709     1.0000 0.50412  0.40624  0.06661  Biso   1.000  C
  C710     1.0000 0.48655  0.45054  0.07633  Biso   1.000  C
  C711     1.0000 0.45742  0.47845  0.04890  Biso   1.000  C
  C712     1.0000 0.43980  0.39881  0.97039  Biso   1.000  C
  C713     1.0000 0.40989  0.49348  0.98507  Biso   1.000  C
  C714     1.0000 0.51026  0.34289  0.01840  Biso   1.000  C
  C715     1.0000 0.50023  0.46747  0.11580  Biso   1.000  C
  C716     1.0000 0.53839  0.37688  0.09377  Biso   1.000  C
  C717     1.0000 0.44220  0.46195  0.01402  Biso   1.000  C
  C718     1.0000 0.66337  0.31584  0.14086  Biso   1.000  C
  C719     1.0000 0.62205  0.33393  0.12554  Biso   1.000  C
  C720     1.0000 0.65654  0.39609  0.08031  Biso   1.000  C
  C721     1.0000 0.66849  0.26978  0.16761  Biso   1.000  C
  C722     1.0000 0.44319  0.52791  0.05474  Biso   1.000  C
  C723     1.0000 0.38027  0.57572  0.09091  Biso   1.000  C
  C724     1.0000 0.33835  0.58001  0.11825  Biso   1.000  C
  C725     1.0000 0.31715  0.62245  0.12815  Biso   1.000  C
  C726     1.0000 0.33755  0.66092  0.10942  Biso   1.000  C
  C727     1.0000 0.37825  0.65662  0.08169  Biso   1.000  C
  C728     1.0000 0.40078  0.61427  0.07256  Biso   1.000  C
  C729     1.0000 0.27161  0.62694  0.15825  Biso   1.000  C
  C730     1.0000 0.30173  0.21454  0.51618  Biso   1.000  C
  C731     1.0000 0.34686  0.22998  0.51471  Biso   1.000  C
  C732     1.0000 0.36293  0.23034  0.55534  Biso   1.000  C
  C733     1.0000 0.40598  0.24161  0.55349  Biso   1.000  C
  C734     1.0000 0.43159  0.25371  0.51212  Biso   1.000  C
  C735     1.0000 0.41566  0.25326  0.47246  Biso   1.000  C
  C736     1.0000 0.37322  0.24060  0.47404  Biso   1.000  C
  C737     1.0000 0.61860  0.37427  0.09591  Biso   1.000  C
  C738     1.0000 0.40720  0.21776  0.63195  Biso   1.000  C
  C739     1.0000 0.44054  0.20842  0.66690  Biso   1.000  C
  C740     1.0000 0.43426  0.23499  0.70262  Biso   1.000  C
  C741     1.0000 0.39929  0.27792  0.70186  Biso   1.000  C
  C742     1.0000 0.45868  0.22092  0.73955  Biso   1.000  C
  C743     1.0000 0.49184  0.18211  0.74001  Biso   1.000  C
  C744     1.0000 0.51598  0.16438  0.78028  Biso   1.000  C
  C745     1.0000 0.47650  0.17219  0.66450  Biso   1.000  C
  C746     1.0000 0.48615  0.14711  0.62389  Biso   1.000  C
  C747     1.0000 0.55405  0.04589  0.74451  Biso   1.000  C
  C748     1.0000 0.53701  0.01531  0.78181  Biso   1.000  C
  C749     1.0000 0.56400  0.97790  0.79670  Biso   1.000  C
  C750     1.0000 0.60939  0.96939  0.77809  Biso   1.000  C
  C751     1.0000 0.62610  0.99882  0.74158  Biso   1.000  C
  C752     1.0000 0.59905  0.03806  0.72534  Biso   1.000  C
  C753     1.0000 0.44519  0.24106  0.78378  Biso   1.000  C
  C754     1.0000 0.48138  0.26619  0.83568  Biso   1.000  C
  C755     1.0000 0.44517  0.25971  0.87102  Biso   1.000  C
  C756     1.0000 0.48579  0.27469  0.92609  Biso   1.000  C
  C757     1.0000 0.52209  0.28189  0.89219  Biso   1.000  C
  C758     1.0000 0.44732  0.26469  0.91582  Biso   1.000  C
  C759     1.0000 0.52091  0.27781  0.84621  Biso   1.000  C
  C760     1.0000 0.50199  0.15948  0.70035  Biso   1.000  C
  C761     1.0000 0.40605  0.25745  0.95125  Biso   1.000  C
  C762     1.0000 0.53938  0.11916  0.70025  Biso   1.000  C
  C763     1.0000 0.45747  0.41716  0.00628  Biso   1.000  C
  C764     1.0000 0.70049  0.33886  0.12671  Biso   1.000  C
  C765     1.0000 0.69727  0.37806  0.09538  Biso   1.000  C
  C766     1.0000 0.79694  0.88584  0.64334  Biso   1.000  C
  C767     1.0000 0.84010  0.87770  0.57310  Biso   1.000  C
  C768     1.0000 0.83570  0.81000  0.63710  Biso   1.000  C
  C769     1.0000 0.77390  0.86790  0.68990  Biso   1.000  C
  C770     1.0000 0.67310  0.98850  0.71810  Biso   1.000  C
  C771     1.0000 0.37315  0.84768  0.40505  Biso   1.000  C
  C772     1.0000 0.38736  0.80749  0.43121  Biso   1.000  C
  C773     1.0000 0.40948  0.80761  0.46774  Biso   1.000  C
  C774     1.0000 0.41633  0.84841  0.47883  Biso   1.000  C
  C775     1.0000 0.40179  0.88893  0.45303  Biso   1.000  C
  C776     1.0000 0.37999  0.88915  0.41602  Biso   1.000  C
  C777     1.0000 0.34882  0.84851  0.36501  Biso   1.000  C
  C778     1.0000 0.38981  0.03085  0.48992  Biso   1.000  C
  C779     1.0000 0.40624  0.06661  0.50412  Biso   1.000  C
  C780     1.0000 0.45054  0.07633  0.48655  Biso   1.000  C
  C781     1.0000 0.47845  0.04890  0.45742  Biso   1.000  C
  C782     1.0000 0.39881  0.97039  0.43980  Biso   1.000  C
  C783     1.0000 0.49348  0.98507  0.40989  Biso   1.000  C
  C784     1.0000 0.34289  0.01840  0.51026  Biso   1.000  C
  C785     1.0000 0.46747  0.11580  0.50023  Biso   1.000  C
  C786     1.0000 0.37688  0.09377  0.53839  Biso   1.000  C
  C787     1.0000 0.46195  0.01402  0.44220  Biso   1.000  C
  C788     1.0000 0.31584  0.14086  0.66337  Biso   1.000  C
  C789     1.0000 0.33393  0.12554  0.62205  Biso   1.000  C
  C790     1.0000 0.39609  0.08031  0.65654  Biso   1.000  C
  C791     1.0000 0.26978  0.16761  0.66849  Biso   1.000  C
  C792     1.0000 0.52791  0.05474  0.44319  Biso   1.000  C
  C793     1.0000 0.57572  0.09091  0.38027  Biso   1.000  C
  C794     1.0000 0.58001  0.11825  0.33835  Biso   1.000  C
  C795     1.0000 0.62245  0.12815  0.31715  Biso   1.000  C
  C796     1.0000 0.66092  0.10942  0.33755  Biso   1.000  C
  C797     1.0000 0.65662  0.08169  0.37825  Biso   1.000  C
  C798     1.0000 0.61427  0.07256  0.40078  Biso   1.000  C
  C799     1.0000 0.62694  0.15825  0.27161  Biso   1.000  C
  C800     1.0000 0.21454  0.51618  0.30173  Biso   1.000  C
  C801     1.0000 0.22998  0.51471  0.34686  Biso   1.000  C
  C802     1.0000 0.23034  0.55534  0.36293  Biso   1.000  C
  C803     1.0000 0.24161  0.55349  0.40598  Biso   1.000  C
  C804     1.0000 0.25371  0.51212  0.43159  Biso   1.000  C
  C805     1.0000 0.25326  0.47246  0.41566  Biso   1.000  C
  C806     1.0000 0.24060  0.47404  0.37322  Biso   1.000  C
  C807     1.0000 0.37427  0.09591  0.61860  Biso   1.000  C
  C808     1.0000 0.21776  0.63195  0.40720  Biso   1.000  C
  C809     1.0000 0.20842  0.66690  0.44054  Biso   1.000  C
  C810     1.0000 0.23499  0.70262  0.43426  Biso   1.000  C
  C811     1.0000 0.27792  0.70186  0.39929  Biso   1.000  C
  C812     1.0000 0.22092  0.73955  0.45868  Biso   1.000  C
  C813     1.0000 0.18211  0.74001  0.49184  Biso   1.000  C
  C814     1.0000 0.16438  0.78028  0.51598  Biso   1.000  C
  C815     1.0000 0.17219  0.66450  0.47650  Biso   1.000  C
  C816     1.0000 0.14711  0.62389  0.48615  Biso   1.000  C
  C817     1.0000 0.04589  0.74451  0.55405  Biso   1.000  C
  C818     1.0000 0.01531  0.78181  0.53701  Biso   1.000  C
  C819     1.0000 0.97790  0.79670  0.56400  Biso   1.000  C
  C820     1.0000 0.96939  0.77809  0.60939  Biso   1.000  C
  C821     1.0000 0.99882  0.74158  0.62610  Biso   1.000  C
  C822     1.0000 0.03806  0.72534  0.59905  Biso   1.000  C
  C823     1.0000 0.24106  0.78378  0.44519  Biso   1.000  C
  C824     1.0000 0.26619  0.83568  0.48138  Biso   1.000  C
  C825     1.0000 0.25971  0.87102  0.44517  Biso   1.000  C
  C826     1.0000 0.27469  0.92609  0.48579  Biso   1.000  C
  C827     1.0000 0.28189  0.89219  0.52209  Biso   1.000  C
  C828     1.0000 0.26469  0.91582  0.44732  Biso   1.000  C
  C829     1.0000 0.27781  0.84621  0.52091  Biso   1.000  C
  C830     1.0000 0.15948  0.70035  0.50199  Biso   1.000  C
  C831     1.0000 0.25745  0.95125  0.40605  Biso   1.000  C
  C832     1.0000 0.11916  0.70025  0.53938  Biso   1.000  C
  C833     1.0000 0.41716  0.00628  0.45747  Biso   1.000  C
  C834     1.0000 0.33886  0.12671  0.70049  Biso   1.000  C
  C835     1.0000 0.37806  0.09538  0.69727  Biso   1.000  C
  C836     1.0000 0.88584  0.64334  0.79694  Biso   1.000  C
  C837     1.0000 0.87770  0.57310  0.84010  Biso   1.000  C
  C838     1.0000 0.81000  0.63710  0.83570  Biso   1.000  C
  C839     1.0000 0.86790  0.68990  0.77390  Biso   1.000  C
  C840     1.0000 0.98850  0.71810  0.67310  Biso   1.000  C
  N1       1.0000 0.32400  0.12150  0.35800  Biso   1.000  N
  N2       1.0000 0.35800  0.32400  0.12150  Biso   1.000  N
  N3       1.0000 0.12150  0.35800  0.32400  Biso   1.000  N
  N4       1.0000 0.37850  0.17600  0.14200  Biso   1.000  N
  N5       1.0000 0.17600  0.14200  0.37850  Biso   1.000  N
  N6       1.0000 0.14200  0.37850  0.17600  Biso   1.000  N
  N7       1.0000 0.67600  0.87850  0.64200  Biso   1.000  N
  N8       1.0000 0.64200  0.67600  0.87850  Biso   1.000  N
  N9       1.0000 0.87850  0.64200  0.67600  Biso   1.000  N
  N10      1.0000 0.62150  0.82400  0.85800  Biso   1.000  N
  N11      1.0000 0.82400  0.85800  0.62150  Biso   1.000  N
  N12      1.0000 0.85800  0.62150  0.82400  Biso   1.000  N
  O1       1.0000 0.87167  0.44034  0.74562  Biso   1.000  O
  O2       1.0000 0.90806  0.48973  0.76514  Biso   1.000  O
  O3       1.0000 0.98161  0.29172  0.76204  Biso   1.000  O
  O4       1.0000 0.02316  0.23084  0.58208  Biso   1.000  O
  O5       1.0000 0.18942  0.19446  0.51979  Biso   1.000  O
  O6       1.0000 0.84280  0.38627  0.83702  Biso   1.000  O
  O7       1.0000 0.85686  0.31049  0.84252  Biso   1.000  O
  O8       1.0000 0.92576  0.09142  0.74195  Biso   1.000  O
  O9       1.0000 0.77163  0.04909  0.72181  Biso   1.000  O
  O10      1.0000 0.79769  0.98410  0.69468  Biso   1.000  O
  O11      1.0000 0.96663  0.42723  0.91112  Biso   1.000  O
  O12      1.0000 0.08072  0.57775  0.89494  Biso   1.000  O
  O13      1.0000 0.89949  0.58350  0.03238  Biso   1.000  O
  O14      1.0000 0.75309  0.66183  0.16768  Biso   1.000  O
  O15      1.0000 0.75535  0.67730  0.09187  Biso   1.000  O
  O16      1.0000 0.13646  0.67737  0.74828  Biso   1.000  O
  O17      1.0000 0.20705  0.67740  0.75074  Biso   1.000  O
  O18      1.0000 0.79855  0.23930  0.84317  Biso   1.000  O
  O19      1.0000 0.28570  0.12500  0.42700  Biso   1.000  O
  O20      1.0000 0.19587  0.22359  0.45085  Biso   1.000  O
  O21      1.0000 0.74562  0.87167  0.44034  Biso   1.000  O
  O22      1.0000 0.76514  0.90806  0.48973  Biso   1.000  O
  O23      1.0000 0.76204  0.98161  0.29172  Biso   1.000  O
  O24      1.0000 0.58208  0.02316  0.23084  Biso   1.000  O
  O25      1.0000 0.51979  0.18942  0.19446  Biso   1.000  O
  O26      1.0000 0.83702  0.84280  0.38627  Biso   1.000  O
  O27      1.0000 0.84252  0.85686  0.31049  Biso   1.000  O
  O28      1.0000 0.74195  0.92576  0.09142  Biso   1.000  O
  O29      1.0000 0.72181  0.77163  0.04909  Biso   1.000  O
  O30      1.0000 0.69468  0.79769  0.98410  Biso   1.000  O
  O31      1.0000 0.91112  0.96663  0.42723  Biso   1.000  O
  O32      1.0000 0.89494  0.08072  0.57775  Biso   1.000  O
  O33      1.0000 0.03238  0.89949  0.58350  Biso   1.000  O
  O34      1.0000 0.16768  0.75309  0.66183  Biso   1.000  O
  O35      1.0000 0.09187  0.75535  0.67730  Biso   1.000  O
  O36      1.0000 0.74828  0.13646  0.67737  Biso   1.000  O
  O37      1.0000 0.75074  0.20705  0.67740  Biso   1.000  O
  O38      1.0000 0.84317  0.79855  0.23930  Biso   1.000  O
  O39      1.0000 0.42700  0.28570  0.12500  Biso   1.000  O
  O40      1.0000 0.45085  0.19587  0.22359  Biso   1.000  O
  O41      1.0000 0.44034  0.74562  0.87167  Biso   1.000  O
  O42      1.0000 0.48973  0.76514  0.90806  Biso   1.000  O
  O43      1.0000 0.29172  0.76204  0.98161  Biso   1.000  O
  O44      1.0000 0.23084  0.58208  0.02316  Biso   1.000  O
  O45      1.0000 0.19446  0.51979  0.18942  Biso   1.000  O
  O46      1.0000 0.38627  0.83702  0.84280  Biso   1.000  O
  O47      1.0000 0.31049  0.84252  0.85686  Biso   1.000  O
  O48      1.0000 0.09142  0.74195  0.92576  Biso   1.000  O
  O49      1.0000 0.04909  0.72181  0.77163  Biso   1.000  O
  O50      1.0000 0.98410  0.69468  0.79769  Biso   1.000  O
  O51      1.0000 0.42723  0.91112  0.96663  Biso   1.000  O
  O52      1.0000 0.57775  0.89494  0.08072  Biso   1.000  O
  O53      1.0000 0.58350  0.03238  0.89949  Biso   1.000  O
  O54      1.0000 0.66183  0.16768  0.75309  Biso   1.000  O
  O55      1.0000 0.67730  0.09187  0.75535  Biso   1.000  O
  O56      1.0000 0.67737  0.74828  0.13646  Biso   1.000  O
  O57      1.0000 0.67740  0.75074  0.20705  Biso   1.000  O
  O58      1.0000 0.23930  0.84317  0.79855  Biso   1.000  O
  O59      1.0000 0.12500  0.42700  0.28570  Biso   1.000  O
  O60      1.0000 0.22359  0.45085  0.19587  Biso   1.000  O
  O61      1.0000 0.05966  0.62833  0.75438  Biso   1.000  O
  O62      1.0000 0.01027  0.59194  0.73486  Biso   1.000  O
  O63      1.0000 0.20828  0.51839  0.73796  Biso   1.000  O
  O64      1.0000 0.26916  0.47684  0.91792  Biso   1.000  O
  O65      1.0000 0.30554  0.31058  0.98021  Biso   1.000  O
  O66      1.0000 0.11373  0.65720  0.66298  Biso   1.000  O
  O67      1.0000 0.18951  0.64314  0.65748  Biso   1.000  O
  O68      1.0000 0.40858  0.57424  0.75805  Biso   1.000  O
  O69      1.0000 0.45091  0.72837  0.77819  Biso   1.000  O
  O70      1.0000 0.51590  0.70231  0.80532  Biso   1.000  O
  O71      1.0000 0.07277  0.53337  0.58888  Biso   1.000  O
  O72      1.0000 0.92225  0.41928  0.60506  Biso   1.000  O
  O73      1.0000 0.91650  0.60051  0.46762  Biso   1.000  O
  O74      1.0000 0.83817  0.74691  0.33232  Biso   1.000  O
  O75      1.0000 0.82270  0.74465  0.40813  Biso   1.000  O
  O76      1.0000 0.82263  0.36354  0.75172  Biso   1.000  O
  O77      1.0000 0.82260  0.29295  0.74926  Biso   1.000  O
  O78      1.0000 0.26070  0.70145  0.65683  Biso   1.000  O
  O79      1.0000 0.37500  0.21430  0.07300  Biso   1.000  O
  O80      1.0000 0.27641  0.30413  0.04915  Biso   1.000  O
  O81      1.0000 0.62833  0.75438  0.05966  Biso   1.000  O
  O82      1.0000 0.59194  0.73486  0.01027  Biso   1.000  O
  O83      1.0000 0.51839  0.73796  0.20828  Biso   1.000  O
  O84      1.0000 0.47684  0.91792  0.26916  Biso   1.000  O
  O85      1.0000 0.31058  0.98021  0.30554  Biso   1.000  O
  O86      1.0000 0.65720  0.66298  0.11373  Biso   1.000  O
  O87      1.0000 0.64314  0.65748  0.18951  Biso   1.000  O
  O88      1.0000 0.57424  0.75805  0.40858  Biso   1.000  O
  O89      1.0000 0.72837  0.77819  0.45091  Biso   1.000  O
  O90      1.0000 0.70231  0.80532  0.51590  Biso   1.000  O
  O91      1.0000 0.53337  0.58888  0.07277  Biso   1.000  O
  O92      1.0000 0.41928  0.60506  0.92225  Biso   1.000  O
  O93      1.0000 0.60051  0.46762  0.91650  Biso   1.000  O
  O94      1.0000 0.74691  0.33232  0.83817  Biso   1.000  O
  O95      1.0000 0.74465  0.40813  0.82270  Biso   1.000  O
  O96      1.0000 0.36354  0.75172  0.82263  Biso   1.000  O
  O97      1.0000 0.29295  0.74926  0.82260  Biso   1.000  O
  O98      1.0000 0.70145  0.65683  0.26070  Biso   1.000  O
  O99      1.0000 0.21430  0.07300  0.37500  Biso   1.000  O
  O100     1.0000 0.30413  0.04915  0.27641  Biso   1.000  O
  O101     1.0000 0.75438  0.05966  0.62833  Biso   1.000  O
  O102     1.0000 0.73486  0.01027  0.59194  Biso   1.000  O
  O103     1.0000 0.73796  0.20828  0.51839  Biso   1.000  O
  O104     1.0000 0.91792  0.26916  0.47684  Biso   1.000  O
  O105     1.0000 0.98021  0.30554  0.31058  Biso   1.000  O
  O106     1.0000 0.66298  0.11373  0.65720  Biso   1.000  O
  O107     1.0000 0.65748  0.18951  0.64314  Biso   1.000  O
  O108     1.0000 0.75805  0.40858  0.57424  Biso   1.000  O
  O109     1.0000 0.77819  0.45091  0.72837  Biso   1.000  O
  O110     1.0000 0.80532  0.51590  0.70231  Biso   1.000  O
  O111     1.0000 0.58888  0.07277  0.53337  Biso   1.000  O
  O112     1.0000 0.60506  0.92225  0.41928  Biso   1.000  O
  O113     1.0000 0.46762  0.91650  0.60051  Biso   1.000  O
  O114     1.0000 0.33232  0.83817  0.74691  Biso   1.000  O
  O115     1.0000 0.40813  0.82270  0.74465  Biso   1.000  O
  O116     1.0000 0.75172  0.82263  0.36354  Biso   1.000  O
  O117     1.0000 0.74926  0.82260  0.29295  Biso   1.000  O
  O118     1.0000 0.65683  0.26070  0.70145  Biso   1.000  O
  O119     1.0000 0.07300  0.37500  0.21430  Biso   1.000  O
  O120     1.0000 0.04915  0.27641  0.30413  Biso   1.000  O
  O121     1.0000 0.12833  0.55966  0.25438  Biso   1.000  O
  O122     1.0000 0.09194  0.51027  0.23486  Biso   1.000  O
  O123     1.0000 0.01839  0.70828  0.23796  Biso   1.000  O
  O124     1.0000 0.97684  0.76916  0.41792  Biso   1.000  O
  O125     1.0000 0.81058  0.80554  0.48021  Biso   1.000  O
  O126     1.0000 0.15720  0.61373  0.16298  Biso   1.000  O
  O127     1.0000 0.14314  0.68951  0.15748  Biso   1.000  O
  O128     1.0000 0.07424  0.90858  0.25805  Biso   1.000  O
  O129     1.0000 0.22837  0.95091  0.27819  Biso   1.000  O
  O130     1.0000 0.20231  0.01590  0.30532  Biso   1.000  O
  O131     1.0000 0.03337  0.57277  0.08888  Biso   1.000  O
  O132     1.0000 0.91928  0.42225  0.10506  Biso   1.000  O
  O133     1.0000 0.10051  0.41650  0.96762  Biso   1.000  O
  O134     1.0000 0.24691  0.33817  0.83232  Biso   1.000  O
  O135     1.0000 0.24465  0.32270  0.90813  Biso   1.000  O
  O136     1.0000 0.86354  0.32263  0.25172  Biso   1.000  O
  O137     1.0000 0.79295  0.32260  0.24926  Biso   1.000  O
  O138     1.0000 0.20145  0.76070  0.15683  Biso   1.000  O
  O139     1.0000 0.71430  0.87500  0.57300  Biso   1.000  O
  O140     1.0000 0.80413  0.77641  0.54915  Biso   1.000  O
  O141     1.0000 0.25438  0.12833  0.55966  Biso   1.000  O
  O142     1.0000 0.23486  0.09194  0.51027  Biso   1.000  O
  O143     1.0000 0.23796  0.01839  0.70828  Biso   1.000  O
  O144     1.0000 0.41792  0.97684  0.76916  Biso   1.000  O
  O145     1.0000 0.48021  0.81058  0.80554  Biso   1.000  O
  O146     1.0000 0.16298  0.15720  0.61373  Biso   1.000  O
  O147     1.0000 0.15748  0.14314  0.68951  Biso   1.000  O
  O148     1.0000 0.25805  0.07424  0.90858  Biso   1.000  O
  O149     1.0000 0.27819  0.22837  0.95091  Biso   1.000  O
  O150     1.0000 0.30532  0.20231  0.01590  Biso   1.000  O
  O151     1.0000 0.08888  0.03337  0.57277  Biso   1.000  O
  O152     1.0000 0.10506  0.91928  0.42225  Biso   1.000  O
  O153     1.0000 0.96762  0.10051  0.41650  Biso   1.000  O
  O154     1.0000 0.83232  0.24691  0.33817  Biso   1.000  O
  O155     1.0000 0.90813  0.24465  0.32270  Biso   1.000  O
  O156     1.0000 0.25172  0.86354  0.32263  Biso   1.000  O
  O157     1.0000 0.24926  0.79295  0.32260  Biso   1.000  O
  O158     1.0000 0.15683  0.20145  0.76070  Biso   1.000  O
  O159     1.0000 0.57300  0.71430  0.87500  Biso   1.000  O
  O160     1.0000 0.54915  0.80413  0.77641  Biso   1.000  O
  O161     1.0000 0.55966  0.25438  0.12833  Biso   1.000  O
  O162     1.0000 0.51027  0.23486  0.09194  Biso   1.000  O
  O163     1.0000 0.70828  0.23796  0.01839  Biso   1.000  O
  O164     1.0000 0.76916  0.41792  0.97684  Biso   1.000  O
  O165     1.0000 0.80554  0.48021  0.81058  Biso   1.000  O
  O166     1.0000 0.61373  0.16298  0.15720  Biso   1.000  O
  O167     1.0000 0.68951  0.15748  0.14314  Biso   1.000  O
  O168     1.0000 0.90858  0.25805  0.07424  Biso   1.000  O
  O169     1.0000 0.95091  0.27819  0.22837  Biso   1.000  O
  O170     1.0000 0.01590  0.30532  0.20231  Biso   1.000  O
  O171     1.0000 0.57277  0.08888  0.03337  Biso   1.000  O
  O172     1.0000 0.42225  0.10506  0.91928  Biso   1.000  O
  O173     1.0000 0.41650  0.96762  0.10051  Biso   1.000  O
  O174     1.0000 0.33817  0.83232  0.24691  Biso   1.000  O
  O175     1.0000 0.32270  0.90813  0.24465  Biso   1.000  O
  O176     1.0000 0.32263  0.25172  0.86354  Biso   1.000  O
  O177     1.0000 0.32260  0.24926  0.79295  Biso   1.000  O
  O178     1.0000 0.76070  0.15683  0.20145  Biso   1.000  O
  O179     1.0000 0.87500  0.57300  0.71430  Biso   1.000  O
  O180     1.0000 0.77641  0.54915  0.80413  Biso   1.000  O
  O181     1.0000 0.94034  0.37167  0.24562  Biso   1.000  O
  O182     1.0000 0.98973  0.40806  0.26514  Biso   1.000  O
  O183     1.0000 0.79172  0.48161  0.26204  Biso   1.000  O
  O184     1.0000 0.73084  0.52316  0.08208  Biso   1.000  O
  O185     1.0000 0.69446  0.68942  0.01979  Biso   1.000  O
  O186     1.0000 0.88627  0.34280  0.33702  Biso   1.000  O
  O187     1.0000 0.81049  0.35686  0.34252  Biso   1.000  O
  O188     1.0000 0.59142  0.42576  0.24195  Biso   1.000  O
  O189     1.0000 0.54909  0.27163  0.22181  Biso   1.000  O
  O190     1.0000 0.48410  0.29769  0.19468  Biso   1.000  O
  O191     1.0000 0.92723  0.46663  0.41112  Biso   1.000  O
  O192     1.0000 0.07775  0.58072  0.39494  Biso   1.000  O
  O193     1.0000 0.08350  0.39949  0.53238  Biso   1.000  O
  O194     1.0000 0.16183  0.25309  0.66768  Biso   1.000  O
  O195     1.0000 0.17730  0.25535  0.59187  Biso   1.000  O
  O196     1.0000 0.17737  0.63646  0.24828  Biso   1.000  O
  O197     1.0000 0.17740  0.70705  0.25074  Biso   1.000  O
  O198     1.0000 0.73930  0.29855  0.34317  Biso   1.000  O
  O199     1.0000 0.62500  0.78570  0.92700  Biso   1.000  O
  O200     1.0000 0.72359  0.69587  0.95085  Biso   1.000  O
  O201     1.0000 0.37167  0.24562  0.94034  Biso   1.000  O
  O202     1.0000 0.40806  0.26514  0.98973  Biso   1.000  O
  O203     1.0000 0.48161  0.26204  0.79172  Biso   1.000  O
  O204     1.0000 0.52316  0.08208  0.73084  Biso   1.000  O
  O205     1.0000 0.68942  0.01979  0.69446  Biso   1.000  O
  O206     1.0000 0.34280  0.33702  0.88627  Biso   1.000  O
  O207     1.0000 0.35686  0.34252  0.81049  Biso   1.000  O
  O208     1.0000 0.42576  0.24195  0.59142  Biso   1.000  O
  O209     1.0000 0.27163  0.22181  0.54909  Biso   1.000  O
  O210     1.0000 0.29769  0.19468  0.48410  Biso   1.000  O
  O211     1.0000 0.46663  0.41112  0.92723  Biso   1.000  O
  O212     1.0000 0.58072  0.39494  0.07775  Biso   1.000  O
  O213     1.0000 0.39949  0.53238  0.08350  Biso   1.000  O
  O214     1.0000 0.25309  0.66768  0.16183  Biso   1.000  O
  O215     1.0000 0.25535  0.59187  0.17730  Biso   1.000  O
  O216     1.0000 0.63646  0.24828  0.17737  Biso   1.000  O
  O217     1.0000 0.70705  0.25074  0.17740  Biso   1.000  O
  O218     1.0000 0.29855  0.34317  0.73930  Biso   1.000  O
  O219     1.0000 0.78570  0.92700  0.62500  Biso   1.000  O
  O220     1.0000 0.69587  0.95085  0.72359  Biso   1.000  O
  O221     1.0000 0.24562  0.94034  0.37167  Biso   1.000  O
  O222     1.0000 0.26514  0.98973  0.40806  Biso   1.000  O
  O223     1.0000 0.26204  0.79172  0.48161  Biso   1.000  O
  O224     1.0000 0.08208  0.73084  0.52316  Biso   1.000  O
  O225     1.0000 0.01979  0.69446  0.68942  Biso   1.000  O
  O226     1.0000 0.33702  0.88627  0.34280  Biso   1.000  O
  O227     1.0000 0.34252  0.81049  0.35686  Biso   1.000  O
  O228     1.0000 0.24195  0.59142  0.42576  Biso   1.000  O
  O229     1.0000 0.22181  0.54909  0.27163  Biso   1.000  O
  O230     1.0000 0.19468  0.48410  0.29769  Biso   1.000  O
  O231     1.0000 0.41112  0.92723  0.46663  Biso   1.000  O
  O232     1.0000 0.39494  0.07775  0.58072  Biso   1.000  O
  O233     1.0000 0.53238  0.08350  0.39949  Biso   1.000  O
  O234     1.0000 0.66768  0.16183  0.25309  Biso   1.000  O
  O235     1.0000 0.59187  0.17730  0.25535  Biso   1.000  O
  O236     1.0000 0.24828  0.17737  0.63646  Biso   1.000  O
  O237     1.0000 0.25074  0.17740  0.70705  Biso   1.000  O
  O238     1.0000 0.34317  0.73930  0.29855  Biso   1.000  O
  O239     1.0000 0.92700  0.62500  0.78570  Biso   1.000  O
  O240     1.0000 0.95085  0.72359  0.69587  Biso   1.000  O
