data_image0
_cell_length_a       13.5231
_cell_length_b       29.5615
_cell_length_c       29.5615
_cell_angle_alpha    87.0011
_cell_angle_beta     76.7778
_cell_angle_gamma    76.7779

_symmetry_space_group_name_H-M    P 1
_symmetry_int_tables_number       1

loop_
  _symmetry_equiv_pos_as_xyz
  'x, y, z'

loop_
  _atom_site_label
  _atom_site_occupancy
  _atom_site_fract_x
  _atom_site_fract_y
  _atom_site_fract_z
  _atom_site_thermal_displace_type
  _atom_site_B_iso_or_equiv
  _atom_site_type_symbol
  Cd1      1.0000 0.03393  0.94954  0.88433  Biso   1.000  Cd
  Cd2      1.0000 0.24797  0.01041  0.75112  Biso   1.000  Cd
  Cd3      1.0000 0.19429  0.03370  0.56822  Biso   1.000  Cd
  Cd4      1.0000 0.53289  0.94169  0.61101  Biso   1.000  Cd
  Cd5      1.0000 0.36779  0.55046  0.61567  Biso   1.000  Cd
  Cd6      1.0000 0.50951  0.48959  0.74888  Biso   1.000  Cd
  Cd7      1.0000 0.29621  0.46630  0.93178  Biso   1.000  Cd
  Cd8      1.0000 0.58559  0.55831  0.88899  Biso   1.000  Cd
  Cd9      1.0000 0.91825  0.11567  0.44955  Biso   1.000  Cd
  Cd10     1.0000 0.99910  0.24888  0.51040  Biso   1.000  Cd
  Cd11     1.0000 0.76250  0.43179  0.53370  Biso   1.000  Cd
  Cd12     1.0000 0.14390  0.38899  0.44169  Biso   1.000  Cd
  Cd13     1.0000 0.98347  0.38433  0.05045  Biso   1.000  Cd
  Cd14     1.0000 0.25838  0.25112  0.98960  Biso   1.000  Cd
  Cd15     1.0000 0.22800  0.06821  0.96630  Biso   1.000  Cd
  Cd16     1.0000 0.47458  0.11101  0.05831  Biso   1.000  Cd
  Cd17     1.0000 0.96607  0.05046  0.11567  Biso   1.000  Cd
  Cd18     1.0000 0.75203  0.98959  0.24888  Biso   1.000  Cd
  Cd19     1.0000 0.80571  0.96630  0.43178  Biso   1.000  Cd
  Cd20     1.0000 0.46711  0.05831  0.38899  Biso   1.000  Cd
  Cd21     1.0000 0.63221  0.44954  0.38433  Biso   1.000  Cd
  Cd22     1.0000 0.49049  0.51041  0.25112  Biso   1.000  Cd
  Cd23     1.0000 0.70379  0.53370  0.06822  Biso   1.000  Cd
  Cd24     1.0000 0.41441  0.44169  0.11101  Biso   1.000  Cd
  Cd25     1.0000 0.08175  0.88433  0.55045  Biso   1.000  Cd
  Cd26     1.0000 0.00090  0.75112  0.48960  Biso   1.000  Cd
  Cd27     1.0000 0.23750  0.56821  0.46630  Biso   1.000  Cd
  Cd28     1.0000 0.85610  0.61101  0.55831  Biso   1.000  Cd
  Cd29     1.0000 0.01653  0.61567  0.94955  Biso   1.000  Cd
  Cd30     1.0000 0.74162  0.74888  0.01040  Biso   1.000  Cd
  Cd31     1.0000 0.77200  0.93179  0.03370  Biso   1.000  Cd
  Cd32     1.0000 0.52542  0.88899  0.94169  Biso   1.000  Cd
  H1       1.0000 0.57890  0.85830  0.79310  Biso   1.000  H
  H2       1.0000 0.58300  0.81970  0.72890  Biso   1.000  H
  H3       1.0000 0.43240  0.83190  0.70030  Biso   1.000  H
  H4       1.0000 0.03610  0.88970  0.66590  Biso   1.000  H
  H5       1.0000 0.03980  0.83930  0.72930  Biso   1.000  H
  H6       1.0000 0.16580  0.83610  0.77230  Biso   1.000  H
  H7       1.0000 0.52730  0.04760  0.83160  Biso   1.000  H
  H8       1.0000 0.81320  0.06860  0.83160  Biso   1.000  H
  H9       1.0000 0.70210  0.03810  0.79410  Biso   1.000  H
  H10      1.0000 0.66040  0.16500  0.92380  Biso   1.000  H
  H11      1.0000 0.75300  0.21310  0.94770  Biso   1.000  H
  H12      1.0000 0.92730  0.18340  0.95280  Biso   1.000  H
  H13      1.0000 0.01970  0.97180  0.78200  Biso   1.000  H
  H14      1.0000 0.92640  0.96950  0.72530  Biso   1.000  H
  H15      1.0000 0.71830  0.91750  0.82550  Biso   1.000  H
  H16      1.0000 0.82250  0.92180  0.87480  Biso   1.000  H
  H17      1.0000 0.86610  0.93160  0.67460  Biso   1.000  H
  H18      1.0000 0.76170  0.93050  0.62310  Biso   1.000  H
  H19      1.0000 0.50930  0.96040  0.72080  Biso   1.000  H
  H20      1.0000 0.60560  0.95940  0.77680  Biso   1.000  H
  H21      1.0000 0.09260  0.92280  0.96140  Biso   1.000  H
  H22      1.0000 0.03620  0.96580  0.97400  Biso   1.000  H
  H23      1.0000 0.34900  0.01670  0.82170  Biso   1.000  H
  H24      1.0000 0.42280  0.98730  0.79190  Biso   1.000  H
  H25      1.0000 0.07140  0.06010  0.80370  Biso   1.000  H
  H26      1.0000 0.15510  0.05550  0.82550  Biso   1.000  H
  H27      1.0000 0.14190  0.01390  0.68450  Biso   1.000  H
  H28      1.0000 0.06850  0.04920  0.71560  Biso   1.000  H
  H29      1.0000 0.38840  0.05930  0.70110  Biso   1.000  H
  H30      1.0000 0.31970  0.05660  0.67120  Biso   1.000  H
  H31      1.0000 0.24600  0.95730  0.51470  Biso   1.000  H
  H32      1.0000 0.30910  0.99130  0.49070  Biso   1.000  H
  H33      1.0000 0.07190  0.09180  0.52020  Biso   1.000  H
  H34      1.0000 0.17570  0.08530  0.48870  Biso   1.000  H
  H35      1.0000 0.54650  0.94130  0.52030  Biso   1.000  H
  H36      1.0000 0.44370  0.96850  0.54230  Biso   1.000  H
  H37      1.0000 0.73030  0.64170  0.70690  Biso   1.000  H
  H38      1.0000 0.63160  0.68030  0.77110  Biso   1.000  H
  H39      1.0000 0.46460  0.66810  0.79970  Biso   1.000  H
  H40      1.0000 0.09170  0.61030  0.83410  Biso   1.000  H
  H41      1.0000 0.10840  0.66070  0.77070  Biso   1.000  H
  H42      1.0000 0.27420  0.66390  0.72770  Biso   1.000  H
  H43      1.0000 0.90650  0.45240  0.66840  Biso   1.000  H
  H44      1.0000 0.21340  0.43140  0.66840  Biso   1.000  H
  H45      1.0000 0.03430  0.46190  0.70590  Biso   1.000  H
  H46      1.0000 0.24920  0.33500  0.57620  Biso   1.000  H
  H47      1.0000 0.41380  0.28690  0.55230  Biso   1.000  H
  H48      1.0000 0.56350  0.31660  0.54720  Biso   1.000  H
  H49      1.0000 0.27350  0.52820  0.71800  Biso   1.000  H
  H50      1.0000 0.12120  0.53050  0.77470  Biso   1.000  H
  H51      1.0000 0.96130  0.58250  0.67450  Biso   1.000  H
  H52      1.0000 0.11910  0.57820  0.62520  Biso   1.000  H
  H53      1.0000 0.97230  0.56840  0.82540  Biso   1.000  H
  H54      1.0000 0.81530  0.56950  0.87690  Biso   1.000  H
  H55      1.0000 0.69050  0.53960  0.77920  Biso   1.000  H
  H56      1.0000 0.84180  0.54060  0.72320  Biso   1.000  H
  H57      1.0000 0.47680  0.57720  0.53860  Biso   1.000  H
  H58      1.0000 0.47600  0.53420  0.52600  Biso   1.000  H
  H59      1.0000 0.68740  0.48330  0.67830  Biso   1.000  H
  H60      1.0000 0.70200  0.51270  0.70810  Biso   1.000  H
  H61      1.0000 0.43520  0.43990  0.69630  Biso   1.000  H
  H62      1.0000 0.53610  0.44450  0.67450  Biso   1.000  H
  H63      1.0000 0.34030  0.48610  0.81550  Biso   1.000  H
  H64      1.0000 0.33330  0.45080  0.78440  Biso   1.000  H
  H65      1.0000 0.64880  0.44070  0.79890  Biso   1.000  H
  H66      1.0000 0.54750  0.44340  0.82880  Biso   1.000  H
  H67      1.0000 0.21800  0.54270  0.98530  Biso   1.000  H
  H68      1.0000 0.29110  0.50870  0.00930  Biso   1.000  H
  H69      1.0000 0.18390  0.40820  0.97980  Biso   1.000  H
  H70      1.0000 0.24970  0.41470  0.01130  Biso   1.000  H
  H71      1.0000 0.50810  0.55870  0.97970  Biso   1.000  H
  H72      1.0000 0.45450  0.53150  0.95770  Biso   1.000  H
  H73      1.0000 0.37200  0.20690  0.35830  Biso   1.000  H
  H74      1.0000 0.31190  0.27110  0.31970  Biso   1.000  H
  H75      1.0000 0.13270  0.29970  0.33190  Biso   1.000  H
  H76      1.0000 0.70200  0.33410  0.38970  Biso   1.000  H
  H77      1.0000 0.76910  0.27070  0.33930  Biso   1.000  H
  H78      1.0000 0.93810  0.22770  0.33610  Biso   1.000  H
  H79      1.0000 0.35890  0.16840  0.54760  Biso   1.000  H
  H80      1.0000 0.64480  0.16840  0.56860  Biso   1.000  H
  H81      1.0000 0.49620  0.20590  0.53810  Biso   1.000  H
  H82      1.0000 0.58420  0.07620  0.66500  Biso   1.000  H
  H83      1.0000 0.70070  0.05230  0.71310  Biso   1.000  H
  H84      1.0000 0.88010  0.04720  0.68340  Biso   1.000  H
  H85      1.0000 0.80170  0.21800  0.47180  Biso   1.000  H
  H86      1.0000 0.65170  0.27470  0.46950  Biso   1.000  H
  H87      1.0000 0.54380  0.17450  0.41750  Biso   1.000  H
  H88      1.0000 0.69730  0.12520  0.42180  Biso   1.000  H
  H89      1.0000 0.54070  0.32540  0.43160  Biso   1.000  H
  H90      1.0000 0.38480  0.37690  0.43050  Biso   1.000  H
  H91      1.0000 0.23010  0.27920  0.46040  Biso   1.000  H
  H92      1.0000 0.38240  0.22320  0.45940  Biso   1.000  H
  H93      1.0000 0.05400  0.03860  0.42280  Biso   1.000  H
  H94      1.0000 0.01020  0.02600  0.46580  Biso   1.000  H
  H95      1.0000 0.17070  0.17830  0.51670  Biso   1.000  H
  H96      1.0000 0.21470  0.20810  0.48730  Biso   1.000  H
  H97      1.0000 0.87510  0.19630  0.56010  Biso   1.000  H
  H98      1.0000 0.98060  0.17450  0.55550  Biso   1.000  H
  H99      1.0000 0.82640  0.31550  0.51390  Biso   1.000  H
  H100     1.0000 0.78410  0.28440  0.54920  Biso   1.000  H
  H101     1.0000 0.08950  0.29890  0.55930  Biso   1.000  H
  H102     1.0000 0.99090  0.32880  0.55660  Biso   1.000  H
  H103     1.0000 0.76070  0.48530  0.45730  Biso   1.000  H
  H104     1.0000 0.79980  0.50930  0.49130  Biso   1.000  H
  H105     1.0000 0.59210  0.47980  0.59180  Biso   1.000  H
  H106     1.0000 0.66440  0.51130  0.58530  Biso   1.000  H
  H107     1.0000 0.06680  0.47970  0.44130  Biso   1.000  H
  H108     1.0000 0.98600  0.45770  0.46850  Biso   1.000  H
  H109     1.0000 0.43720  0.29310  0.14170  Biso   1.000  H
  H110     1.0000 0.40270  0.22890  0.18030  Biso   1.000  H
  H111     1.0000 0.26430  0.20030  0.16810  Biso   1.000  H
  H112     1.0000 0.92580  0.16590  0.11030  Biso   1.000  H
  H113     1.0000 0.87910  0.22930  0.16070  Biso   1.000  H
  H114     1.0000 0.00190  0.27230  0.16390  Biso   1.000  H
  H115     1.0000 0.57490  0.33160  0.95240  Biso   1.000  H
  H116     1.0000 0.88180  0.33160  0.93140  Biso   1.000  H
  H117     1.0000 0.74020  0.29410  0.96190  Biso   1.000  H
  H118     1.0000 0.82540  0.42380  0.83500  Biso   1.000  H
  H119     1.0000 0.96610  0.44770  0.78690  Biso   1.000  H
  H120     1.0000 0.11070  0.45280  0.81660  Biso   1.000  H
  H121     1.0000 0.99150  0.28200  0.02820  Biso   1.000  H
  H122     1.0000 0.89590  0.22530  0.03050  Biso   1.000  H
  H123     1.0000 0.63580  0.32550  0.08250  Biso   1.000  H
  H124     1.0000 0.74430  0.37480  0.07820  Biso   1.000  H
  H125     1.0000 0.79770  0.17460  0.06840  Biso   1.000  H
  H126     1.0000 0.69220  0.12310  0.06950  Biso   1.000  H
  H127     1.0000 0.46970  0.22080  0.03960  Biso   1.000  H
  H128     1.0000 0.56500  0.27680  0.04060  Biso   1.000  H
  H129     1.0000 0.01540  0.46140  0.07720  Biso   1.000  H
  H130     1.0000 0.00200  0.47400  0.03420  Biso   1.000  H
  H131     1.0000 0.36570  0.32170  0.98330  Biso   1.000  H
  H132     1.0000 0.41010  0.29190  0.01270  Biso   1.000  H
  H133     1.0000 0.13150  0.30370  0.93990  Biso   1.000  H
  H134     1.0000 0.21060  0.32550  0.94450  Biso   1.000  H
  H135     1.0000 0.15580  0.18450  0.98610  Biso   1.000  H
  H136     1.0000 0.11770  0.21560  0.95080  Biso   1.000  H
  H137     1.0000 0.44770  0.20110  0.94070  Biso   1.000  H
  H138     1.0000 0.37630  0.17120  0.94340  Biso   1.000  H
  H139     1.0000 0.20330  0.01470  0.04270  Biso   1.000  H
  H140     1.0000 0.30040  0.99070  0.00870  Biso   1.000  H
  H141     1.0000 0.16370  0.02020  0.90820  Biso   1.000  H
  H142     1.0000 0.26100  0.98870  0.91470  Biso   1.000  H
  H143     1.0000 0.48780  0.02030  0.05870  Biso   1.000  H
  H144     1.0000 0.41220  0.04230  0.03150  Biso   1.000  H
  H145     1.0000 0.42110  0.14170  0.20690  Biso   1.000  H
  H146     1.0000 0.41700  0.18030  0.27110  Biso   1.000  H
  H147     1.0000 0.56760  0.16810  0.29970  Biso   1.000  H
  H148     1.0000 0.96390  0.11030  0.33410  Biso   1.000  H
  H149     1.0000 0.96020  0.16070  0.27070  Biso   1.000  H
  H150     1.0000 0.83420  0.16390  0.22770  Biso   1.000  H
  H151     1.0000 0.47270  0.95240  0.16840  Biso   1.000  H
  H152     1.0000 0.18680  0.93140  0.16840  Biso   1.000  H
  H153     1.0000 0.29790  0.96190  0.20590  Biso   1.000  H
  H154     1.0000 0.33960  0.83500  0.07620  Biso   1.000  H
  H155     1.0000 0.24700  0.78690  0.05230  Biso   1.000  H
  H156     1.0000 0.07270  0.81660  0.04720  Biso   1.000  H
  H157     1.0000 0.98030  0.02820  0.21800  Biso   1.000  H
  H158     1.0000 0.07360  0.03050  0.27470  Biso   1.000  H
  H159     1.0000 0.28170  0.08250  0.17450  Biso   1.000  H
  H160     1.0000 0.17750  0.07820  0.12520  Biso   1.000  H
  H161     1.0000 0.13390  0.06840  0.32540  Biso   1.000  H
  H162     1.0000 0.23830  0.06950  0.37690  Biso   1.000  H
  H163     1.0000 0.49070  0.03960  0.27920  Biso   1.000  H
  H164     1.0000 0.39440  0.04060  0.22320  Biso   1.000  H
  H165     1.0000 0.90740  0.07720  0.03860  Biso   1.000  H
  H166     1.0000 0.96380  0.03420  0.02600  Biso   1.000  H
  H167     1.0000 0.65100  0.98330  0.17830  Biso   1.000  H
  H168     1.0000 0.57720  0.01270  0.20810  Biso   1.000  H
  H169     1.0000 0.92860  0.93990  0.19630  Biso   1.000  H
  H170     1.0000 0.84490  0.94450  0.17450  Biso   1.000  H
  H171     1.0000 0.85810  0.98610  0.31550  Biso   1.000  H
  H172     1.0000 0.93150  0.95080  0.28440  Biso   1.000  H
  H173     1.0000 0.61160  0.94070  0.29890  Biso   1.000  H
  H174     1.0000 0.68030  0.94340  0.32880  Biso   1.000  H
  H175     1.0000 0.75400  0.04270  0.48530  Biso   1.000  H
  H176     1.0000 0.69090  0.00870  0.50930  Biso   1.000  H
  H177     1.0000 0.92810  0.90820  0.47980  Biso   1.000  H
  H178     1.0000 0.82430  0.91470  0.51130  Biso   1.000  H
  H179     1.0000 0.45350  0.05870  0.47970  Biso   1.000  H
  H180     1.0000 0.55630  0.03150  0.45770  Biso   1.000  H
  H181     1.0000 0.26970  0.35830  0.29310  Biso   1.000  H
  H182     1.0000 0.36840  0.31970  0.22890  Biso   1.000  H
  H183     1.0000 0.53540  0.33190  0.20030  Biso   1.000  H
  H184     1.0000 0.90830  0.38970  0.16590  Biso   1.000  H
  H185     1.0000 0.89160  0.33930  0.22930  Biso   1.000  H
  H186     1.0000 0.72580  0.33610  0.27230  Biso   1.000  H
  H187     1.0000 0.09350  0.54760  0.33160  Biso   1.000  H
  H188     1.0000 0.78660  0.56860  0.33160  Biso   1.000  H
  H189     1.0000 0.96570  0.53810  0.29410  Biso   1.000  H
  H190     1.0000 0.75080  0.66500  0.42380  Biso   1.000  H
  H191     1.0000 0.58620  0.71310  0.44770  Biso   1.000  H
  H192     1.0000 0.43650  0.68340  0.45280  Biso   1.000  H
  H193     1.0000 0.72650  0.47180  0.28200  Biso   1.000  H
  H194     1.0000 0.87880  0.46950  0.22530  Biso   1.000  H
  H195     1.0000 0.03870  0.41750  0.32550  Biso   1.000  H
  H196     1.0000 0.88090  0.42180  0.37480  Biso   1.000  H
  H197     1.0000 0.02770  0.43160  0.17460  Biso   1.000  H
  H198     1.0000 0.18470  0.43050  0.12310  Biso   1.000  H
  H199     1.0000 0.30950  0.46040  0.22080  Biso   1.000  H
  H200     1.0000 0.15820  0.45940  0.27680  Biso   1.000  H
  H201     1.0000 0.52320  0.42280  0.46140  Biso   1.000  H
  H202     1.0000 0.52400  0.46580  0.47400  Biso   1.000  H
  H203     1.0000 0.31260  0.51670  0.32170  Biso   1.000  H
  H204     1.0000 0.29800  0.48730  0.29190  Biso   1.000  H
  H205     1.0000 0.56480  0.56010  0.30370  Biso   1.000  H
  H206     1.0000 0.46390  0.55550  0.32550  Biso   1.000  H
  H207     1.0000 0.65970  0.51390  0.18450  Biso   1.000  H
  H208     1.0000 0.66670  0.54920  0.21560  Biso   1.000  H
  H209     1.0000 0.35120  0.55930  0.20110  Biso   1.000  H
  H210     1.0000 0.45250  0.55660  0.17120  Biso   1.000  H
  H211     1.0000 0.78200  0.45730  0.01470  Biso   1.000  H
  H212     1.0000 0.70890  0.49130  0.99070  Biso   1.000  H
  H213     1.0000 0.81610  0.59180  0.02020  Biso   1.000  H
  H214     1.0000 0.75030  0.58530  0.98870  Biso   1.000  H
  H215     1.0000 0.49190  0.44130  0.02030  Biso   1.000  H
  H216     1.0000 0.54550  0.46850  0.04230  Biso   1.000  H
  H217     1.0000 0.62800  0.79310  0.64170  Biso   1.000  H
  H218     1.0000 0.68810  0.72890  0.68030  Biso   1.000  H
  H219     1.0000 0.86730  0.70030  0.66810  Biso   1.000  H
  H220     1.0000 0.29800  0.66590  0.61030  Biso   1.000  H
  H221     1.0000 0.23090  0.72930  0.66070  Biso   1.000  H
  H222     1.0000 0.06190  0.77230  0.66390  Biso   1.000  H
  H223     1.0000 0.64110  0.83160  0.45240  Biso   1.000  H
  H224     1.0000 0.35520  0.83160  0.43140  Biso   1.000  H
  H225     1.0000 0.50380  0.79410  0.46190  Biso   1.000  H
  H226     1.0000 0.41580  0.92380  0.33500  Biso   1.000  H
  H227     1.0000 0.29930  0.94770  0.28690  Biso   1.000  H
  H228     1.0000 0.11990  0.95280  0.31660  Biso   1.000  H
  H229     1.0000 0.19830  0.78200  0.52820  Biso   1.000  H
  H230     1.0000 0.34830  0.72530  0.53050  Biso   1.000  H
  H231     1.0000 0.45620  0.82550  0.58250  Biso   1.000  H
  H232     1.0000 0.30270  0.87480  0.57820  Biso   1.000  H
  H233     1.0000 0.45930  0.67460  0.56840  Biso   1.000  H
  H234     1.0000 0.61520  0.62310  0.56950  Biso   1.000  H
  H235     1.0000 0.76990  0.72080  0.53960  Biso   1.000  H
  H236     1.0000 0.61760  0.77680  0.54060  Biso   1.000  H
  H237     1.0000 0.94600  0.96140  0.57720  Biso   1.000  H
  H238     1.0000 0.98980  0.97400  0.53420  Biso   1.000  H
  H239     1.0000 0.82930  0.82170  0.48330  Biso   1.000  H
  H240     1.0000 0.78530  0.79190  0.51270  Biso   1.000  H
  H241     1.0000 0.12490  0.80370  0.43990  Biso   1.000  H
  H242     1.0000 0.01940  0.82550  0.44450  Biso   1.000  H
  H243     1.0000 0.17360  0.68450  0.48610  Biso   1.000  H
  H244     1.0000 0.21590  0.71560  0.45080  Biso   1.000  H
  H245     1.0000 0.91050  0.70110  0.44070  Biso   1.000  H
  H246     1.0000 0.00910  0.67120  0.44340  Biso   1.000  H
  H247     1.0000 0.23930  0.51470  0.54270  Biso   1.000  H
  H248     1.0000 0.20020  0.49070  0.50870  Biso   1.000  H
  H249     1.0000 0.40790  0.52020  0.40820  Biso   1.000  H
  H250     1.0000 0.33560  0.48870  0.41470  Biso   1.000  H
  H251     1.0000 0.93320  0.52030  0.55870  Biso   1.000  H
  H252     1.0000 0.01400  0.54230  0.53150  Biso   1.000  H
  H253     1.0000 0.56280  0.70690  0.85830  Biso   1.000  H
  H254     1.0000 0.59730  0.77110  0.81970  Biso   1.000  H
  H255     1.0000 0.73570  0.79970  0.83190  Biso   1.000  H
  H256     1.0000 0.07420  0.83410  0.88970  Biso   1.000  H
  H257     1.0000 0.12090  0.77070  0.83930  Biso   1.000  H
  H258     1.0000 0.99810  0.72770  0.83610  Biso   1.000  H
  H259     1.0000 0.42510  0.66840  0.04760  Biso   1.000  H
  H260     1.0000 0.11820  0.66840  0.06860  Biso   1.000  H
  H261     1.0000 0.25980  0.70590  0.03810  Biso   1.000  H
  H262     1.0000 0.17460  0.57620  0.16500  Biso   1.000  H
  H263     1.0000 0.03390  0.55230  0.21310  Biso   1.000  H
  H264     1.0000 0.88930  0.54720  0.18340  Biso   1.000  H
  H265     1.0000 0.00850  0.71800  0.97180  Biso   1.000  H
  H266     1.0000 0.10410  0.77470  0.96950  Biso   1.000  H
  H267     1.0000 0.36420  0.67450  0.91750  Biso   1.000  H
  H268     1.0000 0.25570  0.62520  0.92180  Biso   1.000  H
  H269     1.0000 0.20230  0.82540  0.93160  Biso   1.000  H
  H270     1.0000 0.30780  0.87690  0.93050  Biso   1.000  H
  H271     1.0000 0.53030  0.77920  0.96040  Biso   1.000  H
  H272     1.0000 0.43500  0.72320  0.95940  Biso   1.000  H
  H273     1.0000 0.98460  0.53860  0.92280  Biso   1.000  H
  H274     1.0000 0.99800  0.52600  0.96580  Biso   1.000  H
  H275     1.0000 0.63430  0.67830  0.01670  Biso   1.000  H
  H276     1.0000 0.58990  0.70810  0.98730  Biso   1.000  H
  H277     1.0000 0.86850  0.69630  0.06010  Biso   1.000  H
  H278     1.0000 0.78940  0.67450  0.05550  Biso   1.000  H
  H279     1.0000 0.84420  0.81550  0.01390  Biso   1.000  H
  H280     1.0000 0.88230  0.78440  0.04920  Biso   1.000  H
  H281     1.0000 0.55230  0.79890  0.05930  Biso   1.000  H
  H282     1.0000 0.62370  0.82880  0.05660  Biso   1.000  H
  H283     1.0000 0.79670  0.98530  0.95730  Biso   1.000  H
  H284     1.0000 0.69960  0.00930  0.99130  Biso   1.000  H
  H285     1.0000 0.83630  0.97980  0.09180  Biso   1.000  H
  H286     1.0000 0.73900  0.01130  0.08530  Biso   1.000  H
  H287     1.0000 0.51220  0.97970  0.94130  Biso   1.000  H
  H288     1.0000 0.58780  0.95770  0.96850  Biso   1.000  H
  C1       1.0000 0.33827  0.87191  0.75135  Biso   1.000  C
  C2       1.0000 0.33364  0.89311  0.79341  Biso   1.000  C
  C3       1.0000 0.42639  0.88871  0.80831  Biso   1.000  C
  C4       1.0000 0.51767  0.86125  0.78281  Biso   1.000  C
  C5       1.0000 0.52153  0.83910  0.74444  Biso   1.000  C
  C6       1.0000 0.43016  0.84580  0.72808  Biso   1.000  C
  C7       1.0000 0.24504  0.87872  0.73080  Biso   1.000  C
  C8       1.0000 0.24418  0.90790  0.69154  Biso   1.000  C
  C9       1.0000 0.16192  0.91264  0.66652  Biso   1.000  C
  C10      1.0000 0.08913  0.88718  0.68176  Biso   1.000  C
  C11      1.0000 0.08982  0.85697  0.72059  Biso   1.000  C
  C12      1.0000 0.16677  0.85424  0.74562  Biso   1.000  C
  C13      1.0000 0.43137  0.91337  0.84969  Biso   1.000  C
  C14      1.0000 0.23079  0.92017  0.81985  Biso   1.000  C
  C15      1.0000 0.33178  0.93099  0.67385  Biso   1.000  C
  C16      1.0000 0.15658  0.94421  0.62843  Biso   1.000  C
  C17      1.0000 0.57511  0.05451  0.84687  Biso   1.000  C
  C18      1.0000 0.54296  0.06878  0.89430  Biso   1.000  C
  C19      1.0000 0.60917  0.08148  0.91578  Biso   1.000  C
  C20      1.0000 0.71101  0.08420  0.89178  Biso   1.000  C
  C21      1.0000 0.74537  0.06836  0.84730  Biso   1.000  C
  C22      1.0000 0.67726  0.05101  0.82367  Biso   1.000  C
  C23      1.0000 0.93477  0.11847  0.93139  Biso   1.000  C
  C24      1.0000 0.87634  0.08992  0.91460  Biso   1.000  C
  C25      1.0000 0.77665  0.10850  0.91260  Biso   1.000  C
  C26      1.0000 0.72970  0.15347  0.92513  Biso   1.000  C
  C27      1.0000 0.78495  0.18235  0.93995  Biso   1.000  C
  C28      1.0000 0.88960  0.16451  0.94309  Biso   1.000  C
  C29      1.0000 0.43260  0.06895  0.91905  Biso   1.000  C
  C30      1.0000 0.57055  0.09451  0.96659  Biso   1.000  C
  C31      1.0000 0.93360  0.04105  0.90135  Biso   1.000  C
  C32      1.0000 0.03956  0.09758  0.94170  Biso   1.000  C
  C33      1.0000 0.95960  0.96016  0.78984  Biso   1.000  C
  C34      1.0000 0.90242  0.96010  0.75566  Biso   1.000  C
  C35      1.0000 0.80906  0.94555  0.76853  Biso   1.000  C
  C36      1.0000 0.77839  0.92887  0.81555  Biso   1.000  C
  C37      1.0000 0.84227  0.93083  0.84403  Biso   1.000  C
  C38      1.0000 0.74512  0.94385  0.73291  Biso   1.000  C
  C39      1.0000 0.79417  0.93633  0.68493  Biso   1.000  C
  C40      1.0000 0.73032  0.93645  0.65431  Biso   1.000  C
  C41      1.0000 0.58169  0.95364  0.71178  Biso   1.000  C
  C42      1.0000 0.63936  0.95328  0.74580  Biso   1.000  C
  C43      1.0000 0.46153  0.62809  0.74865  Biso   1.000  C
  C44      1.0000 0.52016  0.60689  0.70659  Biso   1.000  C
  C45      1.0000 0.62341  0.61129  0.69169  Biso   1.000  C
  C46      1.0000 0.66173  0.63875  0.71719  Biso   1.000  C
  C47      1.0000 0.60507  0.66090  0.75556  Biso   1.000  C
  C48      1.0000 0.50404  0.65420  0.77192  Biso   1.000  C
  C49      1.0000 0.35456  0.62128  0.76920  Biso   1.000  C
  C50      1.0000 0.34362  0.59210  0.80846  Biso   1.000  C
  C51      1.0000 0.24108  0.58736  0.83348  Biso   1.000  C
  C52      1.0000 0.15807  0.61282  0.81824  Biso   1.000  C
  C53      1.0000 0.16738  0.64303  0.77941  Biso   1.000  C
  C54      1.0000 0.26663  0.64576  0.75438  Biso   1.000  C
  C55      1.0000 0.69443  0.58663  0.65031  Biso   1.000  C
  C56      1.0000 0.47081  0.57983  0.68015  Biso   1.000  C
  C57      1.0000 0.43662  0.56901  0.82615  Biso   1.000  C
  C58      1.0000 0.22922  0.55579  0.87157  Biso   1.000  C
  C59      1.0000 0.97649  0.44549  0.65313  Biso   1.000  C
  C60      1.0000 0.00604  0.43122  0.60570  Biso   1.000  C
  C61      1.0000 0.10643  0.41852  0.58422  Biso   1.000  C
  C62      1.0000 0.18699  0.41580  0.60822  Biso   1.000  C
  C63      1.0000 0.16103  0.43164  0.65270  Biso   1.000  C
  C64      1.0000 0.05194  0.44899  0.67633  Biso   1.000  C
  C65      1.0000 0.48463  0.38153  0.56861  Biso   1.000  C
  C66      1.0000 0.38086  0.41008  0.58540  Biso   1.000  C
  C67      1.0000 0.29775  0.39150  0.58740  Biso   1.000  C
  C68      1.0000 0.30830  0.34653  0.57487  Biso   1.000  C
  C69      1.0000 0.40725  0.31765  0.56005  Biso   1.000  C
  C70      1.0000 0.49720  0.33549  0.55691  Biso   1.000  C
  C71      1.0000 0.92060  0.43105  0.58095  Biso   1.000  C
  C72      1.0000 0.13165  0.40549  0.53341  Biso   1.000  C
  C73      1.0000 0.37600  0.45895  0.59865  Biso   1.000  C
  C74      1.0000 0.57884  0.40242  0.55830  Biso   1.000  C
  C75      1.0000 0.20960  0.53984  0.71016  Biso   1.000  C
  C76      1.0000 0.11818  0.53990  0.74434  Biso   1.000  C
  C77      1.0000 0.02314  0.55445  0.73147  Biso   1.000  C
  C78      1.0000 0.02281  0.57113  0.68445  Biso   1.000  C
  C79      1.0000 0.11713  0.56917  0.65597  Biso   1.000  C
  C80      1.0000 0.92188  0.55615  0.76709  Biso   1.000  C
  C81      1.0000 0.91543  0.56367  0.81507  Biso   1.000  C
  C82      1.0000 0.82108  0.56355  0.84569  Biso   1.000  C
  C83      1.0000 0.74711  0.54636  0.78822  Biso   1.000  C
  C84      1.0000 0.83844  0.54672  0.75420  Biso   1.000  C
  C85      1.0000 0.08962  0.24865  0.37191  Biso   1.000  C
  C86      1.0000 0.12705  0.20659  0.39311  Biso   1.000  C
  C87      1.0000 0.23470  0.19169  0.38871  Biso   1.000  C
  C88      1.0000 0.30048  0.21719  0.36125  Biso   1.000  C
  C89      1.0000 0.26597  0.25556  0.33910  Biso   1.000  C
  C90      1.0000 0.15824  0.27192  0.34580  Biso   1.000  C
  C91      1.0000 0.97584  0.26920  0.37872  Biso   1.000  C
  C92      1.0000 0.93572  0.30846  0.40790  Biso   1.000  C
  C93      1.0000 0.82844  0.33348  0.41264  Biso   1.000  C
  C94      1.0000 0.77089  0.31824  0.38718  Biso   1.000  C
  C95      1.0000 0.81041  0.27941  0.35697  Biso   1.000  C
  C96      1.0000 0.91239  0.25438  0.35424  Biso   1.000  C
  C97      1.0000 0.28106  0.15031  0.41337  Biso   1.000  C
  C98      1.0000 0.05064  0.18015  0.42017  Biso   1.000  C
  C99      1.0000 0.00563  0.32615  0.43099  Biso   1.000  C
  C100     1.0000 0.78501  0.37157  0.44421  Biso   1.000  C
  C101     1.0000 0.42198  0.15313  0.55451  Biso   1.000  C
  C102     1.0000 0.43726  0.10570  0.56878  Biso   1.000  C
  C103     1.0000 0.52495  0.08422  0.58148  Biso   1.000  C
  C104     1.0000 0.60279  0.10822  0.58420  Biso   1.000  C
  C105     1.0000 0.59267  0.15270  0.56836  Biso   1.000  C
  C106     1.0000 0.50093  0.17633  0.55101  Biso   1.000  C
  C107     1.0000 0.86616  0.06861  0.61847  Biso   1.000  C
  C108     1.0000 0.79094  0.08540  0.58992  Biso   1.000  C
  C109     1.0000 0.68925  0.08740  0.60850  Biso   1.000  C
  C110     1.0000 0.65483  0.07487  0.65347  Biso   1.000  C
  C111     1.0000 0.72490  0.06005  0.68235  Biso   1.000  C
  C112     1.0000 0.83269  0.05691  0.66451  Biso   1.000  C
  C113     1.0000 0.35165  0.08095  0.56895  Biso   1.000  C
  C114     1.0000 0.53714  0.03341  0.59451  Biso   1.000  C
  C115     1.0000 0.83495  0.09865  0.54105  Biso   1.000  C
  C116     1.0000 0.98126  0.05830  0.59758  Biso   1.000  C
  C117     1.0000 0.74944  0.21016  0.46016  Biso   1.000  C
  C118     1.0000 0.65808  0.24434  0.46010  Biso   1.000  C
  C119     1.0000 0.57759  0.23147  0.44555  Biso   1.000  C
  C120     1.0000 0.59394  0.18445  0.42887  Biso   1.000  C
  C121     1.0000 0.68630  0.15597  0.43083  Biso   1.000  C
  C122     1.0000 0.47803  0.26709  0.44385  Biso   1.000  C
  C123     1.0000 0.47910  0.31507  0.43633  Biso   1.000  C
  C124     1.0000 0.38463  0.34569  0.43645  Biso   1.000  C
  C125     1.0000 0.29347  0.28822  0.45364  Biso   1.000  C
  C126     1.0000 0.38516  0.25420  0.45328  Biso   1.000  C
  C127     1.0000 0.21018  0.25135  0.12809  Biso   1.000  C
  C128     1.0000 0.22675  0.29341  0.10689  Biso   1.000  C
  C129     1.0000 0.31510  0.30831  0.11129  Biso   1.000  C
  C130     1.0000 0.37892  0.28281  0.13875  Biso   1.000  C
  C131     1.0000 0.36063  0.24444  0.16090  Biso   1.000  C
  C132     1.0000 0.27596  0.22808  0.15420  Biso   1.000  C
  C133     1.0000 0.12376  0.23080  0.12128  Biso   1.000  C
  C134     1.0000 0.15208  0.19154  0.09210  Biso   1.000  C
  C135     1.0000 0.07456  0.16652  0.08736  Biso   1.000  C
  C136     1.0000 0.97631  0.18176  0.11282  Biso   1.000  C
  C137     1.0000 0.94679  0.22059  0.14303  Biso   1.000  C
  C138     1.0000 0.02101  0.24562  0.14576  Biso   1.000  C
  C139     1.0000 0.34474  0.34969  0.08663  Biso   1.000  C
  C140     1.0000 0.15096  0.31985  0.07983  Biso   1.000  C
  C141     1.0000 0.26277  0.17385  0.06901  Biso   1.000  C
  C142     1.0000 0.10079  0.12843  0.05579  Biso   1.000  C
  C143     1.0000 0.62962  0.34687  0.94549  Biso   1.000  C
  C144     1.0000 0.61174  0.39430  0.93122  Biso   1.000  C
  C145     1.0000 0.69065  0.41578  0.91852  Biso   1.000  C
  C146     1.0000 0.79521  0.39178  0.91580  Biso   1.000  C
  C147     1.0000 0.81373  0.34730  0.93164  Biso   1.000  C
  C148     1.0000 0.72827  0.32367  0.94899  Biso   1.000  C
  C149     1.0000 0.05324  0.43139  0.88153  Biso   1.000  C
  C150     1.0000 0.96626  0.41460  0.91008  Biso   1.000  C
  C151     1.0000 0.88515  0.41260  0.89150  Biso   1.000  C
  C152     1.0000 0.88317  0.42513  0.84653  Biso   1.000  C
  C153     1.0000 0.96730  0.43995  0.81765  Biso   1.000  C
  C154     1.0000 0.05411  0.44309  0.83549  Biso   1.000  C
  C155     1.0000 0.50155  0.41905  0.93105  Biso   1.000  C
  C156     1.0000 0.66506  0.46659  0.90549  Biso   1.000  C
  C157     1.0000 0.97465  0.40135  0.95895  Biso   1.000  C
  C158     1.0000 0.13714  0.44170  0.90242  Biso   1.000  C
  C159     1.0000 0.91976  0.28984  0.03984  Biso   1.000  C
  C160     1.0000 0.86252  0.25566  0.03990  Biso   1.000  C
  C161     1.0000 0.75461  0.26853  0.05445  Biso   1.000  C
  C162     1.0000 0.70726  0.31555  0.07113  Biso   1.000  C
  C163     1.0000 0.77310  0.34403  0.06917  Biso   1.000  C
  C164     1.0000 0.68897  0.23291  0.05615  Biso   1.000  C
  C165     1.0000 0.73050  0.18493  0.06367  Biso   1.000  C
  C166     1.0000 0.66677  0.15431  0.06355  Biso   1.000  C
  C167     1.0000 0.53533  0.21178  0.04636  Biso   1.000  C
  C168     1.0000 0.59264  0.24580  0.04672  Biso   1.000  C
  C169     1.0000 0.66173  0.12809  0.24865  Biso   1.000  C
  C170     1.0000 0.66636  0.10689  0.20659  Biso   1.000  C
  C171     1.0000 0.57361  0.11129  0.19169  Biso   1.000  C
  C172     1.0000 0.48233  0.13875  0.21719  Biso   1.000  C
  C173     1.0000 0.47847  0.16090  0.25556  Biso   1.000  C
  C174     1.0000 0.56984  0.15420  0.27192  Biso   1.000  C
  C175     1.0000 0.75496  0.12128  0.26920  Biso   1.000  C
  C176     1.0000 0.75582  0.09210  0.30846  Biso   1.000  C
  C177     1.0000 0.83808  0.08736  0.33348  Biso   1.000  C
  C178     1.0000 0.91087  0.11282  0.31824  Biso   1.000  C
  C179     1.0000 0.91018  0.14303  0.27941  Biso   1.000  C
  C180     1.0000 0.83323  0.14576  0.25438  Biso   1.000  C
  C181     1.0000 0.56863  0.08663  0.15031  Biso   1.000  C
  C182     1.0000 0.76921  0.07983  0.18015  Biso   1.000  C
  C183     1.0000 0.66822  0.06901  0.32615  Biso   1.000  C
  C184     1.0000 0.84342  0.05579  0.37157  Biso   1.000  C
  C185     1.0000 0.42489  0.94549  0.15313  Biso   1.000  C
  C186     1.0000 0.45704  0.93122  0.10570  Biso   1.000  C
  C187     1.0000 0.39083  0.91852  0.08422  Biso   1.000  C
  C188     1.0000 0.28899  0.91580  0.10822  Biso   1.000  C
  C189     1.0000 0.25463  0.93164  0.15270  Biso   1.000  C
  C190     1.0000 0.32274  0.94899  0.17633  Biso   1.000  C
  C191     1.0000 0.06523  0.88153  0.06861  Biso   1.000  C
  C192     1.0000 0.12366  0.91008  0.08540  Biso   1.000  C
  C193     1.0000 0.22335  0.89150  0.08740  Biso   1.000  C
  C194     1.0000 0.27030  0.84653  0.07487  Biso   1.000  C
  C195     1.0000 0.21505  0.81765  0.06005  Biso   1.000  C
  C196     1.0000 0.11040  0.83549  0.05691  Biso   1.000  C
  C197     1.0000 0.56740  0.93105  0.08095  Biso   1.000  C
  C198     1.0000 0.42945  0.90549  0.03341  Biso   1.000  C
  C199     1.0000 0.06640  0.95895  0.09865  Biso   1.000  C
  C200     1.0000 0.96044  0.90242  0.05830  Biso   1.000  C
  C201     1.0000 0.04040  0.03984  0.21016  Biso   1.000  C
  C202     1.0000 0.09758  0.03990  0.24434  Biso   1.000  C
  C203     1.0000 0.19094  0.05445  0.23147  Biso   1.000  C
  C204     1.0000 0.22161  0.07113  0.18445  Biso   1.000  C
  C205     1.0000 0.15773  0.06917  0.15597  Biso   1.000  C
  C206     1.0000 0.25488  0.05615  0.26709  Biso   1.000  C
  C207     1.0000 0.20583  0.06367  0.31507  Biso   1.000  C
  C208     1.0000 0.26968  0.06355  0.34569  Biso   1.000  C
  C209     1.0000 0.41831  0.04636  0.28822  Biso   1.000  C
  C210     1.0000 0.36064  0.04672  0.25420  Biso   1.000  C
  C211     1.0000 0.53847  0.37191  0.25135  Biso   1.000  C
  C212     1.0000 0.47984  0.39311  0.29341  Biso   1.000  C
  C213     1.0000 0.37659  0.38871  0.30831  Biso   1.000  C
  C214     1.0000 0.33827  0.36125  0.28281  Biso   1.000  C
  C215     1.0000 0.39493  0.33910  0.24444  Biso   1.000  C
  C216     1.0000 0.49596  0.34580  0.22808  Biso   1.000  C
  C217     1.0000 0.64544  0.37872  0.23080  Biso   1.000  C
  C218     1.0000 0.65638  0.40790  0.19154  Biso   1.000  C
  C219     1.0000 0.75892  0.41264  0.16652  Biso   1.000  C
  C220     1.0000 0.84193  0.38718  0.18176  Biso   1.000  C
  C221     1.0000 0.83262  0.35697  0.22059  Biso   1.000  C
  C222     1.0000 0.73337  0.35424  0.24562  Biso   1.000  C
  C223     1.0000 0.30557  0.41337  0.34969  Biso   1.000  C
  C224     1.0000 0.52919  0.42017  0.31985  Biso   1.000  C
  C225     1.0000 0.56338  0.43099  0.17385  Biso   1.000  C
  C226     1.0000 0.77078  0.44421  0.12843  Biso   1.000  C
  C227     1.0000 0.02351  0.55451  0.34687  Biso   1.000  C
  C228     1.0000 0.99396  0.56878  0.39430  Biso   1.000  C
  C229     1.0000 0.89357  0.58148  0.41578  Biso   1.000  C
  C230     1.0000 0.81301  0.58420  0.39178  Biso   1.000  C
  C231     1.0000 0.83897  0.56836  0.34730  Biso   1.000  C
  C232     1.0000 0.94806  0.55101  0.32367  Biso   1.000  C
  C233     1.0000 0.51537  0.61847  0.43139  Biso   1.000  C
  C234     1.0000 0.61914  0.58992  0.41460  Biso   1.000  C
  C235     1.0000 0.70225  0.60850  0.41260  Biso   1.000  C
  C236     1.0000 0.69170  0.65347  0.42513  Biso   1.000  C
  C237     1.0000 0.59275  0.68235  0.43995  Biso   1.000  C
  C238     1.0000 0.50280  0.66451  0.44309  Biso   1.000  C
  C239     1.0000 0.07940  0.56895  0.41905  Biso   1.000  C
  C240     1.0000 0.86835  0.59451  0.46659  Biso   1.000  C
  C241     1.0000 0.62400  0.54105  0.40135  Biso   1.000  C
  C242     1.0000 0.42116  0.59758  0.44170  Biso   1.000  C
  C243     1.0000 0.79040  0.46016  0.28984  Biso   1.000  C
  C244     1.0000 0.88182  0.46010  0.25566  Biso   1.000  C
  C245     1.0000 0.97686  0.44555  0.26853  Biso   1.000  C
  C246     1.0000 0.97719  0.42887  0.31555  Biso   1.000  C
  C247     1.0000 0.88287  0.43083  0.34403  Biso   1.000  C
  C248     1.0000 0.07812  0.44385  0.23291  Biso   1.000  C
  C249     1.0000 0.08457  0.43633  0.18493  Biso   1.000  C
  C250     1.0000 0.17892  0.43645  0.15431  Biso   1.000  C
  C251     1.0000 0.25289  0.45364  0.21178  Biso   1.000  C
  C252     1.0000 0.16156  0.45328  0.24580  Biso   1.000  C
  C253     1.0000 0.91038  0.75135  0.62809  Biso   1.000  C
  C254     1.0000 0.87295  0.79341  0.60689  Biso   1.000  C
  C255     1.0000 0.76530  0.80831  0.61129  Biso   1.000  C
  C256     1.0000 0.69952  0.78281  0.63875  Biso   1.000  C
  C257     1.0000 0.73403  0.74444  0.66090  Biso   1.000  C
  C258     1.0000 0.84176  0.72808  0.65420  Biso   1.000  C
  C259     1.0000 0.02416  0.73080  0.62128  Biso   1.000  C
  C260     1.0000 0.06428  0.69154  0.59210  Biso   1.000  C
  C261     1.0000 0.17156  0.66652  0.58736  Biso   1.000  C
  C262     1.0000 0.22911  0.68176  0.61282  Biso   1.000  C
  C263     1.0000 0.18959  0.72059  0.64303  Biso   1.000  C
  C264     1.0000 0.08761  0.74562  0.64576  Biso   1.000  C
  C265     1.0000 0.71894  0.84969  0.58663  Biso   1.000  C
  C266     1.0000 0.94936  0.81985  0.57983  Biso   1.000  C
  C267     1.0000 0.99437  0.67385  0.56901  Biso   1.000  C
  C268     1.0000 0.21499  0.62843  0.55579  Biso   1.000  C
  C269     1.0000 0.57802  0.84687  0.44549  Biso   1.000  C
  C270     1.0000 0.56274  0.89430  0.43122  Biso   1.000  C
  C271     1.0000 0.47505  0.91578  0.41852  Biso   1.000  C
  C272     1.0000 0.39721  0.89178  0.41580  Biso   1.000  C
  C273     1.0000 0.40733  0.84730  0.43164  Biso   1.000  C
  C274     1.0000 0.49907  0.82367  0.44899  Biso   1.000  C
  C275     1.0000 0.13384  0.93139  0.38153  Biso   1.000  C
  C276     1.0000 0.20906  0.91460  0.41008  Biso   1.000  C
  C277     1.0000 0.31075  0.91260  0.39150  Biso   1.000  C
  C278     1.0000 0.34517  0.92513  0.34653  Biso   1.000  C
  C279     1.0000 0.27510  0.93995  0.31765  Biso   1.000  C
  C280     1.0000 0.16731  0.94309  0.33549  Biso   1.000  C
  C281     1.0000 0.64835  0.91905  0.43105  Biso   1.000  C
  C282     1.0000 0.46286  0.96659  0.40549  Biso   1.000  C
  C283     1.0000 0.16505  0.90135  0.45895  Biso   1.000  C
  C284     1.0000 0.01874  0.94170  0.40242  Biso   1.000  C
  C285     1.0000 0.25056  0.78984  0.53984  Biso   1.000  C
  C286     1.0000 0.34192  0.75566  0.53990  Biso   1.000  C
  C287     1.0000 0.42241  0.76853  0.55445  Biso   1.000  C
  C288     1.0000 0.40606  0.81555  0.57113  Biso   1.000  C
  C289     1.0000 0.31370  0.84403  0.56917  Biso   1.000  C
  C290     1.0000 0.52197  0.73291  0.55615  Biso   1.000  C
  C291     1.0000 0.52090  0.68493  0.56367  Biso   1.000  C
  C292     1.0000 0.61537  0.65431  0.56355  Biso   1.000  C
  C293     1.0000 0.70653  0.71178  0.54636  Biso   1.000  C
  C294     1.0000 0.61484  0.74580  0.54672  Biso   1.000  C
  C295     1.0000 0.78982  0.74865  0.87191  Biso   1.000  C
  C296     1.0000 0.77325  0.70659  0.89311  Biso   1.000  C
  C297     1.0000 0.68490  0.69169  0.88871  Biso   1.000  C
  C298     1.0000 0.62108  0.71719  0.86125  Biso   1.000  C
  C299     1.0000 0.63937  0.75556  0.83910  Biso   1.000  C
  C300     1.0000 0.72404  0.77192  0.84580  Biso   1.000  C
  C301     1.0000 0.87624  0.76920  0.87872  Biso   1.000  C
  C302     1.0000 0.84792  0.80846  0.90790  Biso   1.000  C
  C303     1.0000 0.92544  0.83348  0.91264  Biso   1.000  C
  C304     1.0000 0.02369  0.81824  0.88718  Biso   1.000  C
  C305     1.0000 0.05321  0.77941  0.85697  Biso   1.000  C
  C306     1.0000 0.97899  0.75438  0.85424  Biso   1.000  C
  C307     1.0000 0.65526  0.65031  0.91337  Biso   1.000  C
  C308     1.0000 0.84904  0.68015  0.92017  Biso   1.000  C
  C309     1.0000 0.73723  0.82615  0.93099  Biso   1.000  C
  C310     1.0000 0.89921  0.87157  0.94421  Biso   1.000  C
  C311     1.0000 0.37038  0.65313  0.05451  Biso   1.000  C
  C312     1.0000 0.38826  0.60570  0.06878  Biso   1.000  C
  C313     1.0000 0.30935  0.58422  0.08148  Biso   1.000  C
  C314     1.0000 0.20479  0.60822  0.08420  Biso   1.000  C
  C315     1.0000 0.18627  0.65270  0.06836  Biso   1.000  C
  C316     1.0000 0.27173  0.67633  0.05101  Biso   1.000  C
  C317     1.0000 0.94676  0.56861  0.11847  Biso   1.000  C
  C318     1.0000 0.03374  0.58540  0.08992  Biso   1.000  C
  C319     1.0000 0.11485  0.58740  0.10850  Biso   1.000  C
  C320     1.0000 0.11683  0.57487  0.15347  Biso   1.000  C
  C321     1.0000 0.03270  0.56005  0.18235  Biso   1.000  C
  C322     1.0000 0.94589  0.55691  0.16451  Biso   1.000  C
  C323     1.0000 0.49845  0.58095  0.06895  Biso   1.000  C
  C324     1.0000 0.33494  0.53341  0.09451  Biso   1.000  C
  C325     1.0000 0.02535  0.59865  0.04105  Biso   1.000  C
  C326     1.0000 0.86286  0.55830  0.09758  Biso   1.000  C
  C327     1.0000 0.08024  0.71016  0.96016  Biso   1.000  C
  C328     1.0000 0.13748  0.74434  0.96010  Biso   1.000  C
  C329     1.0000 0.24539  0.73147  0.94555  Biso   1.000  C
  C330     1.0000 0.29274  0.68445  0.92887  Biso   1.000  C
  C331     1.0000 0.22690  0.65597  0.93083  Biso   1.000  C
  C332     1.0000 0.31103  0.76709  0.94385  Biso   1.000  C
  C333     1.0000 0.26950  0.81507  0.93633  Biso   1.000  C
  C334     1.0000 0.33323  0.84569  0.93645  Biso   1.000  C
  C335     1.0000 0.46467  0.78822  0.95364  Biso   1.000  C
  C336     1.0000 0.40736  0.75420  0.95328  Biso   1.000  C
  N1       1.0000 0.93301  0.94500  0.83118  Biso   1.000  N
  N2       1.0000 0.62708  0.94462  0.66682  Biso   1.000  N
  N3       1.0000 0.20919  0.55500  0.66882  Biso   1.000  N
  N4       1.0000 0.73852  0.55538  0.83318  Biso   1.000  N
  N5       1.0000 0.76419  0.16882  0.44500  Biso   1.000  N
  N6       1.0000 0.29390  0.33318  0.44462  Biso   1.000  N
  N7       1.0000 0.87801  0.33118  0.05500  Biso   1.000  N
  N8       1.0000 0.57170  0.16682  0.05538  Biso   1.000  N
  N9       1.0000 0.06699  0.05500  0.16882  Biso   1.000  N
  N10      1.0000 0.37292  0.05538  0.33318  Biso   1.000  N
  N11      1.0000 0.79081  0.44500  0.33118  Biso   1.000  N
  N12      1.0000 0.26148  0.44462  0.16682  Biso   1.000  N
  N13      1.0000 0.23581  0.83118  0.55500  Biso   1.000  N
  N14      1.0000 0.70610  0.66682  0.55538  Biso   1.000  N
  N15      1.0000 0.12199  0.66882  0.94500  Biso   1.000  N
  N16      1.0000 0.42830  0.83318  0.94462  Biso   1.000  N
  O1       1.0000 0.18903  0.95981  0.80473  Biso   1.000  O
  O2       1.0000 0.18382  0.90161  0.85375  Biso   1.000  O
  O3       1.0000 0.36454  0.95035  0.86257  Biso   1.000  O
  O4       1.0000 0.50377  0.89817  0.86949  Biso   1.000  O
  O5       1.0000 0.34947  0.96060  0.69626  Biso   1.000  O
  O6       1.0000 0.39177  0.91366  0.63680  Biso   1.000  O
  O7       1.0000 0.18907  0.98176  0.62830  Biso   1.000  O
  O8       1.0000 0.12194  0.93486  0.59566  Biso   1.000  O
  O9       1.0000 0.61725  0.07358  0.99552  Biso   1.000  O
  O10      1.0000 0.48647  0.12586  0.97780  Biso   1.000  O
  O11      1.0000 0.41696  0.04070  0.95198  Biso   1.000  O
  O12      1.0000 0.35703  0.09758  0.90776  Biso   1.000  O
  O13      1.0000 0.02135  0.03296  0.87674  Biso   1.000  O
  O14      1.0000 0.88737  0.00926  0.91820  Biso   1.000  O
  O15      1.0000 0.11163  0.11852  0.92402  Biso   1.000  O
  O16      1.0000 0.05116  0.06525  0.96763  Biso   1.000  O
  O17      1.0000 0.09192  0.95240  0.95216  Biso   1.000  O
  O18      1.0000 0.37367  0.01331  0.79075  Biso   1.000  O
  O19      1.0000 0.13325  0.06790  0.80000  Biso   1.000  O
  O20      1.0000 0.11325  0.02144  0.71446  Biso   1.000  O
  O21      1.0000 0.32079  0.06496  0.69986  Biso   1.000  O
  O22      1.0000 0.28727  0.97663  0.51723  Biso   1.000  O
  O23      1.0000 0.13850  0.09362  0.51758  Biso   1.000  O
  O24      1.0000 0.48745  0.94040  0.54150  Biso   1.000  O
  O25      1.0000 0.45357  0.54019  0.69527  Biso   1.000  O
  O26      1.0000 0.43918  0.59839  0.64625  Biso   1.000  O
  O27      1.0000 0.67746  0.54965  0.63743  Biso   1.000  O
  O28      1.0000 0.77143  0.60183  0.63051  Biso   1.000  O
  O29      1.0000 0.50633  0.53940  0.80374  Biso   1.000  O
  O30      1.0000 0.44223  0.58634  0.86320  Biso   1.000  O
  O31      1.0000 0.29913  0.51824  0.87170  Biso   1.000  O
  O32      1.0000 0.15246  0.56514  0.90434  Biso   1.000  O
  O33      1.0000 0.18635  0.42642  0.50448  Biso   1.000  O
  O34      1.0000 0.09013  0.37414  0.52220  Biso   1.000  O
  O35      1.0000 0.90964  0.45930  0.54802  Biso   1.000  O
  O36      1.0000 0.86237  0.40242  0.59224  Biso   1.000  O
  O37      1.0000 0.43105  0.46704  0.62326  Biso   1.000  O
  O38      1.0000 0.31483  0.49074  0.58180  Biso   1.000  O
  O39      1.0000 0.65417  0.38148  0.57598  Biso   1.000  O
  O40      1.0000 0.58404  0.43475  0.53237  Biso   1.000  O
  O41      1.0000 0.49648  0.54760  0.54784  Biso   1.000  O
  O42      1.0000 0.67773  0.48669  0.70925  Biso   1.000  O
  O43      1.0000 0.50115  0.43210  0.70000  Biso   1.000  O
  O44      1.0000 0.34915  0.47856  0.78554  Biso   1.000  O
  O45      1.0000 0.58561  0.43504  0.80014  Biso   1.000  O
  O46      1.0000 0.28113  0.52337  0.98277  Biso   1.000  O
  O47      1.0000 0.24970  0.40638  0.98242  Biso   1.000  O
  O48      1.0000 0.46935  0.55960  0.95850  Biso   1.000  O
  O49      1.0000 0.99376  0.19527  0.45981  Biso   1.000  O
  O50      1.0000 0.03757  0.14625  0.40161  Biso   1.000  O
  O51      1.0000 0.22711  0.13743  0.45035  Biso   1.000  O
  O52      1.0000 0.37326  0.13051  0.39817  Biso   1.000  O
  O53      1.0000 0.04573  0.30374  0.46060  Biso   1.000  O
  O54      1.0000 0.02857  0.36320  0.41366  Biso   1.000  O
  O55      1.0000 0.81737  0.37170  0.48176  Biso   1.000  O
  O56      1.0000 0.71760  0.40434  0.43486  Biso   1.000  O
  O57      1.0000 0.61277  0.00448  0.57358  Biso   1.000  O
  O58      1.0000 0.46427  0.02220  0.62586  Biso   1.000  O
  O59      1.0000 0.36894  0.04802  0.54070  Biso   1.000  O
  O60      1.0000 0.26479  0.09224  0.59758  Biso   1.000  O
  O61      1.0000 0.89809  0.12326  0.53296  Biso   1.000  O
  O62      1.0000 0.80557  0.08180  0.50926  Biso   1.000  O
  O63      1.0000 0.03565  0.07598  0.61852  Biso   1.000  O
  O64      1.0000 0.01879  0.03237  0.56525  Biso   1.000  O
  O65      1.0000 0.04408  0.04784  0.45240  Biso   1.000  O
  O66      1.0000 0.16442  0.20925  0.51331  Biso   1.000  O
  O67      1.0000 0.93325  0.20000  0.56790  Biso   1.000  O
  O68      1.0000 0.82771  0.28554  0.52144  Biso   1.000  O
  O69      1.0000 0.02065  0.30014  0.56496  Biso   1.000  O
  O70      1.0000 0.80450  0.48277  0.47663  Biso   1.000  O
  O71      1.0000 0.65608  0.48242  0.59362  Biso   1.000  O
  O72      1.0000 0.02895  0.45850  0.44040  Biso   1.000  O
  O73      1.0000 0.14884  0.30473  0.04019  Biso   1.000  O
  O74      1.0000 0.08543  0.35375  0.09839  Biso   1.000  O
  O75      1.0000 0.31489  0.36257  0.04965  Biso   1.000  O
  O76      1.0000 0.40194  0.36949  0.10183  Biso   1.000  O
  O77      1.0000 0.31007  0.19626  0.03940  Biso   1.000  O
  O78      1.0000 0.30543  0.13680  0.08634  Biso   1.000  O
  O79      1.0000 0.17083  0.12830  0.01824  Biso   1.000  O
  O80      1.0000 0.05680  0.09566  0.06514  Biso   1.000  O
  O81      1.0000 0.69083  0.49552  0.92642  Biso   1.000  O
  O82      1.0000 0.61233  0.47780  0.87414  Biso   1.000  O
  O83      1.0000 0.45766  0.45198  0.95930  Biso   1.000  O
  O84      1.0000 0.45461  0.40776  0.90242  Biso   1.000  O
  O85      1.0000 0.05431  0.37674  0.96704  Biso   1.000  O
  O86      1.0000 0.89663  0.41820  0.99074  Biso   1.000  O
  O87      1.0000 0.23015  0.42402  0.88148  Biso   1.000  O
  O88      1.0000 0.11641  0.46763  0.93475  Biso   1.000  O
  O89      1.0000 0.04432  0.45216  0.04760  Biso   1.000  O
  O90      1.0000 0.38698  0.29075  0.98669  Biso   1.000  O
  O91      1.0000 0.20115  0.30000  0.93210  Biso   1.000  O
  O92      1.0000 0.13469  0.21446  0.97856  Biso   1.000  O
  O93      1.0000 0.38575  0.19986  0.93504  Biso   1.000  O
  O94      1.0000 0.26390  0.01723  0.02337  Biso   1.000  O
  O95      1.0000 0.23212  0.01758  0.90638  Biso   1.000  O
  O96      1.0000 0.42785  0.04150  0.05960  Biso   1.000  O
  O97      1.0000 0.81097  0.04019  0.19527  Biso   1.000  O
  O98      1.0000 0.81618  0.09839  0.14625  Biso   1.000  O
  O99      1.0000 0.63546  0.04965  0.13743  Biso   1.000  O
  O100     1.0000 0.49623  0.10183  0.13051  Biso   1.000  O
  O101     1.0000 0.65053  0.03940  0.30374  Biso   1.000  O
  O102     1.0000 0.60823  0.08634  0.36320  Biso   1.000  O
  O103     1.0000 0.81093  0.01824  0.37170  Biso   1.000  O
  O104     1.0000 0.87806  0.06514  0.40434  Biso   1.000  O
  O105     1.0000 0.38275  0.92642  0.00448  Biso   1.000  O
  O106     1.0000 0.51353  0.87414  0.02220  Biso   1.000  O
  O107     1.0000 0.58304  0.95930  0.04802  Biso   1.000  O
  O108     1.0000 0.64297  0.90242  0.09224  Biso   1.000  O
  O109     1.0000 0.97865  0.96704  0.12326  Biso   1.000  O
  O110     1.0000 0.11263  0.99074  0.08180  Biso   1.000  O
  O111     1.0000 0.88837  0.88148  0.07598  Biso   1.000  O
  O112     1.0000 0.94884  0.93475  0.03237  Biso   1.000  O
  O113     1.0000 0.90808  0.04760  0.04784  Biso   1.000  O
  O114     1.0000 0.62633  0.98669  0.20925  Biso   1.000  O
  O115     1.0000 0.86675  0.93210  0.20000  Biso   1.000  O
  O116     1.0000 0.88675  0.97856  0.28554  Biso   1.000  O
  O117     1.0000 0.67921  0.93504  0.30014  Biso   1.000  O
  O118     1.0000 0.71273  0.02337  0.48277  Biso   1.000  O
  O119     1.0000 0.86150  0.90638  0.48242  Biso   1.000  O
  O120     1.0000 0.51255  0.05960  0.45850  Biso   1.000  O
  O121     1.0000 0.54643  0.45981  0.30473  Biso   1.000  O
  O122     1.0000 0.56082  0.40161  0.35375  Biso   1.000  O
  O123     1.0000 0.32254  0.45035  0.36257  Biso   1.000  O
  O124     1.0000 0.22857  0.39817  0.36949  Biso   1.000  O
  O125     1.0000 0.49367  0.46060  0.19626  Biso   1.000  O
  O126     1.0000 0.55777  0.41366  0.13680  Biso   1.000  O
  O127     1.0000 0.70087  0.48176  0.12830  Biso   1.000  O
  O128     1.0000 0.84754  0.43486  0.09566  Biso   1.000  O
  O129     1.0000 0.81365  0.57358  0.49552  Biso   1.000  O
  O130     1.0000 0.90987  0.62586  0.47780  Biso   1.000  O
  O131     1.0000 0.09036  0.54070  0.45198  Biso   1.000  O
  O132     1.0000 0.13763  0.59758  0.40776  Biso   1.000  O
  O133     1.0000 0.56895  0.53296  0.37674  Biso   1.000  O
  O134     1.0000 0.68517  0.50926  0.41820  Biso   1.000  O
  O135     1.0000 0.34583  0.61852  0.42402  Biso   1.000  O
  O136     1.0000 0.41596  0.56525  0.46763  Biso   1.000  O
  O137     1.0000 0.50352  0.45240  0.45216  Biso   1.000  O
  O138     1.0000 0.32227  0.51331  0.29075  Biso   1.000  O
  O139     1.0000 0.49885  0.56790  0.30000  Biso   1.000  O
  O140     1.0000 0.65085  0.52144  0.21446  Biso   1.000  O
  O141     1.0000 0.41439  0.56496  0.19986  Biso   1.000  O
  O142     1.0000 0.71887  0.47663  0.01723  Biso   1.000  O
  O143     1.0000 0.75030  0.59362  0.01758  Biso   1.000  O
  O144     1.0000 0.53065  0.44040  0.04150  Biso   1.000  O
  O145     1.0000 0.00624  0.80473  0.54019  Biso   1.000  O
  O146     1.0000 0.96243  0.85375  0.59839  Biso   1.000  O
  O147     1.0000 0.77289  0.86257  0.54965  Biso   1.000  O
  O148     1.0000 0.62674  0.86949  0.60183  Biso   1.000  O
  O149     1.0000 0.95427  0.69626  0.53940  Biso   1.000  O
  O150     1.0000 0.97143  0.63680  0.58634  Biso   1.000  O
  O151     1.0000 0.18263  0.62830  0.51824  Biso   1.000  O
  O152     1.0000 0.28240  0.59566  0.56514  Biso   1.000  O
  O153     1.0000 0.38723  0.99552  0.42642  Biso   1.000  O
  O154     1.0000 0.53573  0.97780  0.37414  Biso   1.000  O
  O155     1.0000 0.63106  0.95198  0.45930  Biso   1.000  O
  O156     1.0000 0.73521  0.90776  0.40242  Biso   1.000  O
  O157     1.0000 0.10191  0.87674  0.46704  Biso   1.000  O
  O158     1.0000 0.19443  0.91820  0.49074  Biso   1.000  O
  O159     1.0000 0.96435  0.92402  0.38148  Biso   1.000  O
  O160     1.0000 0.98121  0.96763  0.43475  Biso   1.000  O
  O161     1.0000 0.95592  0.95216  0.54760  Biso   1.000  O
  O162     1.0000 0.83558  0.79075  0.48669  Biso   1.000  O
  O163     1.0000 0.06675  0.80000  0.43210  Biso   1.000  O
  O164     1.0000 0.17229  0.71446  0.47856  Biso   1.000  O
  O165     1.0000 0.97935  0.69986  0.43504  Biso   1.000  O
  O166     1.0000 0.19550  0.51723  0.52337  Biso   1.000  O
  O167     1.0000 0.34392  0.51758  0.40638  Biso   1.000  O
  O168     1.0000 0.97105  0.54150  0.55960  Biso   1.000  O
  O169     1.0000 0.85116  0.69527  0.95981  Biso   1.000  O
  O170     1.0000 0.91457  0.64625  0.90161  Biso   1.000  O
  O171     1.0000 0.68511  0.63743  0.95035  Biso   1.000  O
  O172     1.0000 0.59806  0.63051  0.89817  Biso   1.000  O
  O173     1.0000 0.68993  0.80374  0.96060  Biso   1.000  O
  O174     1.0000 0.69457  0.86320  0.91366  Biso   1.000  O
  O175     1.0000 0.82917  0.87170  0.98176  Biso   1.000  O
  O176     1.0000 0.94320  0.90434  0.93486  Biso   1.000  O
  O177     1.0000 0.30917  0.50448  0.07358  Biso   1.000  O
  O178     1.0000 0.38767  0.52220  0.12586  Biso   1.000  O
  O179     1.0000 0.54234  0.54802  0.04070  Biso   1.000  O
  O180     1.0000 0.54539  0.59224  0.09758  Biso   1.000  O
  O181     1.0000 0.94569  0.62326  0.03296  Biso   1.000  O
  O182     1.0000 0.10337  0.58180  0.00926  Biso   1.000  O
  O183     1.0000 0.76985  0.57598  0.11852  Biso   1.000  O
  O184     1.0000 0.88359  0.53237  0.06525  Biso   1.000  O
  O185     1.0000 0.95568  0.54784  0.95240  Biso   1.000  O
  O186     1.0000 0.61302  0.70925  0.01331  Biso   1.000  O
  O187     1.0000 0.79885  0.70000  0.06790  Biso   1.000  O
  O188     1.0000 0.86531  0.78554  0.02144  Biso   1.000  O
  O189     1.0000 0.61425  0.80014  0.06496  Biso   1.000  O
  O190     1.0000 0.73610  0.98277  0.97663  Biso   1.000  O
  O191     1.0000 0.76788  0.98242  0.09362  Biso   1.000  O
  O192     1.0000 0.57215  0.95850  0.94040  Biso   1.000  O
