data_image0
_cell_length_a       37.2911
_cell_length_b       37.2911
_cell_length_c       37.5132
_cell_angle_alpha    60.1957
_cell_angle_beta     60.1957
_cell_angle_gamma    60

_symmetry_space_group_name_H-M    P 1
_symmetry_int_tables_number       1

loop_
  _symmetry_equiv_pos_as_xyz
  'x, y, z'

loop_
  _atom_site_label
  _atom_site_occupancy
  _atom_site_fract_x
  _atom_site_fract_y
  _atom_site_fract_z
  _atom_site_thermal_displace_type
  _atom_site_B_iso_or_equiv
  _atom_site_type_symbol
  Cu1      1.0000 0.90805  0.37269  0.27597  Biso   1.000  Cu
  Cu2      1.0000 0.37269  0.44329  0.27597  Biso   1.000  Cu
  Cu3      1.0000 0.44329  0.90805  0.27597  Biso   1.000  Cu
  Cu4      1.0000 0.90805  0.44329  0.27597  Biso   1.000  Cu
  Cu5      1.0000 0.37269  0.90805  0.27597  Biso   1.000  Cu
  Cu6      1.0000 0.44329  0.37269  0.27597  Biso   1.000  Cu
  Cu7      1.0000 0.90833  0.90833  0.81001  Biso   1.000  Cu
  Cu8      1.0000 0.90707  0.90707  0.74117  Biso   1.000  Cu
  Cu9      1.0000 0.90833  0.37333  0.81001  Biso   1.000  Cu
  Cu10     1.0000 0.90707  0.44469  0.74117  Biso   1.000  Cu
  Cu11     1.0000 0.37333  0.90833  0.81001  Biso   1.000  Cu
  Cu12     1.0000 0.44469  0.90707  0.74117  Biso   1.000  Cu
  H1       1.0000 0.88810  0.04360  0.76840  Biso   1.000  H
  H2       1.0000 0.88320  0.11870  0.73150  Biso   1.000  H
  H3       1.0000 0.87990  0.11560  0.63190  Biso   1.000  H
  H4       1.0000 0.89420  0.04190  0.66130  Biso   1.000  H
  H5       1.0000 0.92490  0.77210  0.88930  Biso   1.000  H
  H6       1.0000 0.93990  0.69620  0.91990  Biso   1.000  H
  H7       1.0000 0.93930  0.69560  0.81220  Biso   1.000  H
  H8       1.0000 0.93190  0.76820  0.78040  Biso   1.000  H
  H9       1.0000 0.93850  0.55220  0.06570  Biso   1.000  H
  H10      1.0000 0.92970  0.51840  0.14010  Biso   1.000  H
  H11      1.0000 0.03760  0.29590  0.26490  Biso   1.000  H
  H12      1.0000 0.10920  0.26100  0.26490  Biso   1.000  H
  H13      1.0000 0.88340  0.29950  0.41110  Biso   1.000  H
  H14      1.0000 0.88650  0.25830  0.48670  Biso   1.000  H
  H15      1.0000 0.77960  0.41090  0.29040  Biso   1.000  H
  H16      1.0000 0.70670  0.44540  0.29550  Biso   1.000  H
  H17      1.0000 0.04360  0.29990  0.76840  Biso   1.000  H
  H18      1.0000 0.11870  0.26660  0.73150  Biso   1.000  H
  H19      1.0000 0.11560  0.37260  0.63190  Biso   1.000  H
  H20      1.0000 0.04190  0.40260  0.66130  Biso   1.000  H
  H21      1.0000 0.77210  0.41370  0.88930  Biso   1.000  H
  H22      1.0000 0.69620  0.44400  0.91990  Biso   1.000  H
  H23      1.0000 0.69560  0.55290  0.81220  Biso   1.000  H
  H24      1.0000 0.76820  0.51950  0.78040  Biso   1.000  H
  H25      1.0000 0.55220  0.44360  0.06570  Biso   1.000  H
  H26      1.0000 0.51840  0.41180  0.14010  Biso   1.000  H
  H27      1.0000 0.29590  0.40160  0.26490  Biso   1.000  H
  H28      1.0000 0.26100  0.36490  0.26490  Biso   1.000  H
  H29      1.0000 0.29950  0.40600  0.41110  Biso   1.000  H
  H30      1.0000 0.25830  0.36850  0.48670  Biso   1.000  H
  H31      1.0000 0.41090  0.51910  0.29040  Biso   1.000  H
  H32      1.0000 0.44540  0.55240  0.29550  Biso   1.000  H
  H33      1.0000 0.29990  0.88810  0.76840  Biso   1.000  H
  H34      1.0000 0.26660  0.88320  0.73150  Biso   1.000  H
  H35      1.0000 0.37260  0.87990  0.63190  Biso   1.000  H
  H36      1.0000 0.40260  0.89420  0.66130  Biso   1.000  H
  H37      1.0000 0.41370  0.92490  0.88930  Biso   1.000  H
  H38      1.0000 0.44400  0.93990  0.91990  Biso   1.000  H
  H39      1.0000 0.55290  0.93930  0.81220  Biso   1.000  H
  H40      1.0000 0.51950  0.93190  0.78040  Biso   1.000  H
  H41      1.0000 0.44360  0.93850  0.06570  Biso   1.000  H
  H42      1.0000 0.41180  0.92970  0.14010  Biso   1.000  H
  H43      1.0000 0.40160  0.03760  0.26490  Biso   1.000  H
  H44      1.0000 0.36490  0.10920  0.26490  Biso   1.000  H
  H45      1.0000 0.40600  0.88340  0.41110  Biso   1.000  H
  H46      1.0000 0.36850  0.88650  0.48670  Biso   1.000  H
  H47      1.0000 0.51910  0.77960  0.29040  Biso   1.000  H
  H48      1.0000 0.55240  0.70670  0.29550  Biso   1.000  H
  H49      1.0000 0.88810  0.29990  0.76840  Biso   1.000  H
  H50      1.0000 0.88320  0.26660  0.73150  Biso   1.000  H
  H51      1.0000 0.87990  0.37260  0.63190  Biso   1.000  H
  H52      1.0000 0.89420  0.40260  0.66130  Biso   1.000  H
  H53      1.0000 0.92490  0.41370  0.88930  Biso   1.000  H
  H54      1.0000 0.93990  0.44400  0.91990  Biso   1.000  H
  H55      1.0000 0.93930  0.55290  0.81220  Biso   1.000  H
  H56      1.0000 0.93190  0.51950  0.78040  Biso   1.000  H
  H57      1.0000 0.93850  0.44360  0.06570  Biso   1.000  H
  H58      1.0000 0.92970  0.41180  0.14010  Biso   1.000  H
  H59      1.0000 0.03760  0.40160  0.26490  Biso   1.000  H
  H60      1.0000 0.10920  0.36490  0.26490  Biso   1.000  H
  H61      1.0000 0.88340  0.40600  0.41110  Biso   1.000  H
  H62      1.0000 0.88650  0.36850  0.48670  Biso   1.000  H
  H63      1.0000 0.77960  0.51910  0.29040  Biso   1.000  H
  H64      1.0000 0.70670  0.55240  0.29550  Biso   1.000  H
  H65      1.0000 0.04360  0.88810  0.76840  Biso   1.000  H
  H66      1.0000 0.11870  0.88320  0.73150  Biso   1.000  H
  H67      1.0000 0.11560  0.87990  0.63190  Biso   1.000  H
  H68      1.0000 0.04190  0.89420  0.66130  Biso   1.000  H
  H69      1.0000 0.77210  0.92490  0.88930  Biso   1.000  H
  H70      1.0000 0.69620  0.93990  0.91990  Biso   1.000  H
  H71      1.0000 0.69560  0.93930  0.81220  Biso   1.000  H
  H72      1.0000 0.76820  0.93190  0.78040  Biso   1.000  H
  H73      1.0000 0.55220  0.93850  0.06570  Biso   1.000  H
  H74      1.0000 0.51840  0.92970  0.14010  Biso   1.000  H
  H75      1.0000 0.29590  0.03760  0.26490  Biso   1.000  H
  H76      1.0000 0.26100  0.10920  0.26490  Biso   1.000  H
  H77      1.0000 0.29950  0.88340  0.41110  Biso   1.000  H
  H78      1.0000 0.25830  0.88650  0.48670  Biso   1.000  H
  H79      1.0000 0.41090  0.77960  0.29040  Biso   1.000  H
  H80      1.0000 0.44540  0.70670  0.29550  Biso   1.000  H
  H81      1.0000 0.29990  0.04360  0.76840  Biso   1.000  H
  H82      1.0000 0.26660  0.11870  0.73150  Biso   1.000  H
  H83      1.0000 0.37260  0.11560  0.63190  Biso   1.000  H
  H84      1.0000 0.40260  0.04190  0.66130  Biso   1.000  H
  H85      1.0000 0.41370  0.77210  0.88930  Biso   1.000  H
  H86      1.0000 0.44400  0.69620  0.91990  Biso   1.000  H
  H87      1.0000 0.55290  0.69560  0.81220  Biso   1.000  H
  H88      1.0000 0.51950  0.76820  0.78040  Biso   1.000  H
  H89      1.0000 0.44360  0.55220  0.06570  Biso   1.000  H
  H90      1.0000 0.41180  0.51840  0.14010  Biso   1.000  H
  H91      1.0000 0.40160  0.29590  0.26490  Biso   1.000  H
  H92      1.0000 0.36490  0.26100  0.26490  Biso   1.000  H
  H93      1.0000 0.40600  0.29950  0.41110  Biso   1.000  H
  H94      1.0000 0.36850  0.25830  0.48670  Biso   1.000  H
  H95      1.0000 0.51910  0.41090  0.29040  Biso   1.000  H
  H96      1.0000 0.55240  0.44540  0.29550  Biso   1.000  H
  C1       1.0000 0.89530  0.98810  0.74470  Biso   1.000  C
  C2       1.0000 0.89110  0.03320  0.71890  Biso   1.000  C
  C3       1.0000 0.88790  0.05700  0.73990  Biso   1.000  C
  C4       1.0000 0.88390  0.10420  0.71680  Biso   1.000  C
  C5       1.0000 0.88130  0.12790  0.67630  Biso   1.000  C
  C6       1.0000 0.88340  0.10200  0.65890  Biso   1.000  C
  C7       1.0000 0.89010  0.05640  0.67810  Biso   1.000  C
  C8       1.0000 0.87620  0.17020  0.66220  Biso   1.000  C
  C9       1.0000 0.87990  0.22460  0.60010  Biso   1.000  C
  C10      1.0000 0.92140  0.82790  0.81010  Biso   1.000  C
  C11      1.0000 0.93040  0.77590  0.83140  Biso   1.000  C
  C12      1.0000 0.93030  0.75590  0.87370  Biso   1.000  C
  C13      1.0000 0.93890  0.71100  0.89170  Biso   1.000  C
  C14      1.0000 0.94540  0.68940  0.86830  Biso   1.000  C
  C15      1.0000 0.93930  0.71080  0.82570  Biso   1.000  C
  C16      1.0000 0.93370  0.75310  0.80830  Biso   1.000  C
  C17      1.0000 0.94820  0.64550  0.89140  Biso   1.000  C
  C18      1.0000 0.94820  0.58190  0.94870  Biso   1.000  C
  C19      1.0000 0.93700  0.52410  0.08070  Biso   1.000  C
  C20      1.0000 0.93160  0.50460  0.12390  Biso   1.000  C
  C21      1.0000 0.05440  0.31010  0.26130  Biso   1.000  C
  C22      1.0000 0.09590  0.29090  0.26100  Biso   1.000  C
  C23      1.0000 0.88460  0.31390  0.42460  Biso   1.000  C
  C24      1.0000 0.88650  0.28700  0.47200  Biso   1.000  C
  C25      1.0000 0.76290  0.43880  0.29280  Biso   1.000  C
  C26      1.0000 0.72050  0.46040  0.29550  Biso   1.000  C
  C27      1.0000 0.98810  0.37190  0.74470  Biso   1.000  C
  C28      1.0000 0.03320  0.35680  0.71890  Biso   1.000  C
  C29      1.0000 0.05700  0.31520  0.73990  Biso   1.000  C
  C30      1.0000 0.10420  0.29510  0.71680  Biso   1.000  C
  C31      1.0000 0.12790  0.31450  0.67630  Biso   1.000  C
  C32      1.0000 0.10200  0.35570  0.65890  Biso   1.000  C
  C33      1.0000 0.05640  0.37540  0.67810  Biso   1.000  C
  C34      1.0000 0.17020  0.29140  0.66220  Biso   1.000  C
  C35      1.0000 0.22460  0.29540  0.60010  Biso   1.000  C
  C36      1.0000 0.82790  0.44060  0.81010  Biso   1.000  C
  C37      1.0000 0.77590  0.46230  0.83140  Biso   1.000  C
  C38      1.0000 0.75590  0.44010  0.87370  Biso   1.000  C
  C39      1.0000 0.71100  0.45840  0.89170  Biso   1.000  C
  C40      1.0000 0.68940  0.49690  0.86830  Biso   1.000  C
  C41      1.0000 0.71080  0.52420  0.82570  Biso   1.000  C
  C42      1.0000 0.75310  0.50490  0.80830  Biso   1.000  C
  C43      1.0000 0.64550  0.51490  0.89140  Biso   1.000  C
  C44      1.0000 0.58190  0.52120  0.94870  Biso   1.000  C
  C45      1.0000 0.52410  0.45820  0.08070  Biso   1.000  C
  C46      1.0000 0.50460  0.43990  0.12390  Biso   1.000  C
  C47      1.0000 0.31010  0.37420  0.26130  Biso   1.000  C
  C48      1.0000 0.29090  0.35220  0.26100  Biso   1.000  C
  C49      1.0000 0.31390  0.37690  0.42460  Biso   1.000  C
  C50      1.0000 0.28700  0.35450  0.47200  Biso   1.000  C
  C51      1.0000 0.43880  0.50550  0.29280  Biso   1.000  C
  C52      1.0000 0.46040  0.52360  0.29550  Biso   1.000  C
  C53      1.0000 0.37190  0.89530  0.74470  Biso   1.000  C
  C54      1.0000 0.35680  0.89110  0.71890  Biso   1.000  C
  C55      1.0000 0.31520  0.88790  0.73990  Biso   1.000  C
  C56      1.0000 0.29510  0.88390  0.71680  Biso   1.000  C
  C57      1.0000 0.31450  0.88130  0.67630  Biso   1.000  C
  C58      1.0000 0.35570  0.88340  0.65890  Biso   1.000  C
  C59      1.0000 0.37540  0.89010  0.67810  Biso   1.000  C
  C60      1.0000 0.29140  0.87620  0.66220  Biso   1.000  C
  C61      1.0000 0.29540  0.87990  0.60010  Biso   1.000  C
  C62      1.0000 0.44060  0.92140  0.81010  Biso   1.000  C
  C63      1.0000 0.46230  0.93040  0.83140  Biso   1.000  C
  C64      1.0000 0.44010  0.93030  0.87370  Biso   1.000  C
  C65      1.0000 0.45840  0.93890  0.89170  Biso   1.000  C
  C66      1.0000 0.49690  0.94540  0.86830  Biso   1.000  C
  C67      1.0000 0.52420  0.93930  0.82570  Biso   1.000  C
  C68      1.0000 0.50490  0.93370  0.80830  Biso   1.000  C
  C69      1.0000 0.51490  0.94820  0.89140  Biso   1.000  C
  C70      1.0000 0.52120  0.94820  0.94870  Biso   1.000  C
  C71      1.0000 0.45820  0.93700  0.08070  Biso   1.000  C
  C72      1.0000 0.43990  0.93160  0.12390  Biso   1.000  C
  C73      1.0000 0.37420  0.05440  0.26130  Biso   1.000  C
  C74      1.0000 0.35220  0.09590  0.26100  Biso   1.000  C
  C75      1.0000 0.37690  0.88460  0.42460  Biso   1.000  C
  C76      1.0000 0.35450  0.88650  0.47200  Biso   1.000  C
  C77      1.0000 0.50550  0.76290  0.29280  Biso   1.000  C
  C78      1.0000 0.52360  0.72050  0.29550  Biso   1.000  C
  C79      1.0000 0.89530  0.37190  0.74470  Biso   1.000  C
  C80      1.0000 0.89110  0.35680  0.71890  Biso   1.000  C
  C81      1.0000 0.88790  0.31520  0.73990  Biso   1.000  C
  C82      1.0000 0.88390  0.29510  0.71680  Biso   1.000  C
  C83      1.0000 0.88130  0.31450  0.67630  Biso   1.000  C
  C84      1.0000 0.88340  0.35570  0.65890  Biso   1.000  C
  C85      1.0000 0.89010  0.37540  0.67810  Biso   1.000  C
  C86      1.0000 0.87620  0.29140  0.66220  Biso   1.000  C
  C87      1.0000 0.87990  0.29540  0.60010  Biso   1.000  C
  C88      1.0000 0.92140  0.44060  0.81010  Biso   1.000  C
  C89      1.0000 0.93040  0.46230  0.83140  Biso   1.000  C
  C90      1.0000 0.93030  0.44010  0.87370  Biso   1.000  C
  C91      1.0000 0.93890  0.45840  0.89170  Biso   1.000  C
  C92      1.0000 0.94540  0.49690  0.86830  Biso   1.000  C
  C93      1.0000 0.93930  0.52420  0.82570  Biso   1.000  C
  C94      1.0000 0.93370  0.50490  0.80830  Biso   1.000  C
  C95      1.0000 0.94820  0.51490  0.89140  Biso   1.000  C
  C96      1.0000 0.94820  0.52120  0.94870  Biso   1.000  C
  C97      1.0000 0.93700  0.45820  0.08070  Biso   1.000  C
  C98      1.0000 0.93160  0.43990  0.12390  Biso   1.000  C
  C99      1.0000 0.05440  0.37420  0.26130  Biso   1.000  C
  C100     1.0000 0.09590  0.35220  0.26100  Biso   1.000  C
  C101     1.0000 0.88460  0.37690  0.42460  Biso   1.000  C
  C102     1.0000 0.88650  0.35450  0.47200  Biso   1.000  C
  C103     1.0000 0.76290  0.50550  0.29280  Biso   1.000  C
  C104     1.0000 0.72050  0.52360  0.29550  Biso   1.000  C
  C105     1.0000 0.98810  0.89530  0.74470  Biso   1.000  C
  C106     1.0000 0.03320  0.89110  0.71890  Biso   1.000  C
  C107     1.0000 0.05700  0.88790  0.73990  Biso   1.000  C
  C108     1.0000 0.10420  0.88390  0.71680  Biso   1.000  C
  C109     1.0000 0.12790  0.88130  0.67630  Biso   1.000  C
  C110     1.0000 0.10200  0.88340  0.65890  Biso   1.000  C
  C111     1.0000 0.05640  0.89010  0.67810  Biso   1.000  C
  C112     1.0000 0.17020  0.87620  0.66220  Biso   1.000  C
  C113     1.0000 0.22460  0.87990  0.60010  Biso   1.000  C
  C114     1.0000 0.82790  0.92140  0.81010  Biso   1.000  C
  C115     1.0000 0.77590  0.93040  0.83140  Biso   1.000  C
  C116     1.0000 0.75590  0.93030  0.87370  Biso   1.000  C
  C117     1.0000 0.71100  0.93890  0.89170  Biso   1.000  C
  C118     1.0000 0.68940  0.94540  0.86830  Biso   1.000  C
  C119     1.0000 0.71080  0.93930  0.82570  Biso   1.000  C
  C120     1.0000 0.75310  0.93370  0.80830  Biso   1.000  C
  C121     1.0000 0.64550  0.94820  0.89140  Biso   1.000  C
  C122     1.0000 0.58190  0.94820  0.94870  Biso   1.000  C
  C123     1.0000 0.52410  0.93700  0.08070  Biso   1.000  C
  C124     1.0000 0.50460  0.93160  0.12390  Biso   1.000  C
  C125     1.0000 0.31010  0.05440  0.26130  Biso   1.000  C
  C126     1.0000 0.29090  0.09590  0.26100  Biso   1.000  C
  C127     1.0000 0.31390  0.88460  0.42460  Biso   1.000  C
  C128     1.0000 0.28700  0.88650  0.47200  Biso   1.000  C
  C129     1.0000 0.43880  0.76290  0.29280  Biso   1.000  C
  C130     1.0000 0.46040  0.72050  0.29550  Biso   1.000  C
  C131     1.0000 0.37190  0.98810  0.74470  Biso   1.000  C
  C132     1.0000 0.35680  0.03320  0.71890  Biso   1.000  C
  C133     1.0000 0.31520  0.05700  0.73990  Biso   1.000  C
  C134     1.0000 0.29510  0.10420  0.71680  Biso   1.000  C
  C135     1.0000 0.31450  0.12790  0.67630  Biso   1.000  C
  C136     1.0000 0.35570  0.10200  0.65890  Biso   1.000  C
  C137     1.0000 0.37540  0.05640  0.67810  Biso   1.000  C
  C138     1.0000 0.29140  0.17020  0.66220  Biso   1.000  C
  C139     1.0000 0.29540  0.22460  0.60010  Biso   1.000  C
  C140     1.0000 0.44060  0.82790  0.81010  Biso   1.000  C
  C141     1.0000 0.46230  0.77590  0.83140  Biso   1.000  C
  C142     1.0000 0.44010  0.75590  0.87370  Biso   1.000  C
  C143     1.0000 0.45840  0.71100  0.89170  Biso   1.000  C
  C144     1.0000 0.49690  0.68940  0.86830  Biso   1.000  C
  C145     1.0000 0.52420  0.71080  0.82570  Biso   1.000  C
  C146     1.0000 0.50490  0.75310  0.80830  Biso   1.000  C
  C147     1.0000 0.51490  0.64550  0.89140  Biso   1.000  C
  C148     1.0000 0.52120  0.58190  0.94870  Biso   1.000  C
  C149     1.0000 0.45820  0.52410  0.08070  Biso   1.000  C
  C150     1.0000 0.43990  0.50460  0.12390  Biso   1.000  C
  C151     1.0000 0.37420  0.31010  0.26130  Biso   1.000  C
  C152     1.0000 0.35220  0.29090  0.26100  Biso   1.000  C
  C153     1.0000 0.37690  0.31390  0.42460  Biso   1.000  C
  C154     1.0000 0.35450  0.28700  0.47200  Biso   1.000  C
  C155     1.0000 0.50550  0.43880  0.29280  Biso   1.000  C
  C156     1.0000 0.52360  0.46040  0.29550  Biso   1.000  C
  C157     1.0000 0.87840  0.23195  0.65770  Biso   1.000  C
  C158     1.0000 0.90800  0.37420  0.34360  Biso   1.000  C
  C159     1.0000 0.88430  0.35770  0.40030  Biso   1.000  C
  C160     1.0000 0.88810  0.31125  0.48940  Biso   1.000  C
  C161     1.0000 0.87970  0.29445  0.53140  Biso   1.000  C
  C162     1.0000 0.23195  0.23195  0.65770  Biso   1.000  C
  C163     1.0000 0.37420  0.37420  0.34360  Biso   1.000  C
  C164     1.0000 0.35770  0.35770  0.40030  Biso   1.000  C
  C165     1.0000 0.31125  0.31125  0.48940  Biso   1.000  C
  C166     1.0000 0.29445  0.29445  0.53140  Biso   1.000  C
  C167     1.0000 0.23195  0.87840  0.65770  Biso   1.000  C
  C168     1.0000 0.37420  0.90800  0.34360  Biso   1.000  C
  C169     1.0000 0.35770  0.88430  0.40030  Biso   1.000  C
  C170     1.0000 0.31125  0.88810  0.48940  Biso   1.000  C
  C171     1.0000 0.29445  0.87970  0.53140  Biso   1.000  C
  C172     1.0000 0.95200  0.57965  0.88870  Biso   1.000  C
  C173     1.0000 0.94860  0.52090  0.00960  Biso   1.000  C
  C174     1.0000 0.94000  0.49985  0.06030  Biso   1.000  C
  C175     1.0000 0.92910  0.46465  0.14160  Biso   1.000  C
  C176     1.0000 0.92660  0.43980  0.19380  Biso   1.000  C
  C177     1.0000 0.99510  0.37210  0.26070  Biso   1.000  C
  C178     1.0000 0.04070  0.35170  0.25590  Biso   1.000  C
  C179     1.0000 0.11990  0.31240  0.25530  Biso   1.000  C
  C180     1.0000 0.17170  0.28770  0.25290  Biso   1.000  C
  C181     1.0000 0.82180  0.44480  0.28860  Biso   1.000  C
  C182     1.0000 0.77680  0.46430  0.29460  Biso   1.000  C
  C183     1.0000 0.69340  0.50390  0.29880  Biso   1.000  C
  C184     1.0000 0.65240  0.52140  0.30480  Biso   1.000  C
  C185     1.0000 0.57965  0.57965  0.88870  Biso   1.000  C
  C186     1.0000 0.52090  0.52090  0.00960  Biso   1.000  C
  C187     1.0000 0.49985  0.49985  0.06030  Biso   1.000  C
  C188     1.0000 0.46465  0.46465  0.14160  Biso   1.000  C
  C189     1.0000 0.43980  0.43980  0.19380  Biso   1.000  C
  C190     1.0000 0.37210  0.37210  0.26070  Biso   1.000  C
  C191     1.0000 0.35170  0.35170  0.25590  Biso   1.000  C
  C192     1.0000 0.31240  0.31240  0.25530  Biso   1.000  C
  C193     1.0000 0.28770  0.28770  0.25290  Biso   1.000  C
  C194     1.0000 0.44480  0.44480  0.28860  Biso   1.000  C
  C195     1.0000 0.46430  0.46430  0.29460  Biso   1.000  C
  C196     1.0000 0.50390  0.50390  0.29880  Biso   1.000  C
  C197     1.0000 0.52140  0.52140  0.30480  Biso   1.000  C
  C198     1.0000 0.57965  0.95200  0.88870  Biso   1.000  C
  C199     1.0000 0.52090  0.94860  0.00960  Biso   1.000  C
  C200     1.0000 0.49985  0.94000  0.06030  Biso   1.000  C
  C201     1.0000 0.46465  0.92910  0.14160  Biso   1.000  C
  C202     1.0000 0.43980  0.92660  0.19380  Biso   1.000  C
  C203     1.0000 0.37210  0.99510  0.26070  Biso   1.000  C
  C204     1.0000 0.35170  0.04070  0.25590  Biso   1.000  C
  C205     1.0000 0.31240  0.11990  0.25530  Biso   1.000  C
  C206     1.0000 0.28770  0.17170  0.25290  Biso   1.000  C
  C207     1.0000 0.44480  0.82180  0.28860  Biso   1.000  C
  C208     1.0000 0.46430  0.77680  0.29460  Biso   1.000  C
  C209     1.0000 0.50390  0.69340  0.29880  Biso   1.000  C
  C210     1.0000 0.52140  0.65240  0.30480  Biso   1.000  C
  C211     1.0000 0.22825  0.22825  0.25230  Biso   1.000  C
  C212     1.0000 0.22825  0.29120  0.25230  Biso   1.000  C
  C213     1.0000 0.29120  0.22825  0.25230  Biso   1.000  C
  C214     1.0000 0.58750  0.52110  0.30390  Biso   1.000  C
  C215     1.0000 0.52110  0.58750  0.30390  Biso   1.000  C
  C216     1.0000 0.58750  0.58750  0.30390  Biso   1.000  C
  N1       1.0000 0.87680  0.19150  0.68020  Biso   1.000  N
  N2       1.0000 0.87500  0.18500  0.62200  Biso   1.000  N
  N3       1.0000 0.94730  0.62180  0.93400  Biso   1.000  N
  N4       1.0000 0.94930  0.62180  0.86980  Biso   1.000  N
  N5       1.0000 0.94830  0.56170  0.99130  Biso   1.000  N
  N6       1.0000 0.18910  0.24650  0.25230  Biso   1.000  N
  N7       1.0000 0.87790  0.25240  0.55390  Biso   1.000  N
  N8       1.0000 0.63040  0.50670  0.30240  Biso   1.000  N
  N9       1.0000 0.19150  0.25150  0.68020  Biso   1.000  N
  N10      1.0000 0.18500  0.31800  0.62200  Biso   1.000  N
  N11      1.0000 0.62180  0.49690  0.93400  Biso   1.000  N
  N12      1.0000 0.62180  0.55910  0.86980  Biso   1.000  N
  N13      1.0000 0.56170  0.49870  0.99130  Biso   1.000  N
  N14      1.0000 0.24650  0.31210  0.25230  Biso   1.000  N
  N15      1.0000 0.25240  0.31580  0.55390  Biso   1.000  N
  N16      1.0000 0.50670  0.56050  0.30240  Biso   1.000  N
  N17      1.0000 0.25150  0.87680  0.68020  Biso   1.000  N
  N18      1.0000 0.31800  0.87500  0.62200  Biso   1.000  N
  N19      1.0000 0.49690  0.94730  0.93400  Biso   1.000  N
  N20      1.0000 0.55910  0.94930  0.86980  Biso   1.000  N
  N21      1.0000 0.49870  0.94830  0.99130  Biso   1.000  N
  N22      1.0000 0.31210  0.18910  0.25230  Biso   1.000  N
  N23      1.0000 0.31580  0.87790  0.55390  Biso   1.000  N
  N24      1.0000 0.56050  0.63040  0.30240  Biso   1.000  N
  N25      1.0000 0.87680  0.25150  0.68020  Biso   1.000  N
  N26      1.0000 0.87500  0.31800  0.62200  Biso   1.000  N
  N27      1.0000 0.94730  0.49690  0.93400  Biso   1.000  N
  N28      1.0000 0.94930  0.55910  0.86980  Biso   1.000  N
  N29      1.0000 0.94830  0.49870  0.99130  Biso   1.000  N
  N30      1.0000 0.18910  0.31210  0.25230  Biso   1.000  N
  N31      1.0000 0.87790  0.31580  0.55390  Biso   1.000  N
  N32      1.0000 0.63040  0.56050  0.30240  Biso   1.000  N
  N33      1.0000 0.19150  0.87680  0.68020  Biso   1.000  N
  N34      1.0000 0.18500  0.87500  0.62200  Biso   1.000  N
  N35      1.0000 0.62180  0.94730  0.93400  Biso   1.000  N
  N36      1.0000 0.62180  0.94930  0.86980  Biso   1.000  N
  N37      1.0000 0.56170  0.94830  0.99130  Biso   1.000  N
  N38      1.0000 0.24650  0.18910  0.25230  Biso   1.000  N
  N39      1.0000 0.25240  0.87790  0.55390  Biso   1.000  N
  N40      1.0000 0.50670  0.63040  0.30240  Biso   1.000  N
  N41      1.0000 0.25150  0.19150  0.68020  Biso   1.000  N
  N42      1.0000 0.31800  0.18500  0.62200  Biso   1.000  N
  N43      1.0000 0.49690  0.62180  0.93400  Biso   1.000  N
  N44      1.0000 0.55910  0.62180  0.86980  Biso   1.000  N
  N45      1.0000 0.49870  0.56170  0.99130  Biso   1.000  N
  N46      1.0000 0.31210  0.24650  0.25230  Biso   1.000  N
  N47      1.0000 0.31580  0.25240  0.55390  Biso   1.000  N
  N48      1.0000 0.56050  0.50670  0.30240  Biso   1.000  N
  N49      1.0000 0.88070  0.25210  0.61510  Biso   1.000  N
  N50      1.0000 0.25210  0.25210  0.61510  Biso   1.000  N
  N51      1.0000 0.25210  0.88070  0.61510  Biso   1.000  N
  N52      1.0000 0.94830  0.55975  0.93220  Biso   1.000  N
  N53      1.0000 0.55975  0.55975  0.93220  Biso   1.000  N
  N54      1.0000 0.55975  0.94830  0.93220  Biso   1.000  N
  N55      1.0000 0.24913  0.24913  0.25261  Biso   1.000  N
  N56      1.0000 0.56497  0.56497  0.30509  Biso   1.000  N
  O1       1.0000 0.89710  0.97090  0.77980  Biso   1.000  O
  O2       1.0000 0.89704  0.97094  0.71848  Biso   1.000  O
  O3       1.0000 0.91800  0.84500  0.77410  Biso   1.000  O
  O4       1.0000 0.91930  0.84560  0.83230  Biso   1.000  O
  O5       1.0000 0.92080  0.40410  0.21240  Biso   1.000  O
  O6       1.0000 0.96520  0.35300  0.26640  Biso   1.000  O
  O7       1.0000 0.89200  0.35230  0.34060  Biso   1.000  O
  O8       1.0000 0.84670  0.40610  0.28380  Biso   1.000  O
  O9       1.0000 0.97090  0.35220  0.77980  Biso   1.000  O
  O10      1.0000 0.97094  0.41354  0.71848  Biso   1.000  O
  O11      1.0000 0.84500  0.46290  0.77410  Biso   1.000  O
  O12      1.0000 0.84560  0.40280  0.83230  Biso   1.000  O
  O13      1.0000 0.40410  0.46270  0.21240  Biso   1.000  O
  O14      1.0000 0.35300  0.41540  0.26640  Biso   1.000  O
  O15      1.0000 0.35230  0.41510  0.34060  Biso   1.000  O
  O16      1.0000 0.40610  0.46340  0.28380  Biso   1.000  O
  O17      1.0000 0.35220  0.89710  0.77980  Biso   1.000  O
  O18      1.0000 0.41354  0.89704  0.71848  Biso   1.000  O
  O19      1.0000 0.46290  0.91800  0.77410  Biso   1.000  O
  O20      1.0000 0.40280  0.91930  0.83230  Biso   1.000  O
  O21      1.0000 0.46270  0.92080  0.21240  Biso   1.000  O
  O22      1.0000 0.41540  0.96520  0.26640  Biso   1.000  O
  O23      1.0000 0.41510  0.89200  0.34060  Biso   1.000  O
  O24      1.0000 0.46340  0.84670  0.28380  Biso   1.000  O
  O25      1.0000 0.89710  0.35220  0.77980  Biso   1.000  O
  O26      1.0000 0.89704  0.41354  0.71848  Biso   1.000  O
  O27      1.0000 0.91800  0.46290  0.77410  Biso   1.000  O
  O28      1.0000 0.91930  0.40280  0.83230  Biso   1.000  O
  O29      1.0000 0.92080  0.46270  0.21240  Biso   1.000  O
  O30      1.0000 0.96520  0.41540  0.26640  Biso   1.000  O
  O31      1.0000 0.89200  0.41510  0.34060  Biso   1.000  O
  O32      1.0000 0.84670  0.46340  0.28380  Biso   1.000  O
  O33      1.0000 0.97090  0.89710  0.77980  Biso   1.000  O
  O34      1.0000 0.97094  0.89704  0.71848  Biso   1.000  O
  O35      1.0000 0.84500  0.91800  0.77410  Biso   1.000  O
  O36      1.0000 0.84560  0.91930  0.83230  Biso   1.000  O
  O37      1.0000 0.40410  0.92080  0.21240  Biso   1.000  O
  O38      1.0000 0.35300  0.96520  0.26640  Biso   1.000  O
  O39      1.0000 0.35230  0.89200  0.34060  Biso   1.000  O
  O40      1.0000 0.40610  0.84670  0.28380  Biso   1.000  O
  O41      1.0000 0.35220  0.97090  0.77980  Biso   1.000  O
  O42      1.0000 0.41354  0.97094  0.71848  Biso   1.000  O
  O43      1.0000 0.46290  0.84500  0.77410  Biso   1.000  O
  O44      1.0000 0.40280  0.84560  0.83230  Biso   1.000  O
  O45      1.0000 0.46270  0.40410  0.21240  Biso   1.000  O
  O46      1.0000 0.41540  0.35300  0.26640  Biso   1.000  O
  O47      1.0000 0.41510  0.35230  0.34060  Biso   1.000  O
  O48      1.0000 0.46340  0.40610  0.28380  Biso   1.000  O
  O49      1.0000 0.90895  0.90895  0.86800  Biso   1.000  O
  O50      1.0000 0.90265  0.90265  0.68740  Biso   1.000  O
  O51      1.0000 0.90895  0.31410  0.86800  Biso   1.000  O
  O52      1.0000 0.90265  0.50730  0.68740  Biso   1.000  O
  O53      1.0000 0.31410  0.90895  0.86800  Biso   1.000  O
  O54      1.0000 0.50730  0.90265  0.68740  Biso   1.000  O
  Cu13     1.0000 0.09195  0.55671  0.72403  Biso   1.000  Cu
  Cu14     1.0000 0.62731  0.09195  0.72403  Biso   1.000  Cu
  Cu15     1.0000 0.55671  0.62731  0.72403  Biso   1.000  Cu
  Cu16     1.0000 0.09195  0.62731  0.72403  Biso   1.000  Cu
  Cu17     1.0000 0.62731  0.55671  0.72403  Biso   1.000  Cu
  Cu18     1.0000 0.55671  0.09195  0.72403  Biso   1.000  Cu
  Cu19     1.0000 0.09167  0.62667  0.18999  Biso   1.000  Cu
  Cu20     1.0000 0.09292  0.55531  0.25885  Biso   1.000  Cu
  Cu21     1.0000 0.09167  0.09167  0.18999  Biso   1.000  Cu
  Cu22     1.0000 0.09292  0.09292  0.25885  Biso   1.000  Cu
  Cu23     1.0000 0.62667  0.09167  0.18999  Biso   1.000  Cu
  Cu24     1.0000 0.55531  0.09292  0.25885  Biso   1.000  Cu
  H97      1.0000 0.11190  0.70010  0.23160  Biso   1.000  H
  H98      1.0000 0.11680  0.73340  0.26850  Biso   1.000  H
  H99      1.0000 0.12010  0.62740  0.36810  Biso   1.000  H
  H100     1.0000 0.10580  0.59740  0.33870  Biso   1.000  H
  H101     1.0000 0.07510  0.58630  0.11070  Biso   1.000  H
  H102     1.0000 0.06010  0.55600  0.08010  Biso   1.000  H
  H103     1.0000 0.06070  0.44710  0.18780  Biso   1.000  H
  H104     1.0000 0.06810  0.48050  0.21960  Biso   1.000  H
  H105     1.0000 0.06150  0.55640  0.93430  Biso   1.000  H
  H106     1.0000 0.07030  0.58820  0.85990  Biso   1.000  H
  H107     1.0000 0.96240  0.59840  0.73510  Biso   1.000  H
  H108     1.0000 0.89080  0.63510  0.73510  Biso   1.000  H
  H109     1.0000 0.11660  0.59400  0.58890  Biso   1.000  H
  H110     1.0000 0.11350  0.63150  0.51330  Biso   1.000  H
  H111     1.0000 0.22040  0.48090  0.70960  Biso   1.000  H
  H112     1.0000 0.29330  0.44760  0.70450  Biso   1.000  H
  H113     1.0000 0.95640  0.11190  0.23160  Biso   1.000  H
  H114     1.0000 0.88130  0.11680  0.26850  Biso   1.000  H
  H115     1.0000 0.88440  0.12010  0.36810  Biso   1.000  H
  H116     1.0000 0.95810  0.10580  0.33870  Biso   1.000  H
  H117     1.0000 0.22790  0.07510  0.11070  Biso   1.000  H
  H118     1.0000 0.30380  0.06010  0.08010  Biso   1.000  H
  H119     1.0000 0.30440  0.06070  0.18780  Biso   1.000  H
  H120     1.0000 0.23180  0.06810  0.21960  Biso   1.000  H
  H121     1.0000 0.44780  0.06150  0.93430  Biso   1.000  H
  H122     1.0000 0.48160  0.07030  0.85990  Biso   1.000  H
  H123     1.0000 0.70410  0.96240  0.73510  Biso   1.000  H
  H124     1.0000 0.73900  0.89080  0.73510  Biso   1.000  H
  H125     1.0000 0.70050  0.11660  0.58890  Biso   1.000  H
  H126     1.0000 0.74170  0.11350  0.51330  Biso   1.000  H
  H127     1.0000 0.58910  0.22040  0.70960  Biso   1.000  H
  H128     1.0000 0.55460  0.29330  0.70450  Biso   1.000  H
  H129     1.0000 0.70010  0.95640  0.23160  Biso   1.000  H
  H130     1.0000 0.73340  0.88130  0.26850  Biso   1.000  H
  H131     1.0000 0.62740  0.88440  0.36810  Biso   1.000  H
  H132     1.0000 0.59740  0.95810  0.33870  Biso   1.000  H
  H133     1.0000 0.58630  0.22790  0.11070  Biso   1.000  H
  H134     1.0000 0.55600  0.30380  0.08010  Biso   1.000  H
  H135     1.0000 0.44710  0.30440  0.18780  Biso   1.000  H
  H136     1.0000 0.48050  0.23180  0.21960  Biso   1.000  H
  H137     1.0000 0.55640  0.44780  0.93430  Biso   1.000  H
  H138     1.0000 0.58820  0.48160  0.85990  Biso   1.000  H
  H139     1.0000 0.59840  0.70410  0.73510  Biso   1.000  H
  H140     1.0000 0.63510  0.73900  0.73510  Biso   1.000  H
  H141     1.0000 0.59400  0.70050  0.58890  Biso   1.000  H
  H142     1.0000 0.63150  0.74170  0.51330  Biso   1.000  H
  H143     1.0000 0.48090  0.58910  0.70960  Biso   1.000  H
  H144     1.0000 0.44760  0.55460  0.70450  Biso   1.000  H
  H145     1.0000 0.11190  0.95640  0.23160  Biso   1.000  H
  H146     1.0000 0.11680  0.88130  0.26850  Biso   1.000  H
  H147     1.0000 0.12010  0.88440  0.36810  Biso   1.000  H
  H148     1.0000 0.10580  0.95810  0.33870  Biso   1.000  H
  H149     1.0000 0.07510  0.22790  0.11070  Biso   1.000  H
  H150     1.0000 0.06010  0.30380  0.08010  Biso   1.000  H
  H151     1.0000 0.06070  0.30440  0.18780  Biso   1.000  H
  H152     1.0000 0.06810  0.23180  0.21960  Biso   1.000  H
  H153     1.0000 0.06150  0.44780  0.93430  Biso   1.000  H
  H154     1.0000 0.07030  0.48160  0.85990  Biso   1.000  H
  H155     1.0000 0.96240  0.70410  0.73510  Biso   1.000  H
  H156     1.0000 0.89080  0.73900  0.73510  Biso   1.000  H
  H157     1.0000 0.11660  0.70050  0.58890  Biso   1.000  H
  H158     1.0000 0.11350  0.74170  0.51330  Biso   1.000  H
  H159     1.0000 0.22040  0.58910  0.70960  Biso   1.000  H
  H160     1.0000 0.29330  0.55460  0.70450  Biso   1.000  H
  H161     1.0000 0.95640  0.70010  0.23160  Biso   1.000  H
  H162     1.0000 0.88130  0.73340  0.26850  Biso   1.000  H
  H163     1.0000 0.88440  0.62740  0.36810  Biso   1.000  H
  H164     1.0000 0.95810  0.59740  0.33870  Biso   1.000  H
  H165     1.0000 0.22790  0.58630  0.11070  Biso   1.000  H
  H166     1.0000 0.30380  0.55600  0.08010  Biso   1.000  H
  H167     1.0000 0.30440  0.44710  0.18780  Biso   1.000  H
  H168     1.0000 0.23180  0.48050  0.21960  Biso   1.000  H
  H169     1.0000 0.44780  0.55640  0.93430  Biso   1.000  H
  H170     1.0000 0.48160  0.58820  0.85990  Biso   1.000  H
  H171     1.0000 0.70410  0.59840  0.73510  Biso   1.000  H
  H172     1.0000 0.73900  0.63510  0.73510  Biso   1.000  H
  H173     1.0000 0.70050  0.59400  0.58890  Biso   1.000  H
  H174     1.0000 0.74170  0.63150  0.51330  Biso   1.000  H
  H175     1.0000 0.58910  0.48090  0.70960  Biso   1.000  H
  H176     1.0000 0.55460  0.44760  0.70450  Biso   1.000  H
  H177     1.0000 0.70010  0.11190  0.23160  Biso   1.000  H
  H178     1.0000 0.73340  0.11680  0.26850  Biso   1.000  H
  H179     1.0000 0.62740  0.12010  0.36810  Biso   1.000  H
  H180     1.0000 0.59740  0.10580  0.33870  Biso   1.000  H
  H181     1.0000 0.58630  0.07510  0.11070  Biso   1.000  H
  H182     1.0000 0.55600  0.06010  0.08010  Biso   1.000  H
  H183     1.0000 0.44710  0.06070  0.18780  Biso   1.000  H
  H184     1.0000 0.48050  0.06810  0.21960  Biso   1.000  H
  H185     1.0000 0.55640  0.06150  0.93430  Biso   1.000  H
  H186     1.0000 0.58820  0.07030  0.85990  Biso   1.000  H
  H187     1.0000 0.59840  0.96240  0.73510  Biso   1.000  H
  H188     1.0000 0.63510  0.89080  0.73510  Biso   1.000  H
  H189     1.0000 0.59400  0.11660  0.58890  Biso   1.000  H
  H190     1.0000 0.63150  0.11350  0.51330  Biso   1.000  H
  H191     1.0000 0.48090  0.22040  0.70960  Biso   1.000  H
  H192     1.0000 0.44760  0.29330  0.70450  Biso   1.000  H
  C217     1.0000 0.10470  0.62810  0.25530  Biso   1.000  C
  C218     1.0000 0.10890  0.64320  0.28110  Biso   1.000  C
  C219     1.0000 0.11210  0.68480  0.26010  Biso   1.000  C
  C220     1.0000 0.11610  0.70490  0.28320  Biso   1.000  C
  C221     1.0000 0.11870  0.68550  0.32370  Biso   1.000  C
  C222     1.0000 0.11660  0.64430  0.34110  Biso   1.000  C
  C223     1.0000 0.10990  0.62460  0.32190  Biso   1.000  C
  C224     1.0000 0.12380  0.70860  0.33780  Biso   1.000  C
  C225     1.0000 0.12010  0.70460  0.39990  Biso   1.000  C
  C226     1.0000 0.07860  0.55940  0.18990  Biso   1.000  C
  C227     1.0000 0.06960  0.53770  0.16860  Biso   1.000  C
  C228     1.0000 0.06970  0.55990  0.12630  Biso   1.000  C
  C229     1.0000 0.06110  0.54160  0.10830  Biso   1.000  C
  C230     1.0000 0.05460  0.50310  0.13170  Biso   1.000  C
  C231     1.0000 0.06070  0.47580  0.17430  Biso   1.000  C
  C232     1.0000 0.06630  0.49510  0.19170  Biso   1.000  C
  C233     1.0000 0.05180  0.48510  0.10860  Biso   1.000  C
  C234     1.0000 0.05180  0.47880  0.05130  Biso   1.000  C
  C235     1.0000 0.06300  0.54180  0.91930  Biso   1.000  C
  C236     1.0000 0.06840  0.56010  0.87610  Biso   1.000  C
  C237     1.0000 0.94560  0.62580  0.73870  Biso   1.000  C
  C238     1.0000 0.90410  0.64780  0.73900  Biso   1.000  C
  C239     1.0000 0.11540  0.62310  0.57540  Biso   1.000  C
  C240     1.0000 0.11350  0.64550  0.52800  Biso   1.000  C
  C241     1.0000 0.23710  0.49450  0.70720  Biso   1.000  C
  C242     1.0000 0.27950  0.47640  0.70450  Biso   1.000  C
  C243     1.0000 0.01190  0.10470  0.25530  Biso   1.000  C
  C244     1.0000 0.96680  0.10890  0.28110  Biso   1.000  C
  C245     1.0000 0.94300  0.11210  0.26010  Biso   1.000  C
  C246     1.0000 0.89580  0.11610  0.28320  Biso   1.000  C
  C247     1.0000 0.87210  0.11870  0.32370  Biso   1.000  C
  C248     1.0000 0.89800  0.11660  0.34110  Biso   1.000  C
  C249     1.0000 0.94360  0.10990  0.32190  Biso   1.000  C
  C250     1.0000 0.82980  0.12380  0.33780  Biso   1.000  C
  C251     1.0000 0.77540  0.12010  0.39990  Biso   1.000  C
  C252     1.0000 0.17210  0.07860  0.18990  Biso   1.000  C
  C253     1.0000 0.22410  0.06960  0.16860  Biso   1.000  C
  C254     1.0000 0.24410  0.06970  0.12630  Biso   1.000  C
  C255     1.0000 0.28900  0.06110  0.10830  Biso   1.000  C
  C256     1.0000 0.31060  0.05460  0.13170  Biso   1.000  C
  C257     1.0000 0.28920  0.06070  0.17430  Biso   1.000  C
  C258     1.0000 0.24690  0.06630  0.19170  Biso   1.000  C
  C259     1.0000 0.35450  0.05180  0.10860  Biso   1.000  C
  C260     1.0000 0.41810  0.05180  0.05130  Biso   1.000  C
  C261     1.0000 0.47590  0.06300  0.91930  Biso   1.000  C
  C262     1.0000 0.49540  0.06840  0.87610  Biso   1.000  C
  C263     1.0000 0.68990  0.94560  0.73870  Biso   1.000  C
  C264     1.0000 0.70910  0.90410  0.73900  Biso   1.000  C
  C265     1.0000 0.68610  0.11540  0.57540  Biso   1.000  C
  C266     1.0000 0.71300  0.11350  0.52800  Biso   1.000  C
  C267     1.0000 0.56120  0.23710  0.70720  Biso   1.000  C
  C268     1.0000 0.53960  0.27950  0.70450  Biso   1.000  C
  C269     1.0000 0.62810  0.01190  0.25530  Biso   1.000  C
  C270     1.0000 0.64320  0.96680  0.28110  Biso   1.000  C
  C271     1.0000 0.68480  0.94300  0.26010  Biso   1.000  C
  C272     1.0000 0.70490  0.89580  0.28320  Biso   1.000  C
  C273     1.0000 0.68550  0.87210  0.32370  Biso   1.000  C
  C274     1.0000 0.64430  0.89800  0.34110  Biso   1.000  C
  C275     1.0000 0.62460  0.94360  0.32190  Biso   1.000  C
  C276     1.0000 0.70860  0.82980  0.33780  Biso   1.000  C
  C277     1.0000 0.70460  0.77540  0.39990  Biso   1.000  C
  C278     1.0000 0.55940  0.17210  0.18990  Biso   1.000  C
  C279     1.0000 0.53770  0.22410  0.16860  Biso   1.000  C
  C280     1.0000 0.55990  0.24410  0.12630  Biso   1.000  C
  C281     1.0000 0.54160  0.28900  0.10830  Biso   1.000  C
  C282     1.0000 0.50310  0.31060  0.13170  Biso   1.000  C
  C283     1.0000 0.47580  0.28920  0.17430  Biso   1.000  C
  C284     1.0000 0.49510  0.24690  0.19170  Biso   1.000  C
  C285     1.0000 0.48510  0.35450  0.10860  Biso   1.000  C
  C286     1.0000 0.47880  0.41810  0.05130  Biso   1.000  C
  C287     1.0000 0.54180  0.47590  0.91930  Biso   1.000  C
  C288     1.0000 0.56010  0.49540  0.87610  Biso   1.000  C
  C289     1.0000 0.62580  0.68990  0.73870  Biso   1.000  C
  C290     1.0000 0.64780  0.70910  0.73900  Biso   1.000  C
  C291     1.0000 0.62310  0.68610  0.57540  Biso   1.000  C
  C292     1.0000 0.64550  0.71300  0.52800  Biso   1.000  C
  C293     1.0000 0.49450  0.56120  0.70720  Biso   1.000  C
  C294     1.0000 0.47640  0.53960  0.70450  Biso   1.000  C
  C295     1.0000 0.10470  0.01190  0.25530  Biso   1.000  C
  C296     1.0000 0.10890  0.96680  0.28110  Biso   1.000  C
  C297     1.0000 0.11210  0.94300  0.26010  Biso   1.000  C
  C298     1.0000 0.11610  0.89580  0.28320  Biso   1.000  C
  C299     1.0000 0.11870  0.87210  0.32370  Biso   1.000  C
  C300     1.0000 0.11660  0.89800  0.34110  Biso   1.000  C
  C301     1.0000 0.10990  0.94360  0.32190  Biso   1.000  C
  C302     1.0000 0.12380  0.82980  0.33780  Biso   1.000  C
  C303     1.0000 0.12010  0.77540  0.39990  Biso   1.000  C
  C304     1.0000 0.07860  0.17210  0.18990  Biso   1.000  C
  C305     1.0000 0.06960  0.22410  0.16860  Biso   1.000  C
  C306     1.0000 0.06970  0.24410  0.12630  Biso   1.000  C
  C307     1.0000 0.06110  0.28900  0.10830  Biso   1.000  C
  C308     1.0000 0.05460  0.31060  0.13170  Biso   1.000  C
  C309     1.0000 0.06070  0.28920  0.17430  Biso   1.000  C
  C310     1.0000 0.06630  0.24690  0.19170  Biso   1.000  C
  C311     1.0000 0.05180  0.35450  0.10860  Biso   1.000  C
  C312     1.0000 0.05180  0.41810  0.05130  Biso   1.000  C
  C313     1.0000 0.06300  0.47590  0.91930  Biso   1.000  C
  C314     1.0000 0.06840  0.49540  0.87610  Biso   1.000  C
  C315     1.0000 0.94560  0.68990  0.73870  Biso   1.000  C
  C316     1.0000 0.90410  0.70910  0.73900  Biso   1.000  C
  C317     1.0000 0.11540  0.68610  0.57540  Biso   1.000  C
  C318     1.0000 0.11350  0.71300  0.52800  Biso   1.000  C
  C319     1.0000 0.23710  0.56120  0.70720  Biso   1.000  C
  C320     1.0000 0.27950  0.53960  0.70450  Biso   1.000  C
  C321     1.0000 0.01190  0.62810  0.25530  Biso   1.000  C
  C322     1.0000 0.96680  0.64320  0.28110  Biso   1.000  C
  C323     1.0000 0.94300  0.68480  0.26010  Biso   1.000  C
  C324     1.0000 0.89580  0.70490  0.28320  Biso   1.000  C
  C325     1.0000 0.87210  0.68550  0.32370  Biso   1.000  C
  C326     1.0000 0.89800  0.64430  0.34110  Biso   1.000  C
  C327     1.0000 0.94360  0.62460  0.32190  Biso   1.000  C
  C328     1.0000 0.82980  0.70860  0.33780  Biso   1.000  C
  C329     1.0000 0.77540  0.70460  0.39990  Biso   1.000  C
  C330     1.0000 0.17210  0.55940  0.18990  Biso   1.000  C
  C331     1.0000 0.22410  0.53770  0.16860  Biso   1.000  C
  C332     1.0000 0.24410  0.55990  0.12630  Biso   1.000  C
  C333     1.0000 0.28900  0.54160  0.10830  Biso   1.000  C
  C334     1.0000 0.31060  0.50310  0.13170  Biso   1.000  C
  C335     1.0000 0.28920  0.47580  0.17430  Biso   1.000  C
  C336     1.0000 0.24690  0.49510  0.19170  Biso   1.000  C
  C337     1.0000 0.35450  0.48510  0.10860  Biso   1.000  C
  C338     1.0000 0.41810  0.47880  0.05130  Biso   1.000  C
  C339     1.0000 0.47590  0.54180  0.91930  Biso   1.000  C
  C340     1.0000 0.49540  0.56010  0.87610  Biso   1.000  C
  C341     1.0000 0.68990  0.62580  0.73870  Biso   1.000  C
  C342     1.0000 0.70910  0.64780  0.73900  Biso   1.000  C
  C343     1.0000 0.68610  0.62310  0.57540  Biso   1.000  C
  C344     1.0000 0.71300  0.64550  0.52800  Biso   1.000  C
  C345     1.0000 0.56120  0.49450  0.70720  Biso   1.000  C
  C346     1.0000 0.53960  0.47640  0.70450  Biso   1.000  C
  C347     1.0000 0.62810  0.10470  0.25530  Biso   1.000  C
  C348     1.0000 0.64320  0.10890  0.28110  Biso   1.000  C
  C349     1.0000 0.68480  0.11210  0.26010  Biso   1.000  C
  C350     1.0000 0.70490  0.11610  0.28320  Biso   1.000  C
  C351     1.0000 0.68550  0.11870  0.32370  Biso   1.000  C
  C352     1.0000 0.64430  0.11660  0.34110  Biso   1.000  C
  C353     1.0000 0.62460  0.10990  0.32190  Biso   1.000  C
  C354     1.0000 0.70860  0.12380  0.33780  Biso   1.000  C
  C355     1.0000 0.70460  0.12010  0.39990  Biso   1.000  C
  C356     1.0000 0.55940  0.07860  0.18990  Biso   1.000  C
  C357     1.0000 0.53770  0.06960  0.16860  Biso   1.000  C
  C358     1.0000 0.55990  0.06970  0.12630  Biso   1.000  C
  C359     1.0000 0.54160  0.06110  0.10830  Biso   1.000  C
  C360     1.0000 0.50310  0.05460  0.13170  Biso   1.000  C
  C361     1.0000 0.47580  0.06070  0.17430  Biso   1.000  C
  C362     1.0000 0.49510  0.06630  0.19170  Biso   1.000  C
  C363     1.0000 0.48510  0.05180  0.10860  Biso   1.000  C
  C364     1.0000 0.47880  0.05180  0.05130  Biso   1.000  C
  C365     1.0000 0.54180  0.06300  0.91930  Biso   1.000  C
  C366     1.0000 0.56010  0.06840  0.87610  Biso   1.000  C
  C367     1.0000 0.62580  0.94560  0.73870  Biso   1.000  C
  C368     1.0000 0.64780  0.90410  0.73900  Biso   1.000  C
  C369     1.0000 0.62310  0.11540  0.57540  Biso   1.000  C
  C370     1.0000 0.64550  0.11350  0.52800  Biso   1.000  C
  C371     1.0000 0.49450  0.23710  0.70720  Biso   1.000  C
  C372     1.0000 0.47640  0.27950  0.70450  Biso   1.000  C
  C373     1.0000 0.12160  0.76805  0.34230  Biso   1.000  C
  C374     1.0000 0.09200  0.62580  0.65640  Biso   1.000  C
  C375     1.0000 0.11570  0.64230  0.59970  Biso   1.000  C
  C376     1.0000 0.11190  0.68875  0.51060  Biso   1.000  C
  C377     1.0000 0.12030  0.70555  0.46860  Biso   1.000  C
  C378     1.0000 0.76805  0.12160  0.34230  Biso   1.000  C
  C379     1.0000 0.62580  0.09200  0.65640  Biso   1.000  C
  C380     1.0000 0.64230  0.11570  0.59970  Biso   1.000  C
  C381     1.0000 0.68875  0.11190  0.51060  Biso   1.000  C
  C382     1.0000 0.70555  0.12030  0.46860  Biso   1.000  C
  C383     1.0000 0.76805  0.76805  0.34230  Biso   1.000  C
  C384     1.0000 0.62580  0.62580  0.65640  Biso   1.000  C
  C385     1.0000 0.64230  0.64230  0.59970  Biso   1.000  C
  C386     1.0000 0.68875  0.68875  0.51060  Biso   1.000  C
  C387     1.0000 0.70555  0.70555  0.46860  Biso   1.000  C
  C388     1.0000 0.04800  0.42035  0.11130  Biso   1.000  C
  C389     1.0000 0.05140  0.47910  0.99040  Biso   1.000  C
  C390     1.0000 0.06000  0.50015  0.93970  Biso   1.000  C
  C391     1.0000 0.07090  0.53535  0.85840  Biso   1.000  C
  C392     1.0000 0.07340  0.56020  0.80620  Biso   1.000  C
  C393     1.0000 0.00490  0.62790  0.73930  Biso   1.000  C
  C394     1.0000 0.95930  0.64830  0.74410  Biso   1.000  C
  C395     1.0000 0.88010  0.68760  0.74470  Biso   1.000  C
  C396     1.0000 0.82830  0.71230  0.74710  Biso   1.000  C
  C397     1.0000 0.17820  0.55520  0.71140  Biso   1.000  C
  C398     1.0000 0.22320  0.53570  0.70540  Biso   1.000  C
  C399     1.0000 0.30660  0.49610  0.70120  Biso   1.000  C
  C400     1.0000 0.34760  0.47860  0.69520  Biso   1.000  C
  C401     1.0000 0.42035  0.04800  0.11130  Biso   1.000  C
  C402     1.0000 0.47910  0.05140  0.99040  Biso   1.000  C
  C403     1.0000 0.50015  0.06000  0.93970  Biso   1.000  C
  C404     1.0000 0.53535  0.07090  0.85840  Biso   1.000  C
  C405     1.0000 0.56020  0.07340  0.80620  Biso   1.000  C
  C406     1.0000 0.62790  0.00490  0.73930  Biso   1.000  C
  C407     1.0000 0.64830  0.95930  0.74410  Biso   1.000  C
  C408     1.0000 0.68760  0.88010  0.74470  Biso   1.000  C
  C409     1.0000 0.71230  0.82830  0.74710  Biso   1.000  C
  C410     1.0000 0.55520  0.17820  0.71140  Biso   1.000  C
  C411     1.0000 0.53570  0.22320  0.70540  Biso   1.000  C
  C412     1.0000 0.49610  0.30660  0.70120  Biso   1.000  C
  C413     1.0000 0.47860  0.34760  0.69520  Biso   1.000  C
  C414     1.0000 0.42035  0.42035  0.11130  Biso   1.000  C
  C415     1.0000 0.47910  0.47910  0.99040  Biso   1.000  C
  C416     1.0000 0.50015  0.50015  0.93970  Biso   1.000  C
  C417     1.0000 0.53535  0.53535  0.85840  Biso   1.000  C
  C418     1.0000 0.56020  0.56020  0.80620  Biso   1.000  C
  C419     1.0000 0.62790  0.62790  0.73930  Biso   1.000  C
  C420     1.0000 0.64830  0.64830  0.74410  Biso   1.000  C
  C421     1.0000 0.68760  0.68760  0.74470  Biso   1.000  C
  C422     1.0000 0.71230  0.71230  0.74710  Biso   1.000  C
  C423     1.0000 0.55520  0.55520  0.71140  Biso   1.000  C
  C424     1.0000 0.53570  0.53570  0.70540  Biso   1.000  C
  C425     1.0000 0.49610  0.49610  0.70120  Biso   1.000  C
  C426     1.0000 0.47860  0.47860  0.69520  Biso   1.000  C
  C427     1.0000 0.77175  0.70880  0.74770  Biso   1.000  C
  C428     1.0000 0.77175  0.77175  0.74770  Biso   1.000  C
  C429     1.0000 0.70880  0.77175  0.74770  Biso   1.000  C
  C430     1.0000 0.41250  0.41250  0.69610  Biso   1.000  C
  C431     1.0000 0.47890  0.41250  0.69610  Biso   1.000  C
  C432     1.0000 0.41250  0.47890  0.69610  Biso   1.000  C
  N57      1.0000 0.12320  0.74850  0.31980  Biso   1.000  N
  N58      1.0000 0.12500  0.68200  0.37800  Biso   1.000  N
  N59      1.0000 0.05270  0.50310  0.06600  Biso   1.000  N
  N60      1.0000 0.05070  0.44090  0.13020  Biso   1.000  N
  N61      1.0000 0.05170  0.50130  0.00870  Biso   1.000  N
  N62      1.0000 0.81090  0.68790  0.74770  Biso   1.000  N
  N63      1.0000 0.12210  0.68420  0.44610  Biso   1.000  N
  N64      1.0000 0.36960  0.43950  0.69760  Biso   1.000  N
  N65      1.0000 0.80850  0.12320  0.31980  Biso   1.000  N
  N66      1.0000 0.81500  0.12500  0.37800  Biso   1.000  N
  N67      1.0000 0.37820  0.05270  0.06600  Biso   1.000  N
  N68      1.0000 0.37820  0.05070  0.13020  Biso   1.000  N
  N69      1.0000 0.43830  0.05170  0.00870  Biso   1.000  N
  N70      1.0000 0.75350  0.81090  0.74770  Biso   1.000  N
  N71      1.0000 0.74760  0.12210  0.44610  Biso   1.000  N
  N72      1.0000 0.49330  0.36960  0.69760  Biso   1.000  N
  N73      1.0000 0.74850  0.80850  0.31980  Biso   1.000  N
  N74      1.0000 0.68200  0.81500  0.37800  Biso   1.000  N
  N75      1.0000 0.50310  0.37820  0.06600  Biso   1.000  N
  N76      1.0000 0.44090  0.37820  0.13020  Biso   1.000  N
  N77      1.0000 0.50130  0.43830  0.00870  Biso   1.000  N
  N78      1.0000 0.68790  0.75350  0.74770  Biso   1.000  N
  N79      1.0000 0.68420  0.74760  0.44610  Biso   1.000  N
  N80      1.0000 0.43950  0.49330  0.69760  Biso   1.000  N
  N81      1.0000 0.12320  0.80850  0.31980  Biso   1.000  N
  N82      1.0000 0.12500  0.81500  0.37800  Biso   1.000  N
  N83      1.0000 0.05270  0.37820  0.06600  Biso   1.000  N
  N84      1.0000 0.05070  0.37820  0.13020  Biso   1.000  N
  N85      1.0000 0.05170  0.43830  0.00870  Biso   1.000  N
  N86      1.0000 0.81090  0.75350  0.74770  Biso   1.000  N
  N87      1.0000 0.12210  0.74760  0.44610  Biso   1.000  N
  N88      1.0000 0.36960  0.49330  0.69760  Biso   1.000  N
  N89      1.0000 0.80850  0.74850  0.31980  Biso   1.000  N
  N90      1.0000 0.81500  0.68200  0.37800  Biso   1.000  N
  N91      1.0000 0.37820  0.50310  0.06600  Biso   1.000  N
  N92      1.0000 0.37820  0.44090  0.13020  Biso   1.000  N
  N93      1.0000 0.43830  0.50130  0.00870  Biso   1.000  N
  N94      1.0000 0.75350  0.68790  0.74770  Biso   1.000  N
  N95      1.0000 0.74760  0.68420  0.44610  Biso   1.000  N
  N96      1.0000 0.49330  0.43950  0.69760  Biso   1.000  N
  N97      1.0000 0.74850  0.12320  0.31980  Biso   1.000  N
  N98      1.0000 0.68200  0.12500  0.37800  Biso   1.000  N
  N99      1.0000 0.50310  0.05270  0.06600  Biso   1.000  N
  N100     1.0000 0.44090  0.05070  0.13020  Biso   1.000  N
  N101     1.0000 0.50130  0.05170  0.00870  Biso   1.000  N
  N102     1.0000 0.68790  0.81090  0.74770  Biso   1.000  N
  N103     1.0000 0.68420  0.12210  0.44610  Biso   1.000  N
  N104     1.0000 0.43950  0.36960  0.69760  Biso   1.000  N
  N105     1.0000 0.11930  0.74790  0.38490  Biso   1.000  N
  N106     1.0000 0.74790  0.11930  0.38490  Biso   1.000  N
  N107     1.0000 0.74790  0.74790  0.38490  Biso   1.000  N
  N108     1.0000 0.05170  0.44025  0.06780  Biso   1.000  N
  N109     1.0000 0.44025  0.05170  0.06780  Biso   1.000  N
  N110     1.0000 0.44025  0.44025  0.06780  Biso   1.000  N
  N111     1.0000 0.75087  0.75087  0.74739  Biso   1.000  N
  N112     1.0000 0.43503  0.43503  0.69491  Biso   1.000  N
  O55      1.0000 0.10290  0.64780  0.22020  Biso   1.000  O
  O56      1.0000 0.10296  0.58646  0.28152  Biso   1.000  O
  O57      1.0000 0.08200  0.53710  0.22590  Biso   1.000  O
  O58      1.0000 0.08070  0.59720  0.16770  Biso   1.000  O
  O59      1.0000 0.07920  0.53730  0.78760  Biso   1.000  O
  O60      1.0000 0.03480  0.58460  0.73360  Biso   1.000  O
  O61      1.0000 0.10800  0.58490  0.65940  Biso   1.000  O
  O62      1.0000 0.15330  0.53660  0.71620  Biso   1.000  O
  O63      1.0000 0.02910  0.10290  0.22020  Biso   1.000  O
  O64      1.0000 0.02906  0.10296  0.28152  Biso   1.000  O
  O65      1.0000 0.15500  0.08200  0.22590  Biso   1.000  O
  O66      1.0000 0.15440  0.08070  0.16770  Biso   1.000  O
  O67      1.0000 0.59590  0.07920  0.78760  Biso   1.000  O
  O68      1.0000 0.64700  0.03480  0.73360  Biso   1.000  O
  O69      1.0000 0.64770  0.10800  0.65940  Biso   1.000  O
  O70      1.0000 0.59390  0.15330  0.71620  Biso   1.000  O
  O71      1.0000 0.64780  0.02910  0.22020  Biso   1.000  O
  O72      1.0000 0.58646  0.02906  0.28152  Biso   1.000  O
  O73      1.0000 0.53710  0.15500  0.22590  Biso   1.000  O
  O74      1.0000 0.59720  0.15440  0.16770  Biso   1.000  O
  O75      1.0000 0.53730  0.59590  0.78760  Biso   1.000  O
  O76      1.0000 0.58460  0.64700  0.73360  Biso   1.000  O
  O77      1.0000 0.58490  0.64770  0.65940  Biso   1.000  O
  O78      1.0000 0.53660  0.59390  0.71620  Biso   1.000  O
  O79      1.0000 0.10290  0.02910  0.22020  Biso   1.000  O
  O80      1.0000 0.10296  0.02906  0.28152  Biso   1.000  O
  O81      1.0000 0.08200  0.15500  0.22590  Biso   1.000  O
  O82      1.0000 0.08070  0.15440  0.16770  Biso   1.000  O
  O83      1.0000 0.07920  0.59590  0.78760  Biso   1.000  O
  O84      1.0000 0.03480  0.64700  0.73360  Biso   1.000  O
  O85      1.0000 0.10800  0.64770  0.65940  Biso   1.000  O
  O86      1.0000 0.15330  0.59390  0.71620  Biso   1.000  O
  O87      1.0000 0.02910  0.64780  0.22020  Biso   1.000  O
  O88      1.0000 0.02906  0.58646  0.28152  Biso   1.000  O
  O89      1.0000 0.15500  0.53710  0.22590  Biso   1.000  O
  O90      1.0000 0.15440  0.59720  0.16770  Biso   1.000  O
  O91      1.0000 0.59590  0.53730  0.78760  Biso   1.000  O
  O92      1.0000 0.64700  0.58460  0.73360  Biso   1.000  O
  O93      1.0000 0.64770  0.58490  0.65940  Biso   1.000  O
  O94      1.0000 0.59390  0.53660  0.71620  Biso   1.000  O
  O95      1.0000 0.64780  0.10290  0.22020  Biso   1.000  O
  O96      1.0000 0.58646  0.10296  0.28152  Biso   1.000  O
  O97      1.0000 0.53710  0.08200  0.22590  Biso   1.000  O
  O98      1.0000 0.59720  0.08070  0.16770  Biso   1.000  O
  O99      1.0000 0.53730  0.07920  0.78760  Biso   1.000  O
  O100     1.0000 0.58460  0.03480  0.73360  Biso   1.000  O
  O101     1.0000 0.58490  0.10800  0.65940  Biso   1.000  O
  O102     1.0000 0.53660  0.15330  0.71620  Biso   1.000  O
  O103     1.0000 0.09105  0.68590  0.13200  Biso   1.000  O
  O104     1.0000 0.09735  0.49270  0.31260  Biso   1.000  O
  O105     1.0000 0.09105  0.09105  0.13200  Biso   1.000  O
  O106     1.0000 0.09735  0.09735  0.31260  Biso   1.000  O
  O107     1.0000 0.68590  0.09105  0.13200  Biso   1.000  O
  O108     1.0000 0.49270  0.09735  0.31260  Biso   1.000  O
