data_NIFZIN_charged
_audit_creation_date              2014-07-02
_audit_creation_method            'Materials Studio'
_symmetry_space_group_name_H-M    'P1'
_symmetry_Int_Tables_number       1
_symmetry_cell_setting            triclinic
loop_
_symmetry_equiv_pos_as_xyz
  x,y,z
_cell_length_a                    18.3672
_cell_length_b                    18.5625
_cell_length_c                    49.0712
_cell_angle_alpha                 90.0000
_cell_angle_beta                  90.0000
_cell_angle_gamma                 90.0000
loop_
_atom_site_label
_atom_site_type_symbol
_atom_site_fract_x
_atom_site_fract_y
_atom_site_fract_z
_atom_site_U_iso_or_equiv
_atom_site_adp_type
_atom_site_occupancy
Tb1    Tb    0.20036   0.42011   0.87835   0.01267  Uiso   1.00
Tb2    Tb    0.35899   0.59927   0.87768   0.01267  Uiso   1.00
Tb3    Tb    0.80392   0.51883   0.87577   0.01267  Uiso   1.00
Tb4    Tb    0.70036   0.57989   0.62165   0.01267  Uiso   1.00
Tb5    Tb    0.85899   0.40073   0.62232   0.01267  Uiso   1.00
Tb6    Tb    0.30392   0.48117   0.62423   0.01267  Uiso   1.00
Tb7    Tb    0.29964   0.92011   0.12165   0.01267  Uiso   1.00
Tb8    Tb    0.14101   0.09927   0.12232   0.01267  Uiso   1.00
Tb9    Tb    0.69608   0.01883   0.12423   0.01267  Uiso   1.00
Tb10   Tb    0.79964   0.07989   0.37835   0.01267  Uiso   1.00
Tb11   Tb    0.64101   0.90073   0.37768   0.01267  Uiso   1.00
Tb12   Tb    0.19608   0.98117   0.37577   0.01267  Uiso   1.00
Tb13   Tb    0.79964   0.57989   0.12165   0.01267  Uiso   1.00
Tb14   Tb    0.64101   0.40073   0.12232   0.01267  Uiso   1.00
Tb15   Tb    0.19608   0.48117   0.12423   0.01267  Uiso   1.00
Tb16   Tb    0.29964   0.42011   0.37835   0.01267  Uiso   1.00
Tb17   Tb    0.14101   0.59927   0.37768   0.01267  Uiso   1.00
Tb18   Tb    0.69608   0.51883   0.37577   0.01267  Uiso   1.00
Tb19   Tb    0.70036   0.07989   0.87835   0.01267  Uiso   1.00
Tb20   Tb    0.85899   0.90073   0.87768   0.01267  Uiso   1.00
Tb21   Tb    0.30392   0.98117   0.87577   0.01267  Uiso   1.00
Tb22   Tb    0.20036   0.92011   0.62165   0.01267  Uiso   1.00
Tb23   Tb    0.35899   0.09927   0.62232   0.01267  Uiso   1.00
Tb24   Tb    0.80392   0.01883   0.62423   0.01267  Uiso   1.00
Co1    Co    0.03718   0.61769   0.74660   0.01267  Uiso   1.00
Co2    Co    0.11316   0.74806   0.00195   0.01267  Uiso   1.00
Co3    Co    0.53718   0.38231   0.75340   0.01267  Uiso   1.00
Co4    Co    0.61316   0.25194   0.49805   0.01267  Uiso   1.00
Co5    Co    0.46282   0.11769   0.25340   0.01267  Uiso   1.00
Co6    Co    0.38684   0.24806   0.99805   0.01267  Uiso   1.00
Co7    Co    0.96282   0.88231   0.24660   0.01267  Uiso   1.00
Co8    Co    0.88684   0.75194   0.50195   0.01267  Uiso   1.00
Co9    Co    0.96282   0.38231   0.25340   0.01267  Uiso   1.00
Co10   Co    0.88684   0.25194   0.99805   0.01267  Uiso   1.00
Co11   Co    0.46282   0.61769   0.24660   0.01267  Uiso   1.00
Co12   Co    0.38684   0.74806   0.50195   0.01267  Uiso   1.00
Co13   Co    0.53718   0.88231   0.74660   0.01267  Uiso   1.00
Co14   Co    0.61316   0.75194   0.00195   0.01267  Uiso   1.00
Co15   Co    0.03718   0.11769   0.75340   0.01267  Uiso   1.00
Co16   Co    0.11316   0.24806   0.49805   0.01267  Uiso   1.00
H1     H     0.46240   0.22720   0.05530   0.01267  Uiso   1.00
H2     H     0.62610   0.36950   0.05680   0.01267  Uiso   1.00
H3     H     0.58560   0.41330   0.01540   0.01267  Uiso   1.00
H4     H     0.53980   0.45210   0.97660   0.01267  Uiso   1.00
H5     H     0.47760   0.49150   0.93810   0.01267  Uiso   1.00
H6     H     0.33100   0.33520   0.94940   0.01267  Uiso   1.00
H7     H     0.46670   0.45890   0.80380   0.01267  Uiso   1.00
H8     H     0.31020   0.32570   0.82950   0.01267  Uiso   1.00
H9     H     0.33750   0.24910   0.79330   0.01267  Uiso   1.00
H10    H     0.34780   0.19940   0.75410   0.01267  Uiso   1.00
H11    H     0.36210   0.15080   0.71080   0.01267  Uiso   1.00
H12    H     0.52190   0.29550   0.69830   0.01267  Uiso   1.00
H13    H     0.11000   0.54970   0.79850   0.01267  Uiso   1.00
H14    H     0.25020   0.69830   0.82540   0.01267  Uiso   1.00
H15    H     0.22890   0.76550   0.78540   0.01267  Uiso   1.00
H16    H     0.21380   0.81300   0.74610   0.01267  Uiso   1.00
H17    H     0.18810   0.86060   0.70340   0.01267  Uiso   1.00
H18    H     0.04620   0.70270   0.69140   0.01267  Uiso   1.00
H19    H     0.20760   0.67780   0.95640   0.01267  Uiso   1.00
H20    H     0.08240   0.52050   0.92680   0.01267  Uiso   1.00
H21    H     0.00300   0.53850   0.96280   0.01267  Uiso   1.00
H22    H     0.93600   0.55900   0.99920   0.01267  Uiso   1.00
H23    H     0.87320   0.58470   0.03930   0.01267  Uiso   1.00
H24    H     0.01220   0.74620   0.05240   0.01267  Uiso   1.00
H25    H     0.14130   0.58660   0.69810   0.01267  Uiso   1.00
H26    H     0.13320   0.37440   0.68550   0.01267  Uiso   1.00
H27    H     0.06260   0.36380   0.72450   0.01267  Uiso   1.00
H28    H     0.01410   0.36260   0.76650   0.01267  Uiso   1.00
H29    H     0.94580   0.37130   0.80640   0.01267  Uiso   1.00
H30    H     0.93730   0.58470   0.79520   0.01267  Uiso   1.00
H31    H     0.86620   0.33830   0.94490   0.01267  Uiso   1.00
H32    H     0.65220   0.36410   0.93610   0.01267  Uiso   1.00
H33    H     0.63490   0.29520   0.97480   0.01267  Uiso   1.00
H34    H     0.62790   0.22040   0.01050   0.01267  Uiso   1.00
H35    H     0.63330   0.14090   0.04730   0.01267  Uiso   1.00
H36    H     0.84990   0.14620   0.04300   0.01267  Uiso   1.00
H37    H     0.28330   0.31270   0.88830   0.01267  Uiso   1.00
H38    H     0.51580   0.62830   0.87420   0.01267  Uiso   1.00
H39    H     0.85340   0.67150   0.87510   0.01267  Uiso   1.00
H40    H     0.92770   0.53890   0.90370   0.01267  Uiso   1.00
H41    H     0.21670   0.28400   0.88180   0.01267  Uiso   1.00
H42    H     0.51000   0.57310   0.89360   0.01267  Uiso   1.00
H43    H     0.77790   0.67740   0.87910   0.01267  Uiso   1.00
H44    H     0.94950   0.52590   0.87710   0.01267  Uiso   1.00
H45    H     0.07670   0.44190   0.89510   0.01267  Uiso   1.00
H46    H     0.07110   0.43520   0.86700   0.01267  Uiso   1.00
H47    H     0.96240   0.77280   0.44470   0.01267  Uiso   1.00
H48    H     0.12610   0.63050   0.44320   0.01267  Uiso   1.00
H49    H     0.08560   0.58670   0.48460   0.01267  Uiso   1.00
H50    H     0.03980   0.54790   0.52340   0.01267  Uiso   1.00
H51    H     0.97760   0.50850   0.56190   0.01267  Uiso   1.00
H52    H     0.83100   0.66480   0.55060   0.01267  Uiso   1.00
H53    H     0.96670   0.54110   0.69620   0.01267  Uiso   1.00
H54    H     0.81020   0.67430   0.67050   0.01267  Uiso   1.00
H55    H     0.83750   0.75090   0.70670   0.01267  Uiso   1.00
H56    H     0.84780   0.80060   0.74590   0.01267  Uiso   1.00
H57    H     0.86210   0.84920   0.78920   0.01267  Uiso   1.00
H58    H     0.02190   0.70450   0.80170   0.01267  Uiso   1.00
H59    H     0.61000   0.45030   0.70150   0.01267  Uiso   1.00
H60    H     0.75020   0.30170   0.67460   0.01267  Uiso   1.00
H61    H     0.72890   0.23450   0.71460   0.01267  Uiso   1.00
H62    H     0.71380   0.18700   0.75390   0.01267  Uiso   1.00
H63    H     0.68810   0.13940   0.79660   0.01267  Uiso   1.00
H64    H     0.54620   0.29730   0.80860   0.01267  Uiso   1.00
H65    H     0.70760   0.32220   0.54360   0.01267  Uiso   1.00
H66    H     0.58240   0.47950   0.57320   0.01267  Uiso   1.00
H67    H     0.50300   0.46150   0.53720   0.01267  Uiso   1.00
H68    H     0.43600   0.44100   0.50080   0.01267  Uiso   1.00
H69    H     0.37320   0.41530   0.46070   0.01267  Uiso   1.00
H70    H     0.51220   0.25380   0.44760   0.01267  Uiso   1.00
H71    H     0.64130   0.41340   0.80190   0.01267  Uiso   1.00
H72    H     0.63320   0.62560   0.81450   0.01267  Uiso   1.00
H73    H     0.56260   0.63620   0.77550   0.01267  Uiso   1.00
H74    H     0.51410   0.63740   0.73350   0.01267  Uiso   1.00
H75    H     0.44580   0.62870   0.69360   0.01267  Uiso   1.00
H76    H     0.43730   0.41530   0.70480   0.01267  Uiso   1.00
H77    H     0.36620   0.66170   0.55510   0.01267  Uiso   1.00
H78    H     0.15220   0.63590   0.56390   0.01267  Uiso   1.00
H79    H     0.13490   0.70480   0.52520   0.01267  Uiso   1.00
H80    H     0.12790   0.77960   0.48950   0.01267  Uiso   1.00
H81    H     0.13330   0.85910   0.45270   0.01267  Uiso   1.00
H82    H     0.34990   0.85380   0.45700   0.01267  Uiso   1.00
H83    H     0.78330   0.68730   0.61170   0.01267  Uiso   1.00
H84    H     0.01580   0.37170   0.62580   0.01267  Uiso   1.00
H85    H     0.35340   0.32850   0.62490   0.01267  Uiso   1.00
H86    H     0.42770   0.46110   0.59630   0.01267  Uiso   1.00
H87    H     0.71670   0.71600   0.61820   0.01267  Uiso   1.00
H88    H     0.01000   0.42690   0.60640   0.01267  Uiso   1.00
H89    H     0.27790   0.32260   0.62090   0.01267  Uiso   1.00
H90    H     0.44950   0.47410   0.62290   0.01267  Uiso   1.00
H91    H     0.57670   0.55810   0.60490   0.01267  Uiso   1.00
H92    H     0.57110   0.56480   0.63300   0.01267  Uiso   1.00
H93    H     0.03760   0.72720   0.94470   0.01267  Uiso   1.00
H94    H     0.87390   0.86950   0.94320   0.01267  Uiso   1.00
H95    H     0.91440   0.91330   0.98460   0.01267  Uiso   1.00
H96    H     0.96020   0.95210   0.02340   0.01267  Uiso   1.00
H97    H     0.02240   0.99150   0.06190   0.01267  Uiso   1.00
H98    H     0.16900   0.83520   0.05060   0.01267  Uiso   1.00
H99    H     0.03330   0.95890   0.19620   0.01267  Uiso   1.00
H100   H     0.18980   0.82570   0.17050   0.01267  Uiso   1.00
H101   H     0.16250   0.74910   0.20670   0.01267  Uiso   1.00
H102   H     0.15220   0.69940   0.24590   0.01267  Uiso   1.00
H103   H     0.13790   0.65080   0.28920   0.01267  Uiso   1.00
H104   H     0.97810   0.79550   0.30170   0.01267  Uiso   1.00
H105   H     0.39000   0.04970   0.20150   0.01267  Uiso   1.00
H106   H     0.24980   0.19830   0.17460   0.01267  Uiso   1.00
H107   H     0.27110   0.26550   0.21460   0.01267  Uiso   1.00
H108   H     0.28620   0.31300   0.25390   0.01267  Uiso   1.00
H109   H     0.31190   0.36060   0.29660   0.01267  Uiso   1.00
H110   H     0.45380   0.20270   0.30860   0.01267  Uiso   1.00
H111   H     0.29240   0.17780   0.04360   0.01267  Uiso   1.00
H112   H     0.41760   0.02050   0.07320   0.01267  Uiso   1.00
H113   H     0.49700   0.03850   0.03720   0.01267  Uiso   1.00
H114   H     0.56400   0.05900   0.00080   0.01267  Uiso   1.00
H115   H     0.62680   0.08470   0.96070   0.01267  Uiso   1.00
H116   H     0.48780   0.24620   0.94760   0.01267  Uiso   1.00
H117   H     0.35870   0.08660   0.30190   0.01267  Uiso   1.00
H118   H     0.36680   0.87440   0.31450   0.01267  Uiso   1.00
H119   H     0.43740   0.86380   0.27550   0.01267  Uiso   1.00
H120   H     0.48590   0.86260   0.23350   0.01267  Uiso   1.00
H121   H     0.55420   0.87130   0.19360   0.01267  Uiso   1.00
H122   H     0.56270   0.08470   0.20480   0.01267  Uiso   1.00
H123   H     0.63380   0.83830   0.05510   0.01267  Uiso   1.00
H124   H     0.84780   0.86410   0.06390   0.01267  Uiso   1.00
H125   H     0.86510   0.79520   0.02520   0.01267  Uiso   1.00
H126   H     0.87210   0.72040   0.98950   0.01267  Uiso   1.00
H127   H     0.86670   0.64090   0.95270   0.01267  Uiso   1.00
H128   H     0.65010   0.64620   0.95700   0.01267  Uiso   1.00
H129   H     0.21670   0.81270   0.11170   0.01267  Uiso   1.00
H130   H     0.98420   0.12830   0.12580   0.01267  Uiso   1.00
H131   H     0.64660   0.17150   0.12490   0.01267  Uiso   1.00
H132   H     0.57230   0.03890   0.09630   0.01267  Uiso   1.00
H133   H     0.28330   0.78400   0.11820   0.01267  Uiso   1.00
H134   H     0.99000   0.07310   0.10640   0.01267  Uiso   1.00
H135   H     0.72210   0.17740   0.12090   0.01267  Uiso   1.00
H136   H     0.55050   0.02590   0.12290   0.01267  Uiso   1.00
H137   H     0.42330   0.94190   0.10490   0.01267  Uiso   1.00
H138   H     0.42890   0.93520   0.13300   0.01267  Uiso   1.00
H139   H     0.53760   0.27280   0.55530   0.01267  Uiso   1.00
H140   H     0.37390   0.13050   0.55680   0.01267  Uiso   1.00
H141   H     0.41440   0.08670   0.51540   0.01267  Uiso   1.00
H142   H     0.46020   0.04790   0.47660   0.01267  Uiso   1.00
H143   H     0.52240   0.00850   0.43810   0.01267  Uiso   1.00
H144   H     0.66900   0.16480   0.44940   0.01267  Uiso   1.00
H145   H     0.53330   0.04110   0.30380   0.01267  Uiso   1.00
H146   H     0.68980   0.17430   0.32950   0.01267  Uiso   1.00
H147   H     0.66250   0.25090   0.29330   0.01267  Uiso   1.00
H148   H     0.65220   0.30060   0.25410   0.01267  Uiso   1.00
H149   H     0.63790   0.34920   0.21080   0.01267  Uiso   1.00
H150   H     0.47810   0.20450   0.19830   0.01267  Uiso   1.00
H151   H     0.89000   0.95030   0.29850   0.01267  Uiso   1.00
H152   H     0.74980   0.80170   0.32540   0.01267  Uiso   1.00
H153   H     0.77110   0.73450   0.28540   0.01267  Uiso   1.00
H154   H     0.78620   0.68700   0.24610   0.01267  Uiso   1.00
H155   H     0.81190   0.63940   0.20340   0.01267  Uiso   1.00
H156   H     0.95380   0.79730   0.19140   0.01267  Uiso   1.00
H157   H     0.79240   0.82220   0.45640   0.01267  Uiso   1.00
H158   H     0.91760   0.97950   0.42680   0.01267  Uiso   1.00
H159   H     0.99700   0.96150   0.46280   0.01267  Uiso   1.00
H160   H     0.06400   0.94100   0.49920   0.01267  Uiso   1.00
H161   H     0.12680   0.91530   0.53930   0.01267  Uiso   1.00
H162   H     0.98780   0.75380   0.55240   0.01267  Uiso   1.00
H163   H     0.85870   0.91340   0.19810   0.01267  Uiso   1.00
H164   H     0.86680   0.12560   0.18550   0.01267  Uiso   1.00
H165   H     0.93740   0.13620   0.22450   0.01267  Uiso   1.00
H166   H     0.98590   0.13740   0.26650   0.01267  Uiso   1.00
H167   H     0.05420   0.12870   0.30640   0.01267  Uiso   1.00
H168   H     0.06270   0.91530   0.29520   0.01267  Uiso   1.00
H169   H     0.13380   0.16170   0.44490   0.01267  Uiso   1.00
H170   H     0.34780   0.13590   0.43610   0.01267  Uiso   1.00
H171   H     0.36510   0.20480   0.47480   0.01267  Uiso   1.00
H172   H     0.37210   0.27960   0.51050   0.01267  Uiso   1.00
H173   H     0.36670   0.35910   0.54730   0.01267  Uiso   1.00
H174   H     0.15010   0.35380   0.54300   0.01267  Uiso   1.00
H175   H     0.71670   0.18730   0.38830   0.01267  Uiso   1.00
H176   H     0.48420   0.87170   0.37420   0.01267  Uiso   1.00
H177   H     0.14660   0.82850   0.37510   0.01267  Uiso   1.00
H178   H     0.07230   0.96110   0.40370   0.01267  Uiso   1.00
H179   H     0.78330   0.21600   0.38180   0.01267  Uiso   1.00
H180   H     0.49000   0.92690   0.39360   0.01267  Uiso   1.00
H181   H     0.22210   0.82260   0.37910   0.01267  Uiso   1.00
H182   H     0.05050   0.97410   0.37710   0.01267  Uiso   1.00
H183   H     0.92330   0.05810   0.39510   0.01267  Uiso   1.00
H184   H     0.92890   0.06480   0.36700   0.01267  Uiso   1.00
H185   H     0.53760   0.77280   0.94470   0.01267  Uiso   1.00
H186   H     0.37390   0.63050   0.94320   0.01267  Uiso   1.00
H187   H     0.41440   0.58670   0.98460   0.01267  Uiso   1.00
H188   H     0.46020   0.54790   0.02340   0.01267  Uiso   1.00
H189   H     0.52240   0.50850   0.06190   0.01267  Uiso   1.00
H190   H     0.66900   0.66480   0.05060   0.01267  Uiso   1.00
H191   H     0.53330   0.54110   0.19620   0.01267  Uiso   1.00
H192   H     0.68980   0.67430   0.17050   0.01267  Uiso   1.00
H193   H     0.66250   0.75090   0.20670   0.01267  Uiso   1.00
H194   H     0.65220   0.80060   0.24590   0.01267  Uiso   1.00
H195   H     0.63790   0.84920   0.28920   0.01267  Uiso   1.00
H196   H     0.47810   0.70450   0.30170   0.01267  Uiso   1.00
H197   H     0.89000   0.45030   0.20150   0.01267  Uiso   1.00
H198   H     0.74980   0.30170   0.17460   0.01267  Uiso   1.00
H199   H     0.77110   0.23450   0.21460   0.01267  Uiso   1.00
H200   H     0.78620   0.18700   0.25390   0.01267  Uiso   1.00
H201   H     0.81190   0.13940   0.29660   0.01267  Uiso   1.00
H202   H     0.95380   0.29730   0.30860   0.01267  Uiso   1.00
H203   H     0.79240   0.32220   0.04360   0.01267  Uiso   1.00
H204   H     0.91760   0.47950   0.07320   0.01267  Uiso   1.00
H205   H     0.99700   0.46150   0.03720   0.01267  Uiso   1.00
H206   H     0.06400   0.44100   0.00080   0.01267  Uiso   1.00
H207   H     0.12680   0.41530   0.96070   0.01267  Uiso   1.00
H208   H     0.98780   0.25380   0.94760   0.01267  Uiso   1.00
H209   H     0.85870   0.41340   0.30190   0.01267  Uiso   1.00
H210   H     0.86680   0.62560   0.31450   0.01267  Uiso   1.00
H211   H     0.93740   0.63620   0.27550   0.01267  Uiso   1.00
H212   H     0.98590   0.63740   0.23350   0.01267  Uiso   1.00
H213   H     0.05420   0.62870   0.19360   0.01267  Uiso   1.00
H214   H     0.06270   0.41530   0.20480   0.01267  Uiso   1.00
H215   H     0.13380   0.66170   0.05510   0.01267  Uiso   1.00
H216   H     0.34780   0.63590   0.06390   0.01267  Uiso   1.00
H217   H     0.36510   0.70480   0.02520   0.01267  Uiso   1.00
H218   H     0.37210   0.77960   0.98950   0.01267  Uiso   1.00
H219   H     0.36670   0.85910   0.95270   0.01267  Uiso   1.00
H220   H     0.15010   0.85380   0.95700   0.01267  Uiso   1.00
H221   H     0.71670   0.68730   0.11170   0.01267  Uiso   1.00
H222   H     0.48420   0.37170   0.12580   0.01267  Uiso   1.00
H223   H     0.14660   0.32850   0.12490   0.01267  Uiso   1.00
H224   H     0.07230   0.46110   0.09630   0.01267  Uiso   1.00
H225   H     0.78330   0.71600   0.11820   0.01267  Uiso   1.00
H226   H     0.49000   0.42690   0.10640   0.01267  Uiso   1.00
H227   H     0.22210   0.32260   0.12090   0.01267  Uiso   1.00
H228   H     0.05050   0.47410   0.12290   0.01267  Uiso   1.00
H229   H     0.92330   0.55810   0.10490   0.01267  Uiso   1.00
H230   H     0.92890   0.56480   0.13300   0.01267  Uiso   1.00
H231   H     0.03760   0.22720   0.55530   0.01267  Uiso   1.00
H232   H     0.87390   0.36950   0.55680   0.01267  Uiso   1.00
H233   H     0.91440   0.41330   0.51540   0.01267  Uiso   1.00
H234   H     0.96020   0.45210   0.47660   0.01267  Uiso   1.00
H235   H     0.02240   0.49150   0.43810   0.01267  Uiso   1.00
H236   H     0.16900   0.33520   0.44940   0.01267  Uiso   1.00
H237   H     0.03330   0.45890   0.30380   0.01267  Uiso   1.00
H238   H     0.18980   0.32570   0.32950   0.01267  Uiso   1.00
H239   H     0.16250   0.24910   0.29330   0.01267  Uiso   1.00
H240   H     0.15220   0.19940   0.25410   0.01267  Uiso   1.00
H241   H     0.13790   0.15080   0.21080   0.01267  Uiso   1.00
H242   H     0.97810   0.29550   0.19830   0.01267  Uiso   1.00
H243   H     0.39000   0.54970   0.29850   0.01267  Uiso   1.00
H244   H     0.24980   0.69830   0.32540   0.01267  Uiso   1.00
H245   H     0.27110   0.76550   0.28540   0.01267  Uiso   1.00
H246   H     0.28620   0.81300   0.24610   0.01267  Uiso   1.00
H247   H     0.31190   0.86060   0.20340   0.01267  Uiso   1.00
H248   H     0.45380   0.70270   0.19140   0.01267  Uiso   1.00
H249   H     0.29240   0.67780   0.45640   0.01267  Uiso   1.00
H250   H     0.41760   0.52050   0.42680   0.01267  Uiso   1.00
H251   H     0.49700   0.53850   0.46280   0.01267  Uiso   1.00
H252   H     0.56400   0.55900   0.49920   0.01267  Uiso   1.00
H253   H     0.62680   0.58470   0.53930   0.01267  Uiso   1.00
H254   H     0.48780   0.74620   0.55240   0.01267  Uiso   1.00
H255   H     0.35870   0.58660   0.19810   0.01267  Uiso   1.00
H256   H     0.36680   0.37440   0.18550   0.01267  Uiso   1.00
H257   H     0.43740   0.36380   0.22450   0.01267  Uiso   1.00
H258   H     0.48590   0.36260   0.26650   0.01267  Uiso   1.00
H259   H     0.55420   0.37130   0.30640   0.01267  Uiso   1.00
H260   H     0.56270   0.58470   0.29520   0.01267  Uiso   1.00
H261   H     0.63380   0.33830   0.44490   0.01267  Uiso   1.00
H262   H     0.84780   0.36410   0.43610   0.01267  Uiso   1.00
H263   H     0.86510   0.29520   0.47480   0.01267  Uiso   1.00
H264   H     0.87210   0.22040   0.51050   0.01267  Uiso   1.00
H265   H     0.86670   0.14090   0.54730   0.01267  Uiso   1.00
H266   H     0.65010   0.14620   0.54300   0.01267  Uiso   1.00
H267   H     0.21670   0.31270   0.38830   0.01267  Uiso   1.00
H268   H     0.98420   0.62830   0.37420   0.01267  Uiso   1.00
H269   H     0.64660   0.67150   0.37510   0.01267  Uiso   1.00
H270   H     0.57230   0.53890   0.40370   0.01267  Uiso   1.00
H271   H     0.28330   0.28400   0.38180   0.01267  Uiso   1.00
H272   H     0.99000   0.57310   0.39360   0.01267  Uiso   1.00
H273   H     0.72210   0.67740   0.37910   0.01267  Uiso   1.00
H274   H     0.55050   0.52590   0.37710   0.01267  Uiso   1.00
H275   H     0.42330   0.44190   0.39510   0.01267  Uiso   1.00
H276   H     0.42890   0.43520   0.36700   0.01267  Uiso   1.00
H277   H     0.96240   0.27280   0.05530   0.01267  Uiso   1.00
H278   H     0.12610   0.13050   0.05680   0.01267  Uiso   1.00
H279   H     0.08560   0.08670   0.01540   0.01267  Uiso   1.00
H280   H     0.03980   0.04790   0.97660   0.01267  Uiso   1.00
H281   H     0.97760   0.00850   0.93810   0.01267  Uiso   1.00
H282   H     0.83100   0.16480   0.94940   0.01267  Uiso   1.00
H283   H     0.96670   0.04110   0.80380   0.01267  Uiso   1.00
H284   H     0.81020   0.17430   0.82950   0.01267  Uiso   1.00
H285   H     0.83750   0.25090   0.79330   0.01267  Uiso   1.00
H286   H     0.84780   0.30060   0.75410   0.01267  Uiso   1.00
H287   H     0.86210   0.34920   0.71080   0.01267  Uiso   1.00
H288   H     0.02190   0.20450   0.69830   0.01267  Uiso   1.00
H289   H     0.61000   0.95030   0.79850   0.01267  Uiso   1.00
H290   H     0.75020   0.80170   0.82540   0.01267  Uiso   1.00
H291   H     0.72890   0.73450   0.78540   0.01267  Uiso   1.00
H292   H     0.71380   0.68700   0.74610   0.01267  Uiso   1.00
H293   H     0.68810   0.63940   0.70340   0.01267  Uiso   1.00
H294   H     0.54620   0.79730   0.69140   0.01267  Uiso   1.00
H295   H     0.70760   0.82220   0.95640   0.01267  Uiso   1.00
H296   H     0.58240   0.97950   0.92680   0.01267  Uiso   1.00
H297   H     0.50300   0.96150   0.96280   0.01267  Uiso   1.00
H298   H     0.43600   0.94100   0.99920   0.01267  Uiso   1.00
H299   H     0.37320   0.91530   0.03930   0.01267  Uiso   1.00
H300   H     0.51220   0.75380   0.05240   0.01267  Uiso   1.00
H301   H     0.64130   0.91340   0.69810   0.01267  Uiso   1.00
H302   H     0.63320   0.12560   0.68550   0.01267  Uiso   1.00
H303   H     0.56260   0.13620   0.72450   0.01267  Uiso   1.00
H304   H     0.51410   0.13740   0.76650   0.01267  Uiso   1.00
H305   H     0.44580   0.12870   0.80640   0.01267  Uiso   1.00
H306   H     0.43730   0.91530   0.79520   0.01267  Uiso   1.00
H307   H     0.36620   0.16170   0.94490   0.01267  Uiso   1.00
H308   H     0.15220   0.13590   0.93610   0.01267  Uiso   1.00
H309   H     0.13490   0.20480   0.97480   0.01267  Uiso   1.00
H310   H     0.12790   0.27960   0.01050   0.01267  Uiso   1.00
H311   H     0.13330   0.35910   0.04730   0.01267  Uiso   1.00
H312   H     0.34990   0.35380   0.04300   0.01267  Uiso   1.00
H313   H     0.78330   0.18730   0.88830   0.01267  Uiso   1.00
H314   H     0.01580   0.87170   0.87420   0.01267  Uiso   1.00
H315   H     0.35340   0.82850   0.87510   0.01267  Uiso   1.00
H316   H     0.42770   0.96110   0.90370   0.01267  Uiso   1.00
H317   H     0.71670   0.21600   0.88180   0.01267  Uiso   1.00
H318   H     0.01000   0.92690   0.89360   0.01267  Uiso   1.00
H319   H     0.27790   0.82260   0.87910   0.01267  Uiso   1.00
H320   H     0.44950   0.97410   0.87710   0.01267  Uiso   1.00
H321   H     0.57670   0.05810   0.89510   0.01267  Uiso   1.00
H322   H     0.57110   0.06480   0.86700   0.01267  Uiso   1.00
H323   H     0.46240   0.72720   0.44470   0.01267  Uiso   1.00
H324   H     0.62610   0.86950   0.44320   0.01267  Uiso   1.00
H325   H     0.58560   0.91330   0.48460   0.01267  Uiso   1.00
H326   H     0.53980   0.95210   0.52340   0.01267  Uiso   1.00
H327   H     0.47760   0.99150   0.56190   0.01267  Uiso   1.00
H328   H     0.33100   0.83520   0.55060   0.01267  Uiso   1.00
H329   H     0.46670   0.95890   0.69620   0.01267  Uiso   1.00
H330   H     0.31020   0.82570   0.67050   0.01267  Uiso   1.00
H331   H     0.33750   0.74910   0.70670   0.01267  Uiso   1.00
H332   H     0.34780   0.69940   0.74590   0.01267  Uiso   1.00
H333   H     0.36210   0.65080   0.78920   0.01267  Uiso   1.00
H334   H     0.52190   0.79550   0.80170   0.01267  Uiso   1.00
H335   H     0.11000   0.04970   0.70150   0.01267  Uiso   1.00
H336   H     0.25020   0.19830   0.67460   0.01267  Uiso   1.00
H337   H     0.22890   0.26550   0.71460   0.01267  Uiso   1.00
H338   H     0.21380   0.31300   0.75390   0.01267  Uiso   1.00
H339   H     0.18810   0.36060   0.79660   0.01267  Uiso   1.00
H340   H     0.04620   0.20270   0.80860   0.01267  Uiso   1.00
H341   H     0.20760   0.17780   0.54360   0.01267  Uiso   1.00
H342   H     0.08240   0.02050   0.57320   0.01267  Uiso   1.00
H343   H     0.00300   0.03850   0.53720   0.01267  Uiso   1.00
H344   H     0.93600   0.05900   0.50080   0.01267  Uiso   1.00
H345   H     0.87320   0.08470   0.46070   0.01267  Uiso   1.00
H346   H     0.01220   0.24620   0.44760   0.01267  Uiso   1.00
H347   H     0.14130   0.08660   0.80190   0.01267  Uiso   1.00
H348   H     0.13320   0.87440   0.81450   0.01267  Uiso   1.00
H349   H     0.06260   0.86380   0.77550   0.01267  Uiso   1.00
H350   H     0.01410   0.86260   0.73350   0.01267  Uiso   1.00
H351   H     0.94580   0.87130   0.69360   0.01267  Uiso   1.00
H352   H     0.93730   0.08470   0.70480   0.01267  Uiso   1.00
H353   H     0.86620   0.83830   0.55510   0.01267  Uiso   1.00
H354   H     0.65220   0.86410   0.56390   0.01267  Uiso   1.00
H355   H     0.63490   0.79520   0.52520   0.01267  Uiso   1.00
H356   H     0.62790   0.72040   0.48950   0.01267  Uiso   1.00
H357   H     0.63330   0.64090   0.45270   0.01267  Uiso   1.00
H358   H     0.84990   0.64620   0.45700   0.01267  Uiso   1.00
H359   H     0.28330   0.81270   0.61170   0.01267  Uiso   1.00
H360   H     0.51580   0.12830   0.62580   0.01267  Uiso   1.00
H361   H     0.85340   0.17150   0.62490   0.01267  Uiso   1.00
H362   H     0.92770   0.03890   0.59630   0.01267  Uiso   1.00
H363   H     0.21670   0.78400   0.61820   0.01267  Uiso   1.00
H364   H     0.51000   0.07310   0.60640   0.01267  Uiso   1.00
H365   H     0.77790   0.17740   0.62090   0.01267  Uiso   1.00
H366   H     0.94950   0.02590   0.62290   0.01267  Uiso   1.00
H367   H     0.07670   0.94190   0.60490   0.01267  Uiso   1.00
H368   H     0.07110   0.93520   0.63300   0.01267  Uiso   1.00
C1     C     0.57330   0.25630   0.08646   0.01267  Uiso   1.00
C2     C     0.48760   0.26510   0.04726   0.01267  Uiso   1.00
C3     C     0.54770   0.29230   0.06060   0.01267  Uiso   1.00
C4     C     0.58540   0.34950   0.04840   0.01267  Uiso   1.00
C5     C     0.56100   0.37550   0.02380   0.01267  Uiso   1.00
C6     C     0.50110   0.34660   0.01149   0.01267  Uiso   1.00
C7     C     0.46960   0.37260   0.98592   0.01267  Uiso   1.00
C8     C     0.49680   0.42980   0.97120   0.01267  Uiso   1.00
C9     C     0.45950   0.45360   0.94848   0.01267  Uiso   1.00
C10    C     0.39580   0.42060   0.94149   0.01267  Uiso   1.00
C11    C     0.37230   0.35970   0.95531   0.01267  Uiso   1.00
C12    C     0.35000   0.44700   0.91786   0.01267  Uiso   1.00
C13    C     0.36260   0.45600   0.84230   0.01267  Uiso   1.00
C14    C     0.43890   0.41760   0.80125   0.01267  Uiso   1.00
C15    C     0.38360   0.40190   0.81980   0.01267  Uiso   1.00
C16    C     0.34580   0.33830   0.81690   0.01267  Uiso   1.00
C17    C     0.36090   0.29330   0.79510   0.01267  Uiso   1.00
C18    C     0.41130   0.31530   0.77622   0.01267  Uiso   1.00
C19    C     0.42510   0.27540   0.75052   0.01267  Uiso   1.00
C20    C     0.38240   0.21840   0.74227   0.01267  Uiso   1.00
C21    C     0.39070   0.18920   0.71660   0.01267  Uiso   1.00
C22    C     0.44380   0.21970   0.69953   0.01267  Uiso   1.00
C23    C     0.48590   0.27640   0.70946   0.01267  Uiso   1.00
C24    C     0.45200   0.19240   0.67050   0.01267  Uiso   1.00
C25    C     0.20500   0.56880   0.83950   0.01267  Uiso   1.00
C26    C     0.13420   0.59310   0.79586   0.01267  Uiso   1.00
C27    C     0.18510   0.61530   0.81510   0.01267  Uiso   1.00
C28    C     0.21880   0.68110   0.81210   0.01267  Uiso   1.00
C29    C     0.20500   0.72200   0.78840   0.01267  Uiso   1.00
C30    C     0.15540   0.69580   0.77000   0.01267  Uiso   1.00
C31    C     0.14280   0.73070   0.74342   0.01267  Uiso   1.00
C32    C     0.17940   0.79130   0.73490   0.01267  Uiso   1.00
C33    C     0.16420   0.81930   0.70940   0.01267  Uiso   1.00
C34    C     0.11460   0.78650   0.69320   0.01267  Uiso   1.00
C35    C     0.07920   0.72580   0.70277   0.01267  Uiso   1.00
C36    C     0.09510   0.81430   0.66500   0.01267  Uiso   1.00
C37    C     0.21130   0.58080   0.91619   0.01267  Uiso   1.00
C38    C     0.16590   0.64960   0.95751   0.01267  Uiso   1.00
C39    C     0.15540   0.59650   0.93822   0.01267  Uiso   1.00
C40    C     0.09240   0.55530   0.93990   0.01267  Uiso   1.00
C41    C     0.04470   0.56650   0.96125   0.01267  Uiso   1.00
C42    C     0.05890   0.61910   0.98028   0.01267  Uiso   1.00
C43    C     0.01210   0.63480   0.00373   0.01267  Uiso   1.00
C44    C     0.95180   0.59600   0.01054   0.01267  Uiso   1.00
C45    C     0.91380   0.61170   0.03440   0.01267  Uiso   1.00
C46    C     0.93690   0.66760   0.05080   0.01267  Uiso   1.00
C47    C     0.99660   0.70750   0.04187   0.01267  Uiso   1.00
C48    C     0.89830   0.68650   0.07720   0.01267  Uiso   1.00
C49    C     0.19320   0.49070   0.66340   0.01267  Uiso   1.00
C50    C     0.12490   0.54140   0.70350   0.01267  Uiso   1.00
C51    C     0.14510   0.48160   0.68800   0.01267  Uiso   1.00
C52    C     0.12130   0.41490   0.69570   0.01267  Uiso   1.00
C53    C     0.07920   0.40870   0.71890   0.01267  Uiso   1.00
C54    C     0.06220   0.46920   0.73359   0.01267  Uiso   1.00
C55    C     0.01700   0.46840   0.75895   0.01267  Uiso   1.00
C56    C     0.99880   0.40730   0.77280   0.01267  Uiso   1.00
C57    C     0.95730   0.41240   0.79640   0.01267  Uiso   1.00
C58    C     0.93380   0.47810   0.80463   0.01267  Uiso   1.00
C59    C     0.95350   0.53970   0.78951   0.01267  Uiso   1.00
C60    C     0.88880   0.48990   0.82970   0.01267  Uiso   1.00
C61    C     0.77640   0.40310   0.91120   0.01267  Uiso   1.00
C62    C     0.81910   0.32920   0.95089   0.01267  Uiso   1.00
C63    C     0.76180   0.35780   0.93605   0.01267  Uiso   1.00
C64    C     0.69200   0.34500   0.94530   0.01267  Uiso   1.00
C65    C     0.68170   0.30400   0.96830   0.01267  Uiso   1.00
C66    C     0.74280   0.27540   0.98190   0.01267  Uiso   1.00
C67    C     0.73780   0.22780   0.00510   0.01267  Uiso   1.00
C68    C     0.67250   0.20450   0.01710   0.01267  Uiso   1.00
C69    C     0.67580   0.15720   0.03900   0.01267  Uiso   1.00
C70    C     0.74130   0.13550   0.04810   0.01267  Uiso   1.00
C71    C     0.80500   0.16090   0.03630   0.01267  Uiso   1.00
C72    C     0.73890   0.08480   0.07320   0.01267  Uiso   1.00
C73    C     0.07330   0.74370   0.41354   0.01267  Uiso   1.00
C74    C     0.98760   0.73490   0.45274   0.01267  Uiso   1.00
C75    C     0.04770   0.70770   0.43940   0.01267  Uiso   1.00
C76    C     0.08540   0.65050   0.45160   0.01267  Uiso   1.00
C77    C     0.06100   0.62450   0.47620   0.01267  Uiso   1.00
C78    C     0.00110   0.65340   0.48851   0.01267  Uiso   1.00
C79    C     0.96960   0.62740   0.51408   0.01267  Uiso   1.00
C80    C     0.99680   0.57020   0.52880   0.01267  Uiso   1.00
C81    C     0.95950   0.54640   0.55152   0.01267  Uiso   1.00
C82    C     0.89580   0.57940   0.55851   0.01267  Uiso   1.00
C83    C     0.87230   0.64030   0.54469   0.01267  Uiso   1.00
C84    C     0.85000   0.55300   0.58214   0.01267  Uiso   1.00
C85    C     0.86260   0.54400   0.65770   0.01267  Uiso   1.00
C86    C     0.93890   0.58240   0.69875   0.01267  Uiso   1.00
C87    C     0.88360   0.59810   0.68020   0.01267  Uiso   1.00
C88    C     0.84580   0.66170   0.68310   0.01267  Uiso   1.00
C89    C     0.86090   0.70670   0.70490   0.01267  Uiso   1.00
C90    C     0.91130   0.68470   0.72378   0.01267  Uiso   1.00
C91    C     0.92510   0.72460   0.74948   0.01267  Uiso   1.00
C92    C     0.88240   0.78160   0.75773   0.01267  Uiso   1.00
C93    C     0.89070   0.81080   0.78340   0.01267  Uiso   1.00
C94    C     0.94380   0.78030   0.80047   0.01267  Uiso   1.00
C95    C     0.98590   0.72360   0.79054   0.01267  Uiso   1.00
C96    C     0.95200   0.80760   0.82950   0.01267  Uiso   1.00
C97    C     0.70500   0.43120   0.66050   0.01267  Uiso   1.00
C98    C     0.63420   0.40690   0.70414   0.01267  Uiso   1.00
C99    C     0.68510   0.38470   0.68490   0.01267  Uiso   1.00
C100   C     0.71880   0.31890   0.68790   0.01267  Uiso   1.00
C101   C     0.70500   0.27800   0.71160   0.01267  Uiso   1.00
C102   C     0.65540   0.30420   0.73000   0.01267  Uiso   1.00
C103   C     0.64280   0.26930   0.75658   0.01267  Uiso   1.00
C104   C     0.67940   0.20870   0.76510   0.01267  Uiso   1.00
C105   C     0.66420   0.18070   0.79060   0.01267  Uiso   1.00
C106   C     0.61460   0.21350   0.80680   0.01267  Uiso   1.00
C107   C     0.57920   0.27420   0.79723   0.01267  Uiso   1.00
C108   C     0.59510   0.18570   0.83500   0.01267  Uiso   1.00
C109   C     0.71130   0.41920   0.58381   0.01267  Uiso   1.00
C110   C     0.66590   0.35040   0.54249   0.01267  Uiso   1.00
C111   C     0.65540   0.40350   0.56178   0.01267  Uiso   1.00
C112   C     0.59240   0.44470   0.56010   0.01267  Uiso   1.00
C113   C     0.54470   0.43350   0.53875   0.01267  Uiso   1.00
C114   C     0.55890   0.38090   0.51972   0.01267  Uiso   1.00
C115   C     0.51210   0.36520   0.49627   0.01267  Uiso   1.00
C116   C     0.45180   0.40400   0.48946   0.01267  Uiso   1.00
C117   C     0.41380   0.38830   0.46560   0.01267  Uiso   1.00
C118   C     0.43690   0.33240   0.44920   0.01267  Uiso   1.00
C119   C     0.49660   0.29250   0.45813   0.01267  Uiso   1.00
C120   C     0.39830   0.31350   0.42280   0.01267  Uiso   1.00
C121   C     0.69320   0.50930   0.83660   0.01267  Uiso   1.00
C122   C     0.62490   0.45860   0.79650   0.01267  Uiso   1.00
C123   C     0.64510   0.51840   0.81200   0.01267  Uiso   1.00
C124   C     0.62130   0.58510   0.80430   0.01267  Uiso   1.00
C125   C     0.57920   0.59130   0.78110   0.01267  Uiso   1.00
C126   C     0.56220   0.53080   0.76641   0.01267  Uiso   1.00
C127   C     0.51700   0.53160   0.74105   0.01267  Uiso   1.00
C128   C     0.49880   0.59270   0.72720   0.01267  Uiso   1.00
C129   C     0.45730   0.58760   0.70360   0.01267  Uiso   1.00
C130   C     0.43380   0.52190   0.69537   0.01267  Uiso   1.00
C131   C     0.45350   0.46030   0.71049   0.01267  Uiso   1.00
C132   C     0.38880   0.51010   0.67030   0.01267  Uiso   1.00
C133   C     0.27640   0.59690   0.58880   0.01267  Uiso   1.00
C134   C     0.31910   0.67080   0.54911   0.01267  Uiso   1.00
C135   C     0.26180   0.64220   0.56395   0.01267  Uiso   1.00
C136   C     0.19200   0.65500   0.55470   0.01267  Uiso   1.00
C137   C     0.18170   0.69600   0.53170   0.01267  Uiso   1.00
C138   C     0.24280   0.72460   0.51810   0.01267  Uiso   1.00
C139   C     0.23780   0.77220   0.49490   0.01267  Uiso   1.00
C140   C     0.17250   0.79550   0.48290   0.01267  Uiso   1.00
C141   C     0.17580   0.84280   0.46100   0.01267  Uiso   1.00
C142   C     0.24130   0.86450   0.45190   0.01267  Uiso   1.00
C143   C     0.30500   0.83910   0.46370   0.01267  Uiso   1.00
C144   C     0.23890   0.91520   0.42680   0.01267  Uiso   1.00
C145   C     0.92670   0.75630   0.91354   0.01267  Uiso   1.00
C146   C     0.01240   0.76510   0.95274   0.01267  Uiso   1.00
C147   C     0.95230   0.79230   0.93940   0.01267  Uiso   1.00
C148   C     0.91460   0.84950   0.95160   0.01267  Uiso   1.00
C149   C     0.93900   0.87550   0.97620   0.01267  Uiso   1.00
C150   C     0.99890   0.84660   0.98851   0.01267  Uiso   1.00
C151   C     0.03040   0.87260   0.01408   0.01267  Uiso   1.00
C152   C     0.00320   0.92980   0.02880   0.01267  Uiso   1.00
C153   C     0.04050   0.95360   0.05152   0.01267  Uiso   1.00
C154   C     0.10420   0.92060   0.05851   0.01267  Uiso   1.00
C155   C     0.12770   0.85970   0.04469   0.01267  Uiso   1.00
C156   C     0.15000   0.94700   0.08214   0.01267  Uiso   1.00
C157   C     0.13740   0.95600   0.15770   0.01267  Uiso   1.00
C158   C     0.06110   0.91760   0.19875   0.01267  Uiso   1.00
C159   C     0.11640   0.90190   0.18020   0.01267  Uiso   1.00
C160   C     0.15420   0.83830   0.18310   0.01267  Uiso   1.00
C161   C     0.13910   0.79330   0.20490   0.01267  Uiso   1.00
C162   C     0.08870   0.81530   0.22378   0.01267  Uiso   1.00
C163   C     0.07490   0.77540   0.24948   0.01267  Uiso   1.00
C164   C     0.11760   0.71840   0.25773   0.01267  Uiso   1.00
C165   C     0.10930   0.68920   0.28340   0.01267  Uiso   1.00
C166   C     0.05620   0.71970   0.30047   0.01267  Uiso   1.00
C167   C     0.01410   0.77640   0.29054   0.01267  Uiso   1.00
C168   C     0.04800   0.69240   0.32950   0.01267  Uiso   1.00
C169   C     0.29500   0.06880   0.16050   0.01267  Uiso   1.00
C170   C     0.36580   0.09310   0.20414   0.01267  Uiso   1.00
C171   C     0.31490   0.11530   0.18490   0.01267  Uiso   1.00
C172   C     0.28120   0.18110   0.18790   0.01267  Uiso   1.00
C173   C     0.29500   0.22200   0.21160   0.01267  Uiso   1.00
C174   C     0.34460   0.19580   0.23000   0.01267  Uiso   1.00
C175   C     0.35720   0.23070   0.25658   0.01267  Uiso   1.00
C176   C     0.32060   0.29130   0.26510   0.01267  Uiso   1.00
C177   C     0.33580   0.31930   0.29060   0.01267  Uiso   1.00
C178   C     0.38540   0.28650   0.30680   0.01267  Uiso   1.00
C179   C     0.42080   0.22580   0.29723   0.01267  Uiso   1.00
C180   C     0.40490   0.31430   0.33500   0.01267  Uiso   1.00
C181   C     0.28870   0.08080   0.08381   0.01267  Uiso   1.00
C182   C     0.33410   0.14960   0.04249   0.01267  Uiso   1.00
C183   C     0.34460   0.09650   0.06178   0.01267  Uiso   1.00
C184   C     0.40760   0.05530   0.06010   0.01267  Uiso   1.00
C185   C     0.45530   0.06650   0.03875   0.01267  Uiso   1.00
C186   C     0.44110   0.11910   0.01972   0.01267  Uiso   1.00
C187   C     0.48790   0.13480   0.99627   0.01267  Uiso   1.00
C188   C     0.54820   0.09600   0.98946   0.01267  Uiso   1.00
C189   C     0.58620   0.11170   0.96560   0.01267  Uiso   1.00
C190   C     0.56310   0.16760   0.94920   0.01267  Uiso   1.00
C191   C     0.50340   0.20750   0.95813   0.01267  Uiso   1.00
C192   C     0.60170   0.18650   0.92280   0.01267  Uiso   1.00
C193   C     0.30680   0.99070   0.33660   0.01267  Uiso   1.00
C194   C     0.37510   0.04140   0.29650   0.01267  Uiso   1.00
C195   C     0.35490   0.98160   0.31200   0.01267  Uiso   1.00
C196   C     0.37870   0.91490   0.30430   0.01267  Uiso   1.00
C197   C     0.42080   0.90870   0.28110   0.01267  Uiso   1.00
C198   C     0.43780   0.96920   0.26641   0.01267  Uiso   1.00
C199   C     0.48300   0.96840   0.24105   0.01267  Uiso   1.00
C200   C     0.50120   0.90730   0.22720   0.01267  Uiso   1.00
C201   C     0.54270   0.91240   0.20360   0.01267  Uiso   1.00
C202   C     0.56620   0.97810   0.19537   0.01267  Uiso   1.00
C203   C     0.54650   0.03970   0.21049   0.01267  Uiso   1.00
C204   C     0.61120   0.98990   0.17030   0.01267  Uiso   1.00
C205   C     0.72360   0.90310   0.08880   0.01267  Uiso   1.00
C206   C     0.68090   0.82920   0.04911   0.01267  Uiso   1.00
C207   C     0.73820   0.85780   0.06395   0.01267  Uiso   1.00
C208   C     0.80800   0.84500   0.05470   0.01267  Uiso   1.00
C209   C     0.81830   0.80400   0.03170   0.01267  Uiso   1.00
C210   C     0.75720   0.77540   0.01810   0.01267  Uiso   1.00
C211   C     0.76220   0.72780   0.99490   0.01267  Uiso   1.00
C212   C     0.82750   0.70450   0.98290   0.01267  Uiso   1.00
C213   C     0.82420   0.65720   0.96100   0.01267  Uiso   1.00
C214   C     0.75870   0.63550   0.95190   0.01267  Uiso   1.00
C215   C     0.69500   0.66090   0.96370   0.01267  Uiso   1.00
C216   C     0.76110   0.58480   0.92680   0.01267  Uiso   1.00
C217   C     0.42670   0.24370   0.58646   0.01267  Uiso   1.00
C218   C     0.51240   0.23490   0.54726   0.01267  Uiso   1.00
C219   C     0.45230   0.20770   0.56060   0.01267  Uiso   1.00
C220   C     0.41460   0.15050   0.54840   0.01267  Uiso   1.00
C221   C     0.43900   0.12450   0.52380   0.01267  Uiso   1.00
C222   C     0.49890   0.15340   0.51149   0.01267  Uiso   1.00
C223   C     0.53040   0.12740   0.48592   0.01267  Uiso   1.00
C224   C     0.50320   0.07020   0.47120   0.01267  Uiso   1.00
C225   C     0.54050   0.04640   0.44848   0.01267  Uiso   1.00
C226   C     0.60420   0.07940   0.44149   0.01267  Uiso   1.00
C227   C     0.62770   0.14030   0.45531   0.01267  Uiso   1.00
C228   C     0.65000   0.05300   0.41786   0.01267  Uiso   1.00
C229   C     0.63740   0.04400   0.34230   0.01267  Uiso   1.00
C230   C     0.56110   0.08240   0.30125   0.01267  Uiso   1.00
C231   C     0.61640   0.09810   0.31980   0.01267  Uiso   1.00
C232   C     0.65420   0.16170   0.31690   0.01267  Uiso   1.00
C233   C     0.63910   0.20670   0.29510   0.01267  Uiso   1.00
C234   C     0.58870   0.18470   0.27622   0.01267  Uiso   1.00
C235   C     0.57490   0.22460   0.25052   0.01267  Uiso   1.00
C236   C     0.61760   0.28160   0.24227   0.01267  Uiso   1.00
C237   C     0.60930   0.31080   0.21660   0.01267  Uiso   1.00
C238   C     0.55620   0.28030   0.19953   0.01267  Uiso   1.00
C239   C     0.51410   0.22360   0.20946   0.01267  Uiso   1.00
C240   C     0.54800   0.30760   0.17050   0.01267  Uiso   1.00
C241   C     0.79500   0.93120   0.33950   0.01267  Uiso   1.00
C242   C     0.86580   0.90690   0.29586   0.01267  Uiso   1.00
C243   C     0.81490   0.88470   0.31510   0.01267  Uiso   1.00
C244   C     0.78120   0.81890   0.31210   0.01267  Uiso   1.00
C245   C     0.79500   0.77800   0.28840   0.01267  Uiso   1.00
C246   C     0.84460   0.80420   0.27000   0.01267  Uiso   1.00
C247   C     0.85720   0.76930   0.24342   0.01267  Uiso   1.00
C248   C     0.82060   0.70870   0.23490   0.01267  Uiso   1.00
C249   C     0.83580   0.68070   0.20940   0.01267  Uiso   1.00
C250   C     0.88540   0.71350   0.19320   0.01267  Uiso   1.00
C251   C     0.92080   0.77420   0.20277   0.01267  Uiso   1.00
C252   C     0.90490   0.68570   0.16500   0.01267  Uiso   1.00
C253   C     0.78870   0.91920   0.41619   0.01267  Uiso   1.00
C254   C     0.83410   0.85040   0.45751   0.01267  Uiso   1.00
C255   C     0.84460   0.90350   0.43822   0.01267  Uiso   1.00
C256   C     0.90760   0.94470   0.43990   0.01267  Uiso   1.00
C257   C     0.95530   0.93350   0.46125   0.01267  Uiso   1.00
C258   C     0.94110   0.88090   0.48028   0.01267  Uiso   1.00
C259   C     0.98790   0.86520   0.50373   0.01267  Uiso   1.00
C260   C     0.04820   0.90400   0.51054   0.01267  Uiso   1.00
C261   C     0.08620   0.88830   0.53440   0.01267  Uiso   1.00
C262   C     0.06310   0.83240   0.55080   0.01267  Uiso   1.00
C263   C     0.00340   0.79250   0.54187   0.01267  Uiso   1.00
C264   C     0.10170   0.81350   0.57720   0.01267  Uiso   1.00
C265   C     0.80680   0.00930   0.16340   0.01267  Uiso   1.00
C266   C     0.87510   0.95860   0.20350   0.01267  Uiso   1.00
C267   C     0.85490   0.01840   0.18800   0.01267  Uiso   1.00
C268   C     0.87870   0.08510   0.19570   0.01267  Uiso   1.00
C269   C     0.92080   0.09130   0.21890   0.01267  Uiso   1.00
C270   C     0.93780   0.03080   0.23359   0.01267  Uiso   1.00
C271   C     0.98300   0.03160   0.25895   0.01267  Uiso   1.00
C272   C     0.00120   0.09270   0.27280   0.01267  Uiso   1.00
C273   C     0.04270   0.08760   0.29640   0.01267  Uiso   1.00
C274   C     0.06620   0.02190   0.30463   0.01267  Uiso   1.00
C275   C     0.04650   0.96030   0.28951   0.01267  Uiso   1.00
C276   C     0.11120   0.01010   0.32970   0.01267  Uiso   1.00
C277   C     0.22360   0.09690   0.41120   0.01267  Uiso   1.00
C278   C     0.18090   0.17080   0.45089   0.01267  Uiso   1.00
C279   C     0.23820   0.14220   0.43605   0.01267  Uiso   1.00
C280   C     0.30800   0.15500   0.44530   0.01267  Uiso   1.00
C281   C     0.31830   0.19600   0.46830   0.01267  Uiso   1.00
C282   C     0.25720   0.22460   0.48190   0.01267  Uiso   1.00
C283   C     0.26220   0.27220   0.50510   0.01267  Uiso   1.00
C284   C     0.32750   0.29550   0.51710   0.01267  Uiso   1.00
C285   C     0.32420   0.34280   0.53900   0.01267  Uiso   1.00
C286   C     0.25870   0.36450   0.54810   0.01267  Uiso   1.00
C287   C     0.19500   0.33910   0.53630   0.01267  Uiso   1.00
C288   C     0.26110   0.41520   0.57320   0.01267  Uiso   1.00
C289   C     0.42670   0.74370   0.91354   0.01267  Uiso   1.00
C290   C     0.51240   0.73490   0.95274   0.01267  Uiso   1.00
C291   C     0.45230   0.70770   0.93940   0.01267  Uiso   1.00
C292   C     0.41460   0.65050   0.95160   0.01267  Uiso   1.00
C293   C     0.43900   0.62450   0.97620   0.01267  Uiso   1.00
C294   C     0.49890   0.65340   0.98851   0.01267  Uiso   1.00
C295   C     0.53040   0.62740   0.01408   0.01267  Uiso   1.00
C296   C     0.50320   0.57020   0.02880   0.01267  Uiso   1.00
C297   C     0.54050   0.54640   0.05152   0.01267  Uiso   1.00
C298   C     0.60420   0.57940   0.05851   0.01267  Uiso   1.00
C299   C     0.62770   0.64030   0.04469   0.01267  Uiso   1.00
C300   C     0.65000   0.55300   0.08214   0.01267  Uiso   1.00
C301   C     0.63740   0.54400   0.15770   0.01267  Uiso   1.00
C302   C     0.56110   0.58240   0.19875   0.01267  Uiso   1.00
C303   C     0.61640   0.59810   0.18020   0.01267  Uiso   1.00
C304   C     0.65420   0.66170   0.18310   0.01267  Uiso   1.00
C305   C     0.63910   0.70670   0.20490   0.01267  Uiso   1.00
C306   C     0.58870   0.68470   0.22378   0.01267  Uiso   1.00
C307   C     0.57490   0.72460   0.24948   0.01267  Uiso   1.00
C308   C     0.61760   0.78160   0.25773   0.01267  Uiso   1.00
C309   C     0.60930   0.81080   0.28340   0.01267  Uiso   1.00
C310   C     0.55620   0.78030   0.30047   0.01267  Uiso   1.00
C311   C     0.51410   0.72360   0.29054   0.01267  Uiso   1.00
C312   C     0.54800   0.80760   0.32950   0.01267  Uiso   1.00
C313   C     0.79500   0.43120   0.16050   0.01267  Uiso   1.00
C314   C     0.86580   0.40690   0.20414   0.01267  Uiso   1.00
C315   C     0.81490   0.38470   0.18490   0.01267  Uiso   1.00
C316   C     0.78120   0.31890   0.18790   0.01267  Uiso   1.00
C317   C     0.79500   0.27800   0.21160   0.01267  Uiso   1.00
C318   C     0.84460   0.30420   0.23000   0.01267  Uiso   1.00
C319   C     0.85720   0.26930   0.25658   0.01267  Uiso   1.00
C320   C     0.82060   0.20870   0.26510   0.01267  Uiso   1.00
C321   C     0.83580   0.18070   0.29060   0.01267  Uiso   1.00
C322   C     0.88540   0.21350   0.30680   0.01267  Uiso   1.00
C323   C     0.92080   0.27420   0.29723   0.01267  Uiso   1.00
C324   C     0.90490   0.18570   0.33500   0.01267  Uiso   1.00
C325   C     0.78870   0.41920   0.08381   0.01267  Uiso   1.00
C326   C     0.83410   0.35040   0.04249   0.01267  Uiso   1.00
C327   C     0.84460   0.40350   0.06178   0.01267  Uiso   1.00
C328   C     0.90760   0.44470   0.06010   0.01267  Uiso   1.00
C329   C     0.95530   0.43350   0.03875   0.01267  Uiso   1.00
C330   C     0.94110   0.38090   0.01972   0.01267  Uiso   1.00
C331   C     0.98790   0.36520   0.99627   0.01267  Uiso   1.00
C332   C     0.04820   0.40400   0.98946   0.01267  Uiso   1.00
C333   C     0.08620   0.38830   0.96560   0.01267  Uiso   1.00
C334   C     0.06310   0.33240   0.94920   0.01267  Uiso   1.00
C335   C     0.00340   0.29250   0.95813   0.01267  Uiso   1.00
C336   C     0.10170   0.31350   0.92280   0.01267  Uiso   1.00
C337   C     0.80680   0.50930   0.33660   0.01267  Uiso   1.00
C338   C     0.87510   0.45860   0.29650   0.01267  Uiso   1.00
C339   C     0.85490   0.51840   0.31200   0.01267  Uiso   1.00
C340   C     0.87870   0.58510   0.30430   0.01267  Uiso   1.00
C341   C     0.92080   0.59130   0.28110   0.01267  Uiso   1.00
C342   C     0.93780   0.53080   0.26641   0.01267  Uiso   1.00
C343   C     0.98300   0.53160   0.24105   0.01267  Uiso   1.00
C344   C     0.00120   0.59270   0.22720   0.01267  Uiso   1.00
C345   C     0.04270   0.58760   0.20360   0.01267  Uiso   1.00
C346   C     0.06620   0.52190   0.19537   0.01267  Uiso   1.00
C347   C     0.04650   0.46030   0.21049   0.01267  Uiso   1.00
C348   C     0.11120   0.51010   0.17030   0.01267  Uiso   1.00
C349   C     0.22360   0.59690   0.08880   0.01267  Uiso   1.00
C350   C     0.18090   0.67080   0.04911   0.01267  Uiso   1.00
C351   C     0.23820   0.64220   0.06395   0.01267  Uiso   1.00
C352   C     0.30800   0.65500   0.05470   0.01267  Uiso   1.00
C353   C     0.31830   0.69600   0.03170   0.01267  Uiso   1.00
C354   C     0.25720   0.72460   0.01810   0.01267  Uiso   1.00
C355   C     0.26220   0.77220   0.99490   0.01267  Uiso   1.00
C356   C     0.32750   0.79550   0.98290   0.01267  Uiso   1.00
C357   C     0.32420   0.84280   0.96100   0.01267  Uiso   1.00
C358   C     0.25870   0.86450   0.95190   0.01267  Uiso   1.00
C359   C     0.19500   0.83910   0.96370   0.01267  Uiso   1.00
C360   C     0.26110   0.91520   0.92680   0.01267  Uiso   1.00
C361   C     0.92670   0.25630   0.58646   0.01267  Uiso   1.00
C362   C     0.01240   0.26510   0.54726   0.01267  Uiso   1.00
C363   C     0.95230   0.29230   0.56060   0.01267  Uiso   1.00
C364   C     0.91460   0.34950   0.54840   0.01267  Uiso   1.00
C365   C     0.93900   0.37550   0.52380   0.01267  Uiso   1.00
C366   C     0.99890   0.34660   0.51149   0.01267  Uiso   1.00
C367   C     0.03040   0.37260   0.48592   0.01267  Uiso   1.00
C368   C     0.00320   0.42980   0.47120   0.01267  Uiso   1.00
C369   C     0.04050   0.45360   0.44848   0.01267  Uiso   1.00
C370   C     0.10420   0.42060   0.44149   0.01267  Uiso   1.00
C371   C     0.12770   0.35970   0.45531   0.01267  Uiso   1.00
C372   C     0.15000   0.44700   0.41786   0.01267  Uiso   1.00
C373   C     0.13740   0.45600   0.34230   0.01267  Uiso   1.00
C374   C     0.06110   0.41760   0.30125   0.01267  Uiso   1.00
C375   C     0.11640   0.40190   0.31980   0.01267  Uiso   1.00
C376   C     0.15420   0.33830   0.31690   0.01267  Uiso   1.00
C377   C     0.13910   0.29330   0.29510   0.01267  Uiso   1.00
C378   C     0.08870   0.31530   0.27622   0.01267  Uiso   1.00
C379   C     0.07490   0.27540   0.25052   0.01267  Uiso   1.00
C380   C     0.11760   0.21840   0.24227   0.01267  Uiso   1.00
C381   C     0.10930   0.18920   0.21660   0.01267  Uiso   1.00
C382   C     0.05620   0.21970   0.19953   0.01267  Uiso   1.00
C383   C     0.01410   0.27640   0.20946   0.01267  Uiso   1.00
C384   C     0.04800   0.19240   0.17050   0.01267  Uiso   1.00
C385   C     0.29500   0.56880   0.33950   0.01267  Uiso   1.00
C386   C     0.36580   0.59310   0.29586   0.01267  Uiso   1.00
C387   C     0.31490   0.61530   0.31510   0.01267  Uiso   1.00
C388   C     0.28120   0.68110   0.31210   0.01267  Uiso   1.00
C389   C     0.29500   0.72200   0.28840   0.01267  Uiso   1.00
C390   C     0.34460   0.69580   0.27000   0.01267  Uiso   1.00
C391   C     0.35720   0.73070   0.24342   0.01267  Uiso   1.00
C392   C     0.32060   0.79130   0.23490   0.01267  Uiso   1.00
C393   C     0.33580   0.81930   0.20940   0.01267  Uiso   1.00
C394   C     0.38540   0.78650   0.19320   0.01267  Uiso   1.00
C395   C     0.42080   0.72580   0.20277   0.01267  Uiso   1.00
C396   C     0.40490   0.81430   0.16500   0.01267  Uiso   1.00
C397   C     0.28870   0.58080   0.41619   0.01267  Uiso   1.00
C398   C     0.33410   0.64960   0.45751   0.01267  Uiso   1.00
C399   C     0.34460   0.59650   0.43822   0.01267  Uiso   1.00
C400   C     0.40760   0.55530   0.43990   0.01267  Uiso   1.00
C401   C     0.45530   0.56650   0.46125   0.01267  Uiso   1.00
C402   C     0.44110   0.61910   0.48028   0.01267  Uiso   1.00
C403   C     0.48790   0.63480   0.50373   0.01267  Uiso   1.00
C404   C     0.54820   0.59600   0.51054   0.01267  Uiso   1.00
C405   C     0.58620   0.61170   0.53440   0.01267  Uiso   1.00
C406   C     0.56310   0.66760   0.55080   0.01267  Uiso   1.00
C407   C     0.50340   0.70750   0.54187   0.01267  Uiso   1.00
C408   C     0.60170   0.68650   0.57720   0.01267  Uiso   1.00
C409   C     0.30680   0.49070   0.16340   0.01267  Uiso   1.00
C410   C     0.37510   0.54140   0.20350   0.01267  Uiso   1.00
C411   C     0.35490   0.48160   0.18800   0.01267  Uiso   1.00
C412   C     0.37870   0.41490   0.19570   0.01267  Uiso   1.00
C413   C     0.42080   0.40870   0.21890   0.01267  Uiso   1.00
C414   C     0.43780   0.46920   0.23359   0.01267  Uiso   1.00
C415   C     0.48300   0.46840   0.25895   0.01267  Uiso   1.00
C416   C     0.50120   0.40730   0.27280   0.01267  Uiso   1.00
C417   C     0.54270   0.41240   0.29640   0.01267  Uiso   1.00
C418   C     0.56620   0.47810   0.30463   0.01267  Uiso   1.00
C419   C     0.54650   0.53970   0.28951   0.01267  Uiso   1.00
C420   C     0.61120   0.48990   0.32970   0.01267  Uiso   1.00
C421   C     0.72360   0.40310   0.41120   0.01267  Uiso   1.00
C422   C     0.68090   0.32920   0.45089   0.01267  Uiso   1.00
C423   C     0.73820   0.35780   0.43605   0.01267  Uiso   1.00
C424   C     0.80800   0.34500   0.44530   0.01267  Uiso   1.00
C425   C     0.81830   0.30400   0.46830   0.01267  Uiso   1.00
C426   C     0.75720   0.27540   0.48190   0.01267  Uiso   1.00
C427   C     0.76220   0.22780   0.50510   0.01267  Uiso   1.00
C428   C     0.82750   0.20450   0.51710   0.01267  Uiso   1.00
C429   C     0.82420   0.15720   0.53900   0.01267  Uiso   1.00
C430   C     0.75870   0.13550   0.54810   0.01267  Uiso   1.00
C431   C     0.69500   0.16090   0.53630   0.01267  Uiso   1.00
C432   C     0.76110   0.08480   0.57320   0.01267  Uiso   1.00
C433   C     0.07330   0.24370   0.08646   0.01267  Uiso   1.00
C434   C     0.98760   0.23490   0.04726   0.01267  Uiso   1.00
C435   C     0.04770   0.20770   0.06060   0.01267  Uiso   1.00
C436   C     0.08540   0.15050   0.04840   0.01267  Uiso   1.00
C437   C     0.06100   0.12450   0.02380   0.01267  Uiso   1.00
C438   C     0.00110   0.15340   0.01149   0.01267  Uiso   1.00
C439   C     0.96960   0.12740   0.98592   0.01267  Uiso   1.00
C440   C     0.99680   0.07020   0.97120   0.01267  Uiso   1.00
C441   C     0.95950   0.04640   0.94848   0.01267  Uiso   1.00
C442   C     0.89580   0.07940   0.94149   0.01267  Uiso   1.00
C443   C     0.87230   0.14030   0.95531   0.01267  Uiso   1.00
C444   C     0.85000   0.05300   0.91786   0.01267  Uiso   1.00
C445   C     0.86260   0.04400   0.84230   0.01267  Uiso   1.00
C446   C     0.93890   0.08240   0.80125   0.01267  Uiso   1.00
C447   C     0.88360   0.09810   0.81980   0.01267  Uiso   1.00
C448   C     0.84580   0.16170   0.81690   0.01267  Uiso   1.00
C449   C     0.86090   0.20670   0.79510   0.01267  Uiso   1.00
C450   C     0.91130   0.18470   0.77622   0.01267  Uiso   1.00
C451   C     0.92510   0.22460   0.75052   0.01267  Uiso   1.00
C452   C     0.88240   0.28160   0.74227   0.01267  Uiso   1.00
C453   C     0.89070   0.31080   0.71660   0.01267  Uiso   1.00
C454   C     0.94380   0.28030   0.69953   0.01267  Uiso   1.00
C455   C     0.98590   0.22360   0.70946   0.01267  Uiso   1.00
C456   C     0.95200   0.30760   0.67050   0.01267  Uiso   1.00
C457   C     0.70500   0.93120   0.83950   0.01267  Uiso   1.00
C458   C     0.63420   0.90690   0.79586   0.01267  Uiso   1.00
C459   C     0.68510   0.88470   0.81510   0.01267  Uiso   1.00
C460   C     0.71880   0.81890   0.81210   0.01267  Uiso   1.00
C461   C     0.70500   0.77800   0.78840   0.01267  Uiso   1.00
C462   C     0.65540   0.80420   0.77000   0.01267  Uiso   1.00
C463   C     0.64280   0.76930   0.74342   0.01267  Uiso   1.00
C464   C     0.67940   0.70870   0.73490   0.01267  Uiso   1.00
C465   C     0.66420   0.68070   0.70940   0.01267  Uiso   1.00
C466   C     0.61460   0.71350   0.69320   0.01267  Uiso   1.00
C467   C     0.57920   0.77420   0.70277   0.01267  Uiso   1.00
C468   C     0.59510   0.68570   0.66500   0.01267  Uiso   1.00
C469   C     0.71130   0.91920   0.91619   0.01267  Uiso   1.00
C470   C     0.66590   0.85040   0.95751   0.01267  Uiso   1.00
C471   C     0.65540   0.90350   0.93822   0.01267  Uiso   1.00
C472   C     0.59240   0.94470   0.93990   0.01267  Uiso   1.00
C473   C     0.54470   0.93350   0.96125   0.01267  Uiso   1.00
C474   C     0.55890   0.88090   0.98028   0.01267  Uiso   1.00
C475   C     0.51210   0.86520   0.00373   0.01267  Uiso   1.00
C476   C     0.45180   0.90400   0.01054   0.01267  Uiso   1.00
C477   C     0.41380   0.88830   0.03440   0.01267  Uiso   1.00
C478   C     0.43690   0.83240   0.05080   0.01267  Uiso   1.00
C479   C     0.49660   0.79250   0.04187   0.01267  Uiso   1.00
C480   C     0.39830   0.81350   0.07720   0.01267  Uiso   1.00
C481   C     0.69320   0.00930   0.66340   0.01267  Uiso   1.00
C482   C     0.62490   0.95860   0.70350   0.01267  Uiso   1.00
C483   C     0.64510   0.01840   0.68800   0.01267  Uiso   1.00
C484   C     0.62130   0.08510   0.69570   0.01267  Uiso   1.00
C485   C     0.57920   0.09130   0.71890   0.01267  Uiso   1.00
C486   C     0.56220   0.03080   0.73359   0.01267  Uiso   1.00
C487   C     0.51700   0.03160   0.75895   0.01267  Uiso   1.00
C488   C     0.49880   0.09270   0.77280   0.01267  Uiso   1.00
C489   C     0.45730   0.08760   0.79640   0.01267  Uiso   1.00
C490   C     0.43380   0.02190   0.80463   0.01267  Uiso   1.00
C491   C     0.45350   0.96030   0.78951   0.01267  Uiso   1.00
C492   C     0.38880   0.01010   0.82970   0.01267  Uiso   1.00
C493   C     0.27640   0.09690   0.91120   0.01267  Uiso   1.00
C494   C     0.31910   0.17080   0.95089   0.01267  Uiso   1.00
C495   C     0.26180   0.14220   0.93605   0.01267  Uiso   1.00
C496   C     0.19200   0.15500   0.94530   0.01267  Uiso   1.00
C497   C     0.18170   0.19600   0.96830   0.01267  Uiso   1.00
C498   C     0.24280   0.22460   0.98190   0.01267  Uiso   1.00
C499   C     0.23780   0.27220   0.00510   0.01267  Uiso   1.00
C500   C     0.17250   0.29550   0.01710   0.01267  Uiso   1.00
C501   C     0.17580   0.34280   0.03900   0.01267  Uiso   1.00
C502   C     0.24130   0.36450   0.04810   0.01267  Uiso   1.00
C503   C     0.30500   0.33910   0.03630   0.01267  Uiso   1.00
C504   C     0.23890   0.41520   0.07320   0.01267  Uiso   1.00
C505   C     0.57330   0.75630   0.41354   0.01267  Uiso   1.00
C506   C     0.48760   0.76510   0.45274   0.01267  Uiso   1.00
C507   C     0.54770   0.79230   0.43940   0.01267  Uiso   1.00
C508   C     0.58540   0.84950   0.45160   0.01267  Uiso   1.00
C509   C     0.56100   0.87550   0.47620   0.01267  Uiso   1.00
C510   C     0.50110   0.84660   0.48851   0.01267  Uiso   1.00
C511   C     0.46960   0.87260   0.51408   0.01267  Uiso   1.00
C512   C     0.49680   0.92980   0.52880   0.01267  Uiso   1.00
C513   C     0.45950   0.95360   0.55152   0.01267  Uiso   1.00
C514   C     0.39580   0.92060   0.55851   0.01267  Uiso   1.00
C515   C     0.37230   0.85970   0.54469   0.01267  Uiso   1.00
C516   C     0.35000   0.94700   0.58214   0.01267  Uiso   1.00
C517   C     0.36260   0.95600   0.65770   0.01267  Uiso   1.00
C518   C     0.43890   0.91760   0.69875   0.01267  Uiso   1.00
C519   C     0.38360   0.90190   0.68020   0.01267  Uiso   1.00
C520   C     0.34580   0.83830   0.68310   0.01267  Uiso   1.00
C521   C     0.36090   0.79330   0.70490   0.01267  Uiso   1.00
C522   C     0.41130   0.81530   0.72378   0.01267  Uiso   1.00
C523   C     0.42510   0.77540   0.74948   0.01267  Uiso   1.00
C524   C     0.38240   0.71840   0.75773   0.01267  Uiso   1.00
C525   C     0.39070   0.68920   0.78340   0.01267  Uiso   1.00
C526   C     0.44380   0.71970   0.80047   0.01267  Uiso   1.00
C527   C     0.48590   0.77640   0.79054   0.01267  Uiso   1.00
C528   C     0.45200   0.69240   0.82950   0.01267  Uiso   1.00
C529   C     0.20500   0.06880   0.66050   0.01267  Uiso   1.00
C530   C     0.13420   0.09310   0.70414   0.01267  Uiso   1.00
C531   C     0.18510   0.11530   0.68490   0.01267  Uiso   1.00
C532   C     0.21880   0.18110   0.68790   0.01267  Uiso   1.00
C533   C     0.20500   0.22200   0.71160   0.01267  Uiso   1.00
C534   C     0.15540   0.19580   0.73000   0.01267  Uiso   1.00
C535   C     0.14280   0.23070   0.75658   0.01267  Uiso   1.00
C536   C     0.17940   0.29130   0.76510   0.01267  Uiso   1.00
C537   C     0.16420   0.31930   0.79060   0.01267  Uiso   1.00
C538   C     0.11460   0.28650   0.80680   0.01267  Uiso   1.00
C539   C     0.07920   0.22580   0.79723   0.01267  Uiso   1.00
C540   C     0.09510   0.31430   0.83500   0.01267  Uiso   1.00
C541   C     0.21130   0.08080   0.58381   0.01267  Uiso   1.00
C542   C     0.16590   0.14960   0.54249   0.01267  Uiso   1.00
C543   C     0.15540   0.09650   0.56178   0.01267  Uiso   1.00
C544   C     0.09240   0.05530   0.56010   0.01267  Uiso   1.00
C545   C     0.04470   0.06650   0.53875   0.01267  Uiso   1.00
C546   C     0.05890   0.11910   0.51972   0.01267  Uiso   1.00
C547   C     0.01210   0.13480   0.49627   0.01267  Uiso   1.00
C548   C     0.95180   0.09600   0.48946   0.01267  Uiso   1.00
C549   C     0.91380   0.11170   0.46560   0.01267  Uiso   1.00
C550   C     0.93690   0.16760   0.44920   0.01267  Uiso   1.00
C551   C     0.99660   0.20750   0.45813   0.01267  Uiso   1.00
C552   C     0.89830   0.18650   0.42280   0.01267  Uiso   1.00
C553   C     0.19320   0.99070   0.83660   0.01267  Uiso   1.00
C554   C     0.12490   0.04140   0.79650   0.01267  Uiso   1.00
C555   C     0.14510   0.98160   0.81200   0.01267  Uiso   1.00
C556   C     0.12130   0.91490   0.80430   0.01267  Uiso   1.00
C557   C     0.07920   0.90870   0.78110   0.01267  Uiso   1.00
C558   C     0.06220   0.96920   0.76641   0.01267  Uiso   1.00
C559   C     0.01700   0.96840   0.74105   0.01267  Uiso   1.00
C560   C     0.99880   0.90730   0.72720   0.01267  Uiso   1.00
C561   C     0.95730   0.91240   0.70360   0.01267  Uiso   1.00
C562   C     0.93380   0.97810   0.69537   0.01267  Uiso   1.00
C563   C     0.95350   0.03970   0.71049   0.01267  Uiso   1.00
C564   C     0.88880   0.98990   0.67030   0.01267  Uiso   1.00
C565   C     0.77640   0.90310   0.58880   0.01267  Uiso   1.00
C566   C     0.81910   0.82920   0.54911   0.01267  Uiso   1.00
C567   C     0.76180   0.85780   0.56395   0.01267  Uiso   1.00
C568   C     0.69200   0.84500   0.55470   0.01267  Uiso   1.00
C569   C     0.68170   0.80400   0.53170   0.01267  Uiso   1.00
C570   C     0.74280   0.77540   0.51810   0.01267  Uiso   1.00
C571   C     0.73780   0.72780   0.49490   0.01267  Uiso   1.00
C572   C     0.67250   0.70450   0.48290   0.01267  Uiso   1.00
C573   C     0.67580   0.65720   0.46100   0.01267  Uiso   1.00
C574   C     0.74130   0.63550   0.45190   0.01267  Uiso   1.00
C575   C     0.80500   0.66090   0.46370   0.01267  Uiso   1.00
C576   C     0.73890   0.58480   0.42680   0.01267  Uiso   1.00
N1     N     0.46310   0.29050   0.02312   0.01267  Uiso   1.00
N2     N     0.40920   0.33610   0.97705   0.01267  Uiso   1.00
N3     N     0.45340   0.37540   0.78001   0.01267  Uiso   1.00
N4     N     0.47710   0.30470   0.73437   0.01267  Uiso   1.00
N5     N     0.11880   0.63240   0.77350   0.01267  Uiso   1.00
N6     N     0.09040   0.69870   0.72758   0.01267  Uiso   1.00
N7     N     0.11880   0.66230   0.97774   0.01267  Uiso   1.00
N8     N     0.03240   0.69280   0.01896   0.01267  Uiso   1.00
N9     N     0.08320   0.53690   0.72571   0.01267  Uiso   1.00
N10    N     0.99520   0.53480   0.76713   0.01267  Uiso   1.00
N11    N     0.81060   0.28920   0.97339   0.01267  Uiso   1.00
N12    N     0.80200   0.20690   0.01502   0.01267  Uiso   1.00
N13    N     0.96310   0.70950   0.47688   0.01267  Uiso   1.00
N14    N     0.90920   0.66390   0.52295   0.01267  Uiso   1.00
N15    N     0.95340   0.62460   0.71999   0.01267  Uiso   1.00
N16    N     0.97710   0.69530   0.76563   0.01267  Uiso   1.00
N17    N     0.61880   0.36760   0.72650   0.01267  Uiso   1.00
N18    N     0.59040   0.30130   0.77242   0.01267  Uiso   1.00
N19    N     0.61880   0.33770   0.52226   0.01267  Uiso   1.00
N20    N     0.53240   0.30720   0.48104   0.01267  Uiso   1.00
N21    N     0.58320   0.46310   0.77429   0.01267  Uiso   1.00
N22    N     0.49520   0.46520   0.73287   0.01267  Uiso   1.00
N23    N     0.31060   0.71080   0.52661   0.01267  Uiso   1.00
N24    N     0.30200   0.79310   0.48498   0.01267  Uiso   1.00
N25    N     0.03690   0.79050   0.97688   0.01267  Uiso   1.00
N26    N     0.09080   0.83610   0.02295   0.01267  Uiso   1.00
N27    N     0.04660   0.87540   0.21999   0.01267  Uiso   1.00
N28    N     0.02290   0.80470   0.26563   0.01267  Uiso   1.00
N29    N     0.38120   0.13240   0.22650   0.01267  Uiso   1.00
N30    N     0.40960   0.19870   0.27242   0.01267  Uiso   1.00
N31    N     0.38120   0.16230   0.02226   0.01267  Uiso   1.00
N32    N     0.46760   0.19280   0.98104   0.01267  Uiso   1.00
N33    N     0.41680   0.03690   0.27429   0.01267  Uiso   1.00
N34    N     0.50480   0.03480   0.23287   0.01267  Uiso   1.00
N35    N     0.68940   0.78920   0.02661   0.01267  Uiso   1.00
N36    N     0.69800   0.70690   0.98498   0.01267  Uiso   1.00
N37    N     0.53690   0.20950   0.52312   0.01267  Uiso   1.00
N38    N     0.59080   0.16390   0.47705   0.01267  Uiso   1.00
N39    N     0.54660   0.12460   0.28001   0.01267  Uiso   1.00
N40    N     0.52290   0.19530   0.23437   0.01267  Uiso   1.00
N41    N     0.88120   0.86760   0.27350   0.01267  Uiso   1.00
N42    N     0.90960   0.80130   0.22758   0.01267  Uiso   1.00
N43    N     0.88120   0.83770   0.47774   0.01267  Uiso   1.00
N44    N     0.96760   0.80720   0.51896   0.01267  Uiso   1.00
N45    N     0.91680   0.96310   0.22571   0.01267  Uiso   1.00
N46    N     0.00480   0.96520   0.26713   0.01267  Uiso   1.00
N47    N     0.18940   0.21080   0.47339   0.01267  Uiso   1.00
N48    N     0.19800   0.29310   0.51502   0.01267  Uiso   1.00
N49    N     0.53690   0.70950   0.97688   0.01267  Uiso   1.00
N50    N     0.59080   0.66390   0.02295   0.01267  Uiso   1.00
N51    N     0.54660   0.62460   0.21999   0.01267  Uiso   1.00
N52    N     0.52290   0.69530   0.26563   0.01267  Uiso   1.00
N53    N     0.88120   0.36760   0.22650   0.01267  Uiso   1.00
N54    N     0.90960   0.30130   0.27242   0.01267  Uiso   1.00
N55    N     0.88120   0.33770   0.02226   0.01267  Uiso   1.00
N56    N     0.96760   0.30720   0.98104   0.01267  Uiso   1.00
N57    N     0.91680   0.46310   0.27429   0.01267  Uiso   1.00
N58    N     0.00480   0.46520   0.23287   0.01267  Uiso   1.00
N59    N     0.18940   0.71080   0.02661   0.01267  Uiso   1.00
N60    N     0.19800   0.79310   0.98498   0.01267  Uiso   1.00
N61    N     0.03690   0.29050   0.52312   0.01267  Uiso   1.00
N62    N     0.09080   0.33610   0.47705   0.01267  Uiso   1.00
N63    N     0.04660   0.37540   0.28001   0.01267  Uiso   1.00
N64    N     0.02290   0.30470   0.23437   0.01267  Uiso   1.00
N65    N     0.38120   0.63240   0.27350   0.01267  Uiso   1.00
N66    N     0.40960   0.69870   0.22758   0.01267  Uiso   1.00
N67    N     0.38120   0.66230   0.47774   0.01267  Uiso   1.00
N68    N     0.46760   0.69280   0.51896   0.01267  Uiso   1.00
N69    N     0.41680   0.53690   0.22571   0.01267  Uiso   1.00
N70    N     0.50480   0.53480   0.26713   0.01267  Uiso   1.00
N71    N     0.68940   0.28920   0.47339   0.01267  Uiso   1.00
N72    N     0.69800   0.20690   0.51502   0.01267  Uiso   1.00
N73    N     0.96310   0.20950   0.02312   0.01267  Uiso   1.00
N74    N     0.90920   0.16390   0.97705   0.01267  Uiso   1.00
N75    N     0.95340   0.12460   0.78001   0.01267  Uiso   1.00
N76    N     0.97710   0.19530   0.73437   0.01267  Uiso   1.00
N77    N     0.61880   0.86760   0.77350   0.01267  Uiso   1.00
N78    N     0.59040   0.80130   0.72758   0.01267  Uiso   1.00
N79    N     0.61880   0.83770   0.97774   0.01267  Uiso   1.00
N80    N     0.53240   0.80720   0.01896   0.01267  Uiso   1.00
N81    N     0.58320   0.96310   0.72571   0.01267  Uiso   1.00
N82    N     0.49520   0.96520   0.76713   0.01267  Uiso   1.00
N83    N     0.31060   0.21080   0.97339   0.01267  Uiso   1.00
N84    N     0.30200   0.29310   0.01502   0.01267  Uiso   1.00
N85    N     0.46310   0.79050   0.47688   0.01267  Uiso   1.00
N86    N     0.40920   0.83610   0.52295   0.01267  Uiso   1.00
N87    N     0.45340   0.87540   0.71999   0.01267  Uiso   1.00
N88    N     0.47710   0.80470   0.76563   0.01267  Uiso   1.00
N89    N     0.11880   0.13240   0.72650   0.01267  Uiso   1.00
N90    N     0.09040   0.19870   0.77242   0.01267  Uiso   1.00
N91    N     0.11880   0.16230   0.52226   0.01267  Uiso   1.00
N92    N     0.03240   0.19280   0.48104   0.01267  Uiso   1.00
N93    N     0.08320   0.03690   0.77429   0.01267  Uiso   1.00
N94    N     0.99520   0.03480   0.73287   0.01267  Uiso   1.00
N95    N     0.81060   0.78920   0.52661   0.01267  Uiso   1.00
N96    N     0.80200   0.70690   0.48498   0.01267  Uiso   1.00
O1     O     0.54970   0.19480   0.09120   0.01267  Uiso   1.00
O2     O     0.61710   0.29150   0.10098   0.01267  Uiso   1.00
O3     O     0.29450   0.41140   0.91128   0.01267  Uiso   1.00
O4     O     0.37090   0.50600   0.90707   0.01267  Uiso   1.00
O5     O     0.30530   0.44050   0.85459   0.01267  Uiso   1.00
O6     O     0.40080   0.50970   0.84591   0.01267  Uiso   1.00
O7     O     0.39690   0.16550   0.65974   0.01267  Uiso   1.00
O8     O     0.51450   0.19520   0.66048   0.01267  Uiso   1.00
O9     O     0.25640   0.59230   0.85388   0.01267  Uiso   1.00
O10    O     0.17080   0.51150   0.84329   0.01267  Uiso   1.00
O11    O     0.03770   0.79230   0.65445   0.01267  Uiso   1.00
O12    O     0.13970   0.85680   0.65459   0.01267  Uiso   1.00
O13    O     0.26200   0.62360   0.91247   0.01267  Uiso   1.00
O14    O     0.19940   0.52460   0.90313   0.01267  Uiso   1.00
O15    O     0.85890   0.63810   0.08652   0.01267  Uiso   1.00
O16    O     0.90870   0.74810   0.08687   0.01267  Uiso   1.00
O17    O     0.19810   0.43970   0.64692   0.01267  Uiso   1.00
O18    O     0.23030   0.54640   0.66064   0.01267  Uiso   1.00
O19    O     0.88680   0.44120   0.84772   0.01267  Uiso   1.00
O20    O     0.85600   0.54940   0.83228   0.01267  Uiso   1.00
O21    O     0.72370   0.42910   0.89882   0.01267  Uiso   1.00
O22    O     0.83980   0.41560   0.90439   0.01267  Uiso   1.00
O23    O     0.68300   0.05360   0.07820   0.01267  Uiso   1.00
O24    O     0.78930   0.08710   0.08790   0.01267  Uiso   1.00
O25    O     0.48740   0.60120   0.88344   0.01267  Uiso   1.00
O26    O     0.06880   0.46330   0.88060   0.01267  Uiso   1.00
O27    O     0.25570   0.30030   0.87553   0.01267  Uiso   1.00
O28    O     0.81280   0.65050   0.87295   0.01267  Uiso   1.00
O29    O     0.92780   0.55510   0.88767   0.01267  Uiso   1.00
O30    O     0.04970   0.80520   0.40880   0.01267  Uiso   1.00
O31    O     0.11710   0.70850   0.39902   0.01267  Uiso   1.00
O32    O     0.79450   0.58860   0.58872   0.01267  Uiso   1.00
O33    O     0.87090   0.49400   0.59293   0.01267  Uiso   1.00
O34    O     0.80530   0.55950   0.64541   0.01267  Uiso   1.00
O35    O     0.90080   0.49030   0.65409   0.01267  Uiso   1.00
O36    O     0.89690   0.83450   0.84026   0.01267  Uiso   1.00
O37    O     0.01450   0.80480   0.83952   0.01267  Uiso   1.00
O38    O     0.75640   0.40770   0.64612   0.01267  Uiso   1.00
O39    O     0.67080   0.48850   0.65671   0.01267  Uiso   1.00
O40    O     0.53770   0.20770   0.84555   0.01267  Uiso   1.00
O41    O     0.63970   0.14320   0.84541   0.01267  Uiso   1.00
O42    O     0.76200   0.37640   0.58753   0.01267  Uiso   1.00
O43    O     0.69940   0.47540   0.59687   0.01267  Uiso   1.00
O44    O     0.35890   0.36190   0.41348   0.01267  Uiso   1.00
O45    O     0.40870   0.25190   0.41313   0.01267  Uiso   1.00
O46    O     0.69810   0.56030   0.85308   0.01267  Uiso   1.00
O47    O     0.73030   0.45360   0.83936   0.01267  Uiso   1.00
O48    O     0.38680   0.55880   0.65228   0.01267  Uiso   1.00
O49    O     0.35600   0.45060   0.66772   0.01267  Uiso   1.00
O50    O     0.22370   0.57090   0.60118   0.01267  Uiso   1.00
O51    O     0.33980   0.58440   0.59561   0.01267  Uiso   1.00
O52    O     0.18300   0.94640   0.42180   0.01267  Uiso   1.00
O53    O     0.28930   0.91290   0.41210   0.01267  Uiso   1.00
O54    O     0.98740   0.39880   0.61656   0.01267  Uiso   1.00
O55    O     0.56880   0.53670   0.61940   0.01267  Uiso   1.00
O56    O     0.75570   0.69970   0.62447   0.01267  Uiso   1.00
O57    O     0.31280   0.34950   0.62705   0.01267  Uiso   1.00
O58    O     0.42780   0.44490   0.61233   0.01267  Uiso   1.00
O59    O     0.95030   0.69480   0.90880   0.01267  Uiso   1.00
O60    O     0.88290   0.79150   0.89902   0.01267  Uiso   1.00
O61    O     0.20550   0.91140   0.08872   0.01267  Uiso   1.00
O62    O     0.12910   0.00600   0.09293   0.01267  Uiso   1.00
O63    O     0.19470   0.94050   0.14541   0.01267  Uiso   1.00
O64    O     0.09920   0.00970   0.15409   0.01267  Uiso   1.00
O65    O     0.10310   0.66550   0.34026   0.01267  Uiso   1.00
O66    O     0.98550   0.69520   0.33952   0.01267  Uiso   1.00
O67    O     0.24360   0.09230   0.14612   0.01267  Uiso   1.00
O68    O     0.32920   0.01150   0.15671   0.01267  Uiso   1.00
O69    O     0.46230   0.29230   0.34555   0.01267  Uiso   1.00
O70    O     0.36030   0.35680   0.34541   0.01267  Uiso   1.00
O71    O     0.23800   0.12360   0.08753   0.01267  Uiso   1.00
O72    O     0.30060   0.02460   0.09687   0.01267  Uiso   1.00
O73    O     0.64110   0.13810   0.91348   0.01267  Uiso   1.00
O74    O     0.59130   0.24810   0.91313   0.01267  Uiso   1.00
O75    O     0.30190   0.93970   0.35308   0.01267  Uiso   1.00
O76    O     0.26970   0.04640   0.33936   0.01267  Uiso   1.00
O77    O     0.61320   0.94120   0.15228   0.01267  Uiso   1.00
O78    O     0.64400   0.04940   0.16772   0.01267  Uiso   1.00
O79    O     0.77630   0.92910   0.10118   0.01267  Uiso   1.00
O80    O     0.66020   0.91560   0.09561   0.01267  Uiso   1.00
O81    O     0.81700   0.55360   0.92180   0.01267  Uiso   1.00
O82    O     0.71070   0.58710   0.91210   0.01267  Uiso   1.00
O83    O     0.01260   0.10120   0.11656   0.01267  Uiso   1.00
O84    O     0.43120   0.96330   0.11940   0.01267  Uiso   1.00
O85    O     0.24430   0.80030   0.12447   0.01267  Uiso   1.00
O86    O     0.68720   0.15050   0.12705   0.01267  Uiso   1.00
O87    O     0.57220   0.05510   0.11233   0.01267  Uiso   1.00
O88    O     0.45030   0.30520   0.59120   0.01267  Uiso   1.00
O89    O     0.38290   0.20850   0.60098   0.01267  Uiso   1.00
O90    O     0.70550   0.08860   0.41128   0.01267  Uiso   1.00
O91    O     0.62910   0.99400   0.40707   0.01267  Uiso   1.00
O92    O     0.69470   0.05950   0.35459   0.01267  Uiso   1.00
O93    O     0.59920   0.99030   0.34591   0.01267  Uiso   1.00
O94    O     0.60310   0.33450   0.15974   0.01267  Uiso   1.00
O95    O     0.48550   0.30480   0.16048   0.01267  Uiso   1.00
O96    O     0.74360   0.90770   0.35388   0.01267  Uiso   1.00
O97    O     0.82920   0.98850   0.34329   0.01267  Uiso   1.00
O98    O     0.96230   0.70770   0.15445   0.01267  Uiso   1.00
O99    O     0.86030   0.64320   0.15459   0.01267  Uiso   1.00
O100   O     0.73800   0.87640   0.41247   0.01267  Uiso   1.00
O101   O     0.80060   0.97540   0.40313   0.01267  Uiso   1.00
O102   O     0.14110   0.86190   0.58652   0.01267  Uiso   1.00
O103   O     0.09130   0.75190   0.58687   0.01267  Uiso   1.00
O104   O     0.80190   0.06030   0.14692   0.01267  Uiso   1.00
O105   O     0.76970   0.95360   0.16064   0.01267  Uiso   1.00
O106   O     0.11320   0.05880   0.34772   0.01267  Uiso   1.00
O107   O     0.14400   0.95060   0.33228   0.01267  Uiso   1.00
O108   O     0.27630   0.07090   0.39882   0.01267  Uiso   1.00
O109   O     0.16020   0.08440   0.40439   0.01267  Uiso   1.00
O110   O     0.31700   0.44640   0.57820   0.01267  Uiso   1.00
O111   O     0.21070   0.41290   0.58790   0.01267  Uiso   1.00
O112   O     0.51260   0.89880   0.38344   0.01267  Uiso   1.00
O113   O     0.93120   0.03670   0.38060   0.01267  Uiso   1.00
O114   O     0.74430   0.19970   0.37553   0.01267  Uiso   1.00
O115   O     0.18720   0.84950   0.37295   0.01267  Uiso   1.00
O116   O     0.07220   0.94490   0.38767   0.01267  Uiso   1.00
O117   O     0.45030   0.80520   0.90880   0.01267  Uiso   1.00
O118   O     0.38290   0.70850   0.89902   0.01267  Uiso   1.00
O119   O     0.70550   0.58860   0.08872   0.01267  Uiso   1.00
O120   O     0.62910   0.49400   0.09293   0.01267  Uiso   1.00
O121   O     0.69470   0.55950   0.14541   0.01267  Uiso   1.00
O122   O     0.59920   0.49030   0.15409   0.01267  Uiso   1.00
O123   O     0.60310   0.83450   0.34026   0.01267  Uiso   1.00
O124   O     0.48550   0.80480   0.33952   0.01267  Uiso   1.00
O125   O     0.74360   0.40770   0.14612   0.01267  Uiso   1.00
O126   O     0.82920   0.48850   0.15671   0.01267  Uiso   1.00
O127   O     0.96230   0.20770   0.34555   0.01267  Uiso   1.00
O128   O     0.86030   0.14320   0.34541   0.01267  Uiso   1.00
O129   O     0.73800   0.37640   0.08753   0.01267  Uiso   1.00
O130   O     0.80060   0.47540   0.09687   0.01267  Uiso   1.00
O131   O     0.14110   0.36190   0.91348   0.01267  Uiso   1.00
O132   O     0.09130   0.25190   0.91313   0.01267  Uiso   1.00
O133   O     0.80190   0.56030   0.35308   0.01267  Uiso   1.00
O134   O     0.76970   0.45360   0.33936   0.01267  Uiso   1.00
O135   O     0.11320   0.55880   0.15228   0.01267  Uiso   1.00
O136   O     0.14400   0.45060   0.16772   0.01267  Uiso   1.00
O137   O     0.27630   0.57090   0.10118   0.01267  Uiso   1.00
O138   O     0.16020   0.58440   0.09561   0.01267  Uiso   1.00
O139   O     0.31700   0.94640   0.92180   0.01267  Uiso   1.00
O140   O     0.21070   0.91290   0.91210   0.01267  Uiso   1.00
O141   O     0.51260   0.39880   0.11656   0.01267  Uiso   1.00
O142   O     0.93120   0.53670   0.11940   0.01267  Uiso   1.00
O143   O     0.74430   0.69970   0.12447   0.01267  Uiso   1.00
O144   O     0.18720   0.34950   0.12705   0.01267  Uiso   1.00
O145   O     0.07220   0.44490   0.11233   0.01267  Uiso   1.00
O146   O     0.95030   0.19480   0.59120   0.01267  Uiso   1.00
O147   O     0.88290   0.29150   0.60098   0.01267  Uiso   1.00
O148   O     0.20550   0.41140   0.41128   0.01267  Uiso   1.00
O149   O     0.12910   0.50600   0.40707   0.01267  Uiso   1.00
O150   O     0.19470   0.44050   0.35459   0.01267  Uiso   1.00
O151   O     0.09920   0.50970   0.34591   0.01267  Uiso   1.00
O152   O     0.10310   0.16550   0.15974   0.01267  Uiso   1.00
O153   O     0.98550   0.19520   0.16048   0.01267  Uiso   1.00
O154   O     0.24360   0.59230   0.35388   0.01267  Uiso   1.00
O155   O     0.32920   0.51150   0.34329   0.01267  Uiso   1.00
O156   O     0.46230   0.79230   0.15445   0.01267  Uiso   1.00
O157   O     0.36030   0.85680   0.15459   0.01267  Uiso   1.00
O158   O     0.23800   0.62360   0.41247   0.01267  Uiso   1.00
O159   O     0.30060   0.52460   0.40313   0.01267  Uiso   1.00
O160   O     0.64110   0.63810   0.58652   0.01267  Uiso   1.00
O161   O     0.59130   0.74810   0.58687   0.01267  Uiso   1.00
O162   O     0.30190   0.43970   0.14692   0.01267  Uiso   1.00
O163   O     0.26970   0.54640   0.16064   0.01267  Uiso   1.00
O164   O     0.61320   0.44120   0.34772   0.01267  Uiso   1.00
O165   O     0.64400   0.54940   0.33228   0.01267  Uiso   1.00
O166   O     0.77630   0.42910   0.39882   0.01267  Uiso   1.00
O167   O     0.66020   0.41560   0.40439   0.01267  Uiso   1.00
O168   O     0.81700   0.05360   0.57820   0.01267  Uiso   1.00
O169   O     0.71070   0.08710   0.58790   0.01267  Uiso   1.00
O170   O     0.01260   0.60120   0.38344   0.01267  Uiso   1.00
O171   O     0.43120   0.46330   0.38060   0.01267  Uiso   1.00
O172   O     0.24430   0.30030   0.37553   0.01267  Uiso   1.00
O173   O     0.68720   0.65050   0.37295   0.01267  Uiso   1.00
O174   O     0.57220   0.55510   0.38767   0.01267  Uiso   1.00
O175   O     0.04970   0.30520   0.09120   0.01267  Uiso   1.00
O176   O     0.11710   0.20850   0.10098   0.01267  Uiso   1.00
O177   O     0.79450   0.08860   0.91128   0.01267  Uiso   1.00
O178   O     0.87090   0.99400   0.90707   0.01267  Uiso   1.00
O179   O     0.80530   0.05950   0.85459   0.01267  Uiso   1.00
O180   O     0.90080   0.99030   0.84591   0.01267  Uiso   1.00
O181   O     0.89690   0.33450   0.65974   0.01267  Uiso   1.00
O182   O     0.01450   0.30480   0.66048   0.01267  Uiso   1.00
O183   O     0.75640   0.90770   0.85388   0.01267  Uiso   1.00
O184   O     0.67080   0.98850   0.84329   0.01267  Uiso   1.00
O185   O     0.53770   0.70770   0.65445   0.01267  Uiso   1.00
O186   O     0.63970   0.64320   0.65459   0.01267  Uiso   1.00
O187   O     0.76200   0.87640   0.91247   0.01267  Uiso   1.00
O188   O     0.69940   0.97540   0.90313   0.01267  Uiso   1.00
O189   O     0.35890   0.86190   0.08652   0.01267  Uiso   1.00
O190   O     0.40870   0.75190   0.08687   0.01267  Uiso   1.00
O191   O     0.69810   0.06030   0.64692   0.01267  Uiso   1.00
O192   O     0.73030   0.95360   0.66064   0.01267  Uiso   1.00
O193   O     0.38680   0.05880   0.84772   0.01267  Uiso   1.00
O194   O     0.35600   0.95060   0.83228   0.01267  Uiso   1.00
O195   O     0.22370   0.07090   0.89882   0.01267  Uiso   1.00
O196   O     0.33980   0.08440   0.90439   0.01267  Uiso   1.00
O197   O     0.18300   0.44640   0.07820   0.01267  Uiso   1.00
O198   O     0.28930   0.41290   0.08790   0.01267  Uiso   1.00
O199   O     0.98740   0.89880   0.88344   0.01267  Uiso   1.00
O200   O     0.56880   0.03670   0.88060   0.01267  Uiso   1.00
O201   O     0.75570   0.19970   0.87553   0.01267  Uiso   1.00
O202   O     0.31280   0.84950   0.87295   0.01267  Uiso   1.00
O203   O     0.42780   0.94490   0.88767   0.01267  Uiso   1.00
O204   O     0.54970   0.69480   0.40880   0.01267  Uiso   1.00
O205   O     0.61710   0.79150   0.39902   0.01267  Uiso   1.00
O206   O     0.29450   0.91140   0.58872   0.01267  Uiso   1.00
O207   O     0.37090   0.00600   0.59293   0.01267  Uiso   1.00
O208   O     0.30530   0.94050   0.64541   0.01267  Uiso   1.00
O209   O     0.40080   0.00970   0.65409   0.01267  Uiso   1.00
O210   O     0.39690   0.66550   0.84026   0.01267  Uiso   1.00
O211   O     0.51450   0.69520   0.83952   0.01267  Uiso   1.00
O212   O     0.25640   0.09230   0.64612   0.01267  Uiso   1.00
O213   O     0.17080   0.01150   0.65671   0.01267  Uiso   1.00
O214   O     0.03770   0.29230   0.84555   0.01267  Uiso   1.00
O215   O     0.13970   0.35680   0.84541   0.01267  Uiso   1.00
O216   O     0.26200   0.12360   0.58753   0.01267  Uiso   1.00
O217   O     0.19940   0.02460   0.59687   0.01267  Uiso   1.00
O218   O     0.85890   0.13810   0.41348   0.01267  Uiso   1.00
O219   O     0.90870   0.24810   0.41313   0.01267  Uiso   1.00
O220   O     0.19810   0.93970   0.85308   0.01267  Uiso   1.00
O221   O     0.23030   0.04640   0.83936   0.01267  Uiso   1.00
O222   O     0.88680   0.94120   0.65228   0.01267  Uiso   1.00
O223   O     0.85600   0.04940   0.66772   0.01267  Uiso   1.00
O224   O     0.72370   0.92910   0.60118   0.01267  Uiso   1.00
O225   O     0.83980   0.91560   0.59561   0.01267  Uiso   1.00
O226   O     0.68300   0.55360   0.42180   0.01267  Uiso   1.00
O227   O     0.78930   0.58710   0.41210   0.01267  Uiso   1.00
O228   O     0.48740   0.10120   0.61656   0.01267  Uiso   1.00
O229   O     0.06880   0.96330   0.61940   0.01267  Uiso   1.00
O230   O     0.25570   0.80030   0.62447   0.01267  Uiso   1.00
O231   O     0.81280   0.15050   0.62705   0.01267  Uiso   1.00
O232   O     0.92780   0.05510   0.61233   0.01267  Uiso   1.00
Cl1    Cl    0.77634   0.99744   0.99201   0.01267  Uiso   1.00
O233   O     0.72970   0.95380   0.00750   0.01267  Uiso   1.00
O234   O     0.79420   0.96190   0.96698   0.01267  Uiso   1.00
O235   O     0.74260   0.06440   0.98626   0.01267  Uiso   1.00
O236   O     0.84320   0.01040   0.00682   0.01267  Uiso   1.00
Cl2    Cl    0.78210   0.99670   0.76257   0.01267  Uiso   1.00
O237   O     0.80000   0.97820   0.79130   0.01267  Uiso   1.00
O238   O     0.83380   0.02830   0.75030   0.01267  Uiso   1.00
O239   O     0.76900   0.92260   0.75130   0.01267  Uiso   1.00
O240   O     0.71480   0.03040   0.76190   0.01267  Uiso   1.00
Cl3    Cl    0.27634   0.00256   0.50799   0.01267  Uiso   1.00
O241   O     0.22970   0.04620   0.49250   0.01267  Uiso   1.00
O242   O     0.29420   0.03810   0.53302   0.01267  Uiso   1.00
O243   O     0.24260   0.93560   0.51374   0.01267  Uiso   1.00
O244   O     0.34320   0.98960   0.49318   0.01267  Uiso   1.00
Cl4    Cl    0.28210   0.00330   0.73743   0.01267  Uiso   1.00
O245   O     0.30000   0.02180   0.70870   0.01267  Uiso   1.00
O246   O     0.33380   0.97170   0.74970   0.01267  Uiso   1.00
O247   O     0.26900   0.07740   0.74870   0.01267  Uiso   1.00
O248   O     0.21480   0.96960   0.73810   0.01267  Uiso   1.00
Cl5    Cl    0.72366   0.49744   0.00799   0.01267  Uiso   1.00
O249   O     0.77030   0.45380   0.99250   0.01267  Uiso   1.00
O250   O     0.70580   0.46190   0.03302   0.01267  Uiso   1.00
O251   O     0.75740   0.56440   0.01374   0.01267  Uiso   1.00
O252   O     0.65680   0.51040   0.99318   0.01267  Uiso   1.00
Cl6    Cl    0.71790   0.49670   0.23743   0.01267  Uiso   1.00
O253   O     0.70000   0.47820   0.20870   0.01267  Uiso   1.00
O254   O     0.66620   0.52830   0.24970   0.01267  Uiso   1.00
O255   O     0.73100   0.42260   0.24870   0.01267  Uiso   1.00
O256   O     0.78520   0.53040   0.23810   0.01267  Uiso   1.00
Cl7    Cl    0.22366   0.50256   0.49201   0.01267  Uiso   1.00
O257   O     0.27030   0.54620   0.50750   0.01267  Uiso   1.00
O258   O     0.20580   0.53810   0.46698   0.01267  Uiso   1.00
O259   O     0.25740   0.43560   0.48626   0.01267  Uiso   1.00
O260   O     0.15680   0.48960   0.50682   0.01267  Uiso   1.00
Cl8    Cl    0.21790   0.50330   0.26257   0.01267  Uiso   1.00
O261   O     0.20000   0.52180   0.29130   0.01267  Uiso   1.00
O262   O     0.16620   0.47170   0.25030   0.01267  Uiso   1.00
O263   O     0.23100   0.57740   0.25130   0.01267  Uiso   1.00
O264   O     0.28520   0.46960   0.26190   0.01267  Uiso   1.00
Cl9    Cl    0.22366   0.00256   0.00799   0.01267  Uiso   1.00
O265   O     0.27030   0.04620   0.99250   0.01267  Uiso   1.00
O266   O     0.20580   0.03810   0.03302   0.01267  Uiso   1.00
O267   O     0.25740   0.93560   0.01374   0.01267  Uiso   1.00
O268   O     0.15680   0.98960   0.99318   0.01267  Uiso   1.00
Cl10   Cl    0.21790   0.00330   0.23743   0.01267  Uiso   1.00
O269   O     0.20000   0.02180   0.20870   0.01267  Uiso   1.00
O270   O     0.16620   0.97170   0.24970   0.01267  Uiso   1.00
O271   O     0.23100   0.07740   0.24870   0.01267  Uiso   1.00
O272   O     0.28520   0.96960   0.23810   0.01267  Uiso   1.00
Cl11   Cl    0.72366   0.99744   0.49201   0.01267  Uiso   1.00
O273   O     0.77030   0.95380   0.50750   0.01267  Uiso   1.00
O274   O     0.70580   0.96190   0.46698   0.01267  Uiso   1.00
O275   O     0.75740   0.06440   0.48626   0.01267  Uiso   1.00
O276   O     0.65680   0.01040   0.50682   0.01267  Uiso   1.00
Cl12   Cl    0.71790   0.99670   0.26257   0.01267  Uiso   1.00
O277   O     0.70000   0.97820   0.29130   0.01267  Uiso   1.00
O278   O     0.66620   0.02830   0.25030   0.01267  Uiso   1.00
O279   O     0.73100   0.92260   0.25130   0.01267  Uiso   1.00
O280   O     0.78520   0.03040   0.26190   0.01267  Uiso   1.00
Cl13   Cl    0.27634   0.50256   0.99201   0.01267  Uiso   1.00
O281   O     0.22970   0.54620   0.00750   0.01267  Uiso   1.00
O282   O     0.29420   0.53810   0.96698   0.01267  Uiso   1.00
O283   O     0.24260   0.43560   0.98626   0.01267  Uiso   1.00
O284   O     0.34320   0.48960   0.00682   0.01267  Uiso   1.00
Cl14   Cl    0.28210   0.50330   0.76257   0.01267  Uiso   1.00
O285   O     0.30000   0.52180   0.79130   0.01267  Uiso   1.00
O286   O     0.33380   0.47170   0.75030   0.01267  Uiso   1.00
O287   O     0.26900   0.57740   0.75130   0.01267  Uiso   1.00
O288   O     0.21480   0.46960   0.76190   0.01267  Uiso   1.00
Cl15   Cl    0.77634   0.49744   0.50799   0.01267  Uiso   1.00
O289   O     0.72970   0.45380   0.49250   0.01267  Uiso   1.00
O290   O     0.79420   0.46190   0.53302   0.01267  Uiso   1.00
O291   O     0.74260   0.56440   0.51374   0.01267  Uiso   1.00
O292   O     0.84320   0.51040   0.49318   0.01267  Uiso   1.00
Cl16   Cl    0.78210   0.49670   0.73743   0.01267  Uiso   1.00
O293   O     0.80000   0.47820   0.70870   0.01267  Uiso   1.00
O294   O     0.83380   0.52830   0.74970   0.01267  Uiso   1.00
O295   O     0.76900   0.42260   0.74870   0.01267  Uiso   1.00
O296   O     0.71480   0.53040   0.73810   0.01267  Uiso   1.00
