data_NIFZOT_charged
_audit_creation_date              2014-07-02
_audit_creation_method            'Materials Studio'
_symmetry_space_group_name_H-M    'P1'
_symmetry_Int_Tables_number       1
_symmetry_cell_setting            triclinic
loop_
_symmetry_equiv_pos_as_xyz
  x,y,z
_cell_length_a                    18.5617
_cell_length_b                    18.7144
_cell_length_c                    49.0783
_cell_angle_alpha                 90.0000
_cell_angle_beta                  90.0000
_cell_angle_gamma                 90.0000
loop_
_atom_site_label
_atom_site_type_symbol
_atom_site_fract_x
_atom_site_fract_y
_atom_site_fract_z
_atom_site_U_iso_or_equiv
_atom_site_adp_type
_atom_site_occupancy
Gd1    Gd    0.69844   0.07956   0.62145   0.01267  Uiso   1.00
Gd2    Gd    0.85831   0.90317   0.62246   0.01267  Uiso   1.00
Gd3    Gd    0.80320   0.02016   0.87576   0.01267  Uiso   1.00
Gd4    Gd    0.19844   0.92044   0.87855   0.01267  Uiso   1.00
Gd5    Gd    0.35831   0.09683   0.87754   0.01267  Uiso   1.00
Gd6    Gd    0.30320   0.97984   0.62423   0.01267  Uiso   1.00
Gd7    Gd    0.80156   0.57956   0.37855   0.01267  Uiso   1.00
Gd8    Gd    0.64169   0.40317   0.37754   0.01267  Uiso   1.00
Gd9    Gd    0.69680   0.52016   0.12423   0.01267  Uiso   1.00
Gd10   Gd    0.30156   0.42044   0.12145   0.01267  Uiso   1.00
Gd11   Gd    0.14169   0.59683   0.12246   0.01267  Uiso   1.00
Gd12   Gd    0.19680   0.47984   0.37576   0.01267  Uiso   1.00
Gd13   Gd    0.30156   0.92044   0.37855   0.01267  Uiso   1.00
Gd14   Gd    0.14169   0.09683   0.37754   0.01267  Uiso   1.00
Gd15   Gd    0.19680   0.97984   0.12423   0.01267  Uiso   1.00
Gd16   Gd    0.80156   0.07956   0.12145   0.01267  Uiso   1.00
Gd17   Gd    0.64169   0.90317   0.12246   0.01267  Uiso   1.00
Gd18   Gd    0.69680   0.02016   0.37576   0.01267  Uiso   1.00
Gd19   Gd    0.19844   0.42044   0.62145   0.01267  Uiso   1.00
Gd20   Gd    0.35831   0.59683   0.62246   0.01267  Uiso   1.00
Gd21   Gd    0.30320   0.47984   0.87576   0.01267  Uiso   1.00
Gd22   Gd    0.69844   0.57956   0.87855   0.01267  Uiso   1.00
Gd23   Gd    0.85831   0.40317   0.87754   0.01267  Uiso   1.00
Gd24   Gd    0.80320   0.52016   0.62423   0.01267  Uiso   1.00
Co1    Co    0.53599   0.88284   0.75363   0.01267  Uiso   1.00
Co2    Co    0.88782   0.75302   0.99812   0.01267  Uiso   1.00
Co3    Co    0.03599   0.11716   0.74637   0.01267  Uiso   1.00
Co4    Co    0.38782   0.24698   0.50188   0.01267  Uiso   1.00
Co5    Co    0.96401   0.38284   0.24637   0.01267  Uiso   1.00
Co6    Co    0.61218   0.25302   0.00188   0.01267  Uiso   1.00
Co7    Co    0.46401   0.61716   0.25363   0.01267  Uiso   1.00
Co8    Co    0.11218   0.74698   0.49812   0.01267  Uiso   1.00
Co9    Co    0.46401   0.11716   0.24637   0.01267  Uiso   1.00
Co10   Co    0.11218   0.24698   0.00188   0.01267  Uiso   1.00
Co11   Co    0.96401   0.88284   0.25363   0.01267  Uiso   1.00
Co12   Co    0.61218   0.75302   0.49812   0.01267  Uiso   1.00
Co13   Co    0.03599   0.61716   0.75363   0.01267  Uiso   1.00
Co14   Co    0.38782   0.74698   0.99812   0.01267  Uiso   1.00
Co15   Co    0.53599   0.38284   0.74637   0.01267  Uiso   1.00
Co16   Co    0.88782   0.25302   0.50188   0.01267  Uiso   1.00
H1     H     0.83220   0.16830   0.55060   0.01267  Uiso   1.00
H2     H     0.97430   0.00950   0.56160   0.01267  Uiso   1.00
H3     H     0.03400   0.04850   0.52290   0.01267  Uiso   1.00
H4     H     0.08600   0.09030   0.48590   0.01267  Uiso   1.00
H5     H     0.12400   0.13070   0.44400   0.01267  Uiso   1.00
H6     H     0.96420   0.27200   0.44470   0.01267  Uiso   1.00
H7     H     0.70600   0.82060   0.54350   0.01267  Uiso   1.00
H8     H     0.58430   0.97910   0.57300   0.01267  Uiso   1.00
H9     H     0.50480   0.96020   0.53760   0.01267  Uiso   1.00
H10    H     0.43620   0.93950   0.50190   0.01267  Uiso   1.00
H11    H     0.37470   0.91540   0.46190   0.01267  Uiso   1.00
H12    H     0.51210   0.75460   0.44800   0.01267  Uiso   1.00
H13    H     0.60900   0.94900   0.70170   0.01267  Uiso   1.00
H14    H     0.75220   0.80350   0.67590   0.01267  Uiso   1.00
H15    H     0.72790   0.73670   0.71430   0.01267  Uiso   1.00
H16    H     0.71240   0.68750   0.75340   0.01267  Uiso   1.00
H17    H     0.68660   0.63920   0.79660   0.01267  Uiso   1.00
H18    H     0.54330   0.79420   0.80790   0.01267  Uiso   1.00
H19    H     0.51870   0.79580   0.69800   0.01267  Uiso   1.00
H20    H     0.36570   0.64980   0.71060   0.01267  Uiso   1.00
H21    H     0.34910   0.69770   0.75430   0.01267  Uiso   1.00
H22    H     0.33540   0.74900   0.79300   0.01267  Uiso   1.00
H23    H     0.30840   0.82390   0.82940   0.01267  Uiso   1.00
H24    H     0.46270   0.95700   0.80380   0.01267  Uiso   1.00
H25    H     0.43750   0.91830   0.70510   0.01267  Uiso   1.00
H26    H     0.44670   0.12890   0.69360   0.01267  Uiso   1.00
H27    H     0.51270   0.13890   0.73320   0.01267  Uiso   1.00
H28    H     0.56240   0.13920   0.77500   0.01267  Uiso   1.00
H29    H     0.63030   0.12840   0.81370   0.01267  Uiso   1.00
H30    H     0.63920   0.91850   0.80270   0.01267  Uiso   1.00
H31    H     0.86890   0.83980   0.94530   0.01267  Uiso   1.00
H32    H     0.65560   0.86380   0.93580   0.01267  Uiso   1.00
H33    H     0.63960   0.79210   0.97400   0.01267  Uiso   1.00
H34    H     0.63280   0.72200   0.00980   0.01267  Uiso   1.00
H35    H     0.63660   0.64440   0.04700   0.01267  Uiso   1.00
H36    H     0.85080   0.64730   0.04380   0.01267  Uiso   1.00
H37    H     0.51620   0.67470   0.85100   0.01267  Uiso   1.00
H38    H     0.56910   0.98990   0.61600   0.01267  Uiso   1.00
H39    H     0.54910   0.04160   0.63480   0.01267  Uiso   1.00
H40    H     0.71570   0.23230   0.62260   0.01267  Uiso   1.00
H41    H     0.77430   0.20650   0.63720   0.01267  Uiso   1.00
H42    H     0.00120   0.94980   0.61470   0.01267  Uiso   1.00
H43    H     0.00820   0.88560   0.62870   0.01267  Uiso   1.00
H44    H     0.77460   0.17140   0.87380   0.01267  Uiso   1.00
H45    H     0.84080   0.16630   0.88680   0.01267  Uiso   1.00
H46    H     0.93170   0.09740   0.88960   0.01267  Uiso   1.00
H47    H     0.93770   0.03390   0.90400   0.01267  Uiso   1.00
H48    H     0.33220   0.83170   0.94940   0.01267  Uiso   1.00
H49    H     0.47430   0.99050   0.93840   0.01267  Uiso   1.00
H50    H     0.53400   0.95150   0.97710   0.01267  Uiso   1.00
H51    H     0.58600   0.90970   0.01410   0.01267  Uiso   1.00
H52    H     0.62400   0.86930   0.05600   0.01267  Uiso   1.00
H53    H     0.46420   0.72800   0.05530   0.01267  Uiso   1.00
H54    H     0.20600   0.17940   0.95650   0.01267  Uiso   1.00
H55    H     0.08430   0.02090   0.92700   0.01267  Uiso   1.00
H56    H     0.00480   0.03980   0.96240   0.01267  Uiso   1.00
H57    H     0.93620   0.06050   0.99810   0.01267  Uiso   1.00
H58    H     0.87470   0.08460   0.03810   0.01267  Uiso   1.00
H59    H     0.01210   0.24540   0.05200   0.01267  Uiso   1.00
H60    H     0.10900   0.05100   0.79830   0.01267  Uiso   1.00
H61    H     0.25220   0.19650   0.82410   0.01267  Uiso   1.00
H62    H     0.22790   0.26330   0.78570   0.01267  Uiso   1.00
H63    H     0.21240   0.31250   0.74660   0.01267  Uiso   1.00
H64    H     0.18660   0.36080   0.70340   0.01267  Uiso   1.00
H65    H     0.04330   0.20580   0.69210   0.01267  Uiso   1.00
H66    H     0.01870   0.20420   0.80200   0.01267  Uiso   1.00
H67    H     0.86570   0.35020   0.78940   0.01267  Uiso   1.00
H68    H     0.84910   0.30230   0.74570   0.01267  Uiso   1.00
H69    H     0.83540   0.25100   0.70700   0.01267  Uiso   1.00
H70    H     0.80840   0.17610   0.67060   0.01267  Uiso   1.00
H71    H     0.96270   0.04300   0.69620   0.01267  Uiso   1.00
H72    H     0.93750   0.08170   0.79490   0.01267  Uiso   1.00
H73    H     0.94670   0.87110   0.80640   0.01267  Uiso   1.00
H74    H     0.01270   0.86110   0.76680   0.01267  Uiso   1.00
H75    H     0.06240   0.86080   0.72500   0.01267  Uiso   1.00
H76    H     0.13030   0.87160   0.68630   0.01267  Uiso   1.00
H77    H     0.13920   0.08150   0.69730   0.01267  Uiso   1.00
H78    H     0.36890   0.16020   0.55470   0.01267  Uiso   1.00
H79    H     0.15560   0.13620   0.56420   0.01267  Uiso   1.00
H80    H     0.13960   0.20790   0.52600   0.01267  Uiso   1.00
H81    H     0.13280   0.27800   0.49020   0.01267  Uiso   1.00
H82    H     0.13660   0.35560   0.45300   0.01267  Uiso   1.00
H83    H     0.35080   0.35270   0.45620   0.01267  Uiso   1.00
H84    H     0.01620   0.32530   0.64900   0.01267  Uiso   1.00
H85    H     0.06910   0.01010   0.88400   0.01267  Uiso   1.00
H86    H     0.04910   0.95840   0.86520   0.01267  Uiso   1.00
H87    H     0.21570   0.76770   0.87740   0.01267  Uiso   1.00
H88    H     0.27430   0.79350   0.86280   0.01267  Uiso   1.00
H89    H     0.50120   0.05020   0.88530   0.01267  Uiso   1.00
H90    H     0.50820   0.11440   0.87130   0.01267  Uiso   1.00
H91    H     0.27460   0.82860   0.62620   0.01267  Uiso   1.00
H92    H     0.34080   0.83370   0.61320   0.01267  Uiso   1.00
H93    H     0.43170   0.90260   0.61040   0.01267  Uiso   1.00
H94    H     0.43770   0.96610   0.59600   0.01267  Uiso   1.00
H95    H     0.66780   0.66830   0.44940   0.01267  Uiso   1.00
H96    H     0.52570   0.50950   0.43840   0.01267  Uiso   1.00
H97    H     0.46600   0.54850   0.47710   0.01267  Uiso   1.00
H98    H     0.41400   0.59030   0.51410   0.01267  Uiso   1.00
H99    H     0.37600   0.63070   0.55600   0.01267  Uiso   1.00
H100   H     0.53580   0.77200   0.55530   0.01267  Uiso   1.00
H101   H     0.79400   0.32060   0.45650   0.01267  Uiso   1.00
H102   H     0.91570   0.47910   0.42700   0.01267  Uiso   1.00
H103   H     0.99520   0.46020   0.46240   0.01267  Uiso   1.00
H104   H     0.06380   0.43950   0.49810   0.01267  Uiso   1.00
H105   H     0.12530   0.41540   0.53810   0.01267  Uiso   1.00
H106   H     0.98790   0.25460   0.55200   0.01267  Uiso   1.00
H107   H     0.89100   0.44900   0.29830   0.01267  Uiso   1.00
H108   H     0.74780   0.30350   0.32410   0.01267  Uiso   1.00
H109   H     0.77210   0.23670   0.28570   0.01267  Uiso   1.00
H110   H     0.78760   0.18750   0.24660   0.01267  Uiso   1.00
H111   H     0.81340   0.13920   0.20340   0.01267  Uiso   1.00
H112   H     0.95670   0.29420   0.19210   0.01267  Uiso   1.00
H113   H     0.98130   0.29580   0.30200   0.01267  Uiso   1.00
H114   H     0.13430   0.14980   0.28940   0.01267  Uiso   1.00
H115   H     0.15090   0.19770   0.24570   0.01267  Uiso   1.00
H116   H     0.16460   0.24900   0.20700   0.01267  Uiso   1.00
H117   H     0.19160   0.32390   0.17060   0.01267  Uiso   1.00
H118   H     0.03730   0.45700   0.19620   0.01267  Uiso   1.00
H119   H     0.06250   0.41830   0.29490   0.01267  Uiso   1.00
H120   H     0.05330   0.62890   0.30640   0.01267  Uiso   1.00
H121   H     0.98730   0.63890   0.26680   0.01267  Uiso   1.00
H122   H     0.93760   0.63920   0.22500   0.01267  Uiso   1.00
H123   H     0.86970   0.62840   0.18630   0.01267  Uiso   1.00
H124   H     0.86080   0.41850   0.19730   0.01267  Uiso   1.00
H125   H     0.63110   0.33980   0.05470   0.01267  Uiso   1.00
H126   H     0.84440   0.36380   0.06420   0.01267  Uiso   1.00
H127   H     0.86040   0.29210   0.02600   0.01267  Uiso   1.00
H128   H     0.86720   0.22200   0.99020   0.01267  Uiso   1.00
H129   H     0.86340   0.14440   0.95300   0.01267  Uiso   1.00
H130   H     0.64920   0.14730   0.95620   0.01267  Uiso   1.00
H131   H     0.98380   0.17470   0.14900   0.01267  Uiso   1.00
H132   H     0.93090   0.48990   0.38400   0.01267  Uiso   1.00
H133   H     0.95090   0.54160   0.36520   0.01267  Uiso   1.00
H134   H     0.78430   0.73230   0.37740   0.01267  Uiso   1.00
H135   H     0.72570   0.70650   0.36280   0.01267  Uiso   1.00
H136   H     0.49880   0.44980   0.38530   0.01267  Uiso   1.00
H137   H     0.49180   0.38560   0.37130   0.01267  Uiso   1.00
H138   H     0.72540   0.67140   0.12620   0.01267  Uiso   1.00
H139   H     0.65920   0.66630   0.11320   0.01267  Uiso   1.00
H140   H     0.56830   0.59740   0.11040   0.01267  Uiso   1.00
H141   H     0.56230   0.53390   0.09600   0.01267  Uiso   1.00
H142   H     0.16780   0.33170   0.05060   0.01267  Uiso   1.00
H143   H     0.02570   0.49050   0.06160   0.01267  Uiso   1.00
H144   H     0.96600   0.45150   0.02290   0.01267  Uiso   1.00
H145   H     0.91400   0.40970   0.98590   0.01267  Uiso   1.00
H146   H     0.87600   0.36930   0.94400   0.01267  Uiso   1.00
H147   H     0.03580   0.22800   0.94470   0.01267  Uiso   1.00
H148   H     0.29400   0.67940   0.04350   0.01267  Uiso   1.00
H149   H     0.41570   0.52090   0.07300   0.01267  Uiso   1.00
H150   H     0.49520   0.53980   0.03760   0.01267  Uiso   1.00
H151   H     0.56380   0.56050   0.00190   0.01267  Uiso   1.00
H152   H     0.62530   0.58460   0.96190   0.01267  Uiso   1.00
H153   H     0.48790   0.74540   0.94800   0.01267  Uiso   1.00
H154   H     0.39100   0.55100   0.20170   0.01267  Uiso   1.00
H155   H     0.24780   0.69650   0.17590   0.01267  Uiso   1.00
H156   H     0.27210   0.76330   0.21430   0.01267  Uiso   1.00
H157   H     0.28760   0.81250   0.25340   0.01267  Uiso   1.00
H158   H     0.31340   0.86080   0.29660   0.01267  Uiso   1.00
H159   H     0.45670   0.70580   0.30790   0.01267  Uiso   1.00
H160   H     0.48130   0.70420   0.19800   0.01267  Uiso   1.00
H161   H     0.63430   0.85020   0.21060   0.01267  Uiso   1.00
H162   H     0.65090   0.80230   0.25430   0.01267  Uiso   1.00
H163   H     0.66460   0.75100   0.29300   0.01267  Uiso   1.00
H164   H     0.69160   0.67610   0.32940   0.01267  Uiso   1.00
H165   H     0.53730   0.54300   0.30380   0.01267  Uiso   1.00
H166   H     0.56250   0.58170   0.20510   0.01267  Uiso   1.00
H167   H     0.55330   0.37110   0.19360   0.01267  Uiso   1.00
H168   H     0.48730   0.36110   0.23320   0.01267  Uiso   1.00
H169   H     0.43760   0.36080   0.27500   0.01267  Uiso   1.00
H170   H     0.36970   0.37160   0.31370   0.01267  Uiso   1.00
H171   H     0.36080   0.58150   0.30270   0.01267  Uiso   1.00
H172   H     0.13110   0.66020   0.44530   0.01267  Uiso   1.00
H173   H     0.34440   0.63620   0.43580   0.01267  Uiso   1.00
H174   H     0.36040   0.70790   0.47400   0.01267  Uiso   1.00
H175   H     0.36720   0.77800   0.50980   0.01267  Uiso   1.00
H176   H     0.36340   0.85560   0.54700   0.01267  Uiso   1.00
H177   H     0.14920   0.85270   0.54380   0.01267  Uiso   1.00
H178   H     0.48380   0.82530   0.35100   0.01267  Uiso   1.00
H179   H     0.43090   0.51010   0.11600   0.01267  Uiso   1.00
H180   H     0.45090   0.45840   0.13480   0.01267  Uiso   1.00
H181   H     0.28430   0.26770   0.12260   0.01267  Uiso   1.00
H182   H     0.22570   0.29350   0.13720   0.01267  Uiso   1.00
H183   H     0.99880   0.55020   0.11470   0.01267  Uiso   1.00
H184   H     0.99180   0.61440   0.12870   0.01267  Uiso   1.00
H185   H     0.22540   0.32860   0.37380   0.01267  Uiso   1.00
H186   H     0.15920   0.33370   0.38680   0.01267  Uiso   1.00
H187   H     0.06830   0.40260   0.38960   0.01267  Uiso   1.00
H188   H     0.06230   0.46610   0.40400   0.01267  Uiso   1.00
H189   H     0.16780   0.83170   0.44940   0.01267  Uiso   1.00
H190   H     0.02570   0.99050   0.43840   0.01267  Uiso   1.00
H191   H     0.96600   0.95150   0.47710   0.01267  Uiso   1.00
H192   H     0.91400   0.90970   0.51410   0.01267  Uiso   1.00
H193   H     0.87600   0.86930   0.55600   0.01267  Uiso   1.00
H194   H     0.03580   0.72800   0.55530   0.01267  Uiso   1.00
H195   H     0.29400   0.17940   0.45650   0.01267  Uiso   1.00
H196   H     0.41570   0.02090   0.42700   0.01267  Uiso   1.00
H197   H     0.49520   0.03980   0.46240   0.01267  Uiso   1.00
H198   H     0.56380   0.06050   0.49810   0.01267  Uiso   1.00
H199   H     0.62530   0.08460   0.53810   0.01267  Uiso   1.00
H200   H     0.48790   0.24540   0.55200   0.01267  Uiso   1.00
H201   H     0.39100   0.05100   0.29830   0.01267  Uiso   1.00
H202   H     0.24780   0.19650   0.32410   0.01267  Uiso   1.00
H203   H     0.27210   0.26330   0.28570   0.01267  Uiso   1.00
H204   H     0.28760   0.31250   0.24660   0.01267  Uiso   1.00
H205   H     0.31340   0.36080   0.20340   0.01267  Uiso   1.00
H206   H     0.45670   0.20580   0.19210   0.01267  Uiso   1.00
H207   H     0.48130   0.20420   0.30200   0.01267  Uiso   1.00
H208   H     0.63430   0.35020   0.28940   0.01267  Uiso   1.00
H209   H     0.65090   0.30230   0.24570   0.01267  Uiso   1.00
H210   H     0.66460   0.25100   0.20700   0.01267  Uiso   1.00
H211   H     0.69160   0.17610   0.17060   0.01267  Uiso   1.00
H212   H     0.53730   0.04300   0.19620   0.01267  Uiso   1.00
H213   H     0.56250   0.08170   0.29490   0.01267  Uiso   1.00
H214   H     0.55330   0.87110   0.30640   0.01267  Uiso   1.00
H215   H     0.48730   0.86110   0.26680   0.01267  Uiso   1.00
H216   H     0.43760   0.86080   0.22500   0.01267  Uiso   1.00
H217   H     0.36970   0.87160   0.18630   0.01267  Uiso   1.00
H218   H     0.36080   0.08150   0.19730   0.01267  Uiso   1.00
H219   H     0.13110   0.16020   0.05470   0.01267  Uiso   1.00
H220   H     0.34440   0.13620   0.06420   0.01267  Uiso   1.00
H221   H     0.36040   0.20790   0.02600   0.01267  Uiso   1.00
H222   H     0.36720   0.27800   0.99020   0.01267  Uiso   1.00
H223   H     0.36340   0.35560   0.95300   0.01267  Uiso   1.00
H224   H     0.14920   0.35270   0.95620   0.01267  Uiso   1.00
H225   H     0.48380   0.32530   0.14900   0.01267  Uiso   1.00
H226   H     0.43090   0.01010   0.38400   0.01267  Uiso   1.00
H227   H     0.45090   0.95840   0.36520   0.01267  Uiso   1.00
H228   H     0.28430   0.76770   0.37740   0.01267  Uiso   1.00
H229   H     0.22570   0.79350   0.36280   0.01267  Uiso   1.00
H230   H     0.99880   0.05020   0.38530   0.01267  Uiso   1.00
H231   H     0.99180   0.11440   0.37130   0.01267  Uiso   1.00
H232   H     0.22540   0.82860   0.12620   0.01267  Uiso   1.00
H233   H     0.15920   0.83370   0.11320   0.01267  Uiso   1.00
H234   H     0.06830   0.90260   0.11040   0.01267  Uiso   1.00
H235   H     0.06230   0.96610   0.09600   0.01267  Uiso   1.00
H236   H     0.66780   0.16830   0.05060   0.01267  Uiso   1.00
H237   H     0.52570   0.00950   0.06160   0.01267  Uiso   1.00
H238   H     0.46600   0.04850   0.02290   0.01267  Uiso   1.00
H239   H     0.41400   0.09030   0.98590   0.01267  Uiso   1.00
H240   H     0.37600   0.13070   0.94400   0.01267  Uiso   1.00
H241   H     0.53580   0.27200   0.94470   0.01267  Uiso   1.00
H242   H     0.79400   0.82060   0.04350   0.01267  Uiso   1.00
H243   H     0.91570   0.97910   0.07300   0.01267  Uiso   1.00
H244   H     0.99520   0.96020   0.03760   0.01267  Uiso   1.00
H245   H     0.06380   0.93950   0.00190   0.01267  Uiso   1.00
H246   H     0.12530   0.91540   0.96190   0.01267  Uiso   1.00
H247   H     0.98790   0.75460   0.94800   0.01267  Uiso   1.00
H248   H     0.89100   0.94900   0.20170   0.01267  Uiso   1.00
H249   H     0.74780   0.80350   0.17590   0.01267  Uiso   1.00
H250   H     0.77210   0.73670   0.21430   0.01267  Uiso   1.00
H251   H     0.78760   0.68750   0.25340   0.01267  Uiso   1.00
H252   H     0.81340   0.63920   0.29660   0.01267  Uiso   1.00
H253   H     0.95670   0.79420   0.30790   0.01267  Uiso   1.00
H254   H     0.98130   0.79580   0.19800   0.01267  Uiso   1.00
H255   H     0.13430   0.64980   0.21060   0.01267  Uiso   1.00
H256   H     0.15090   0.69770   0.25430   0.01267  Uiso   1.00
H257   H     0.16460   0.74900   0.29300   0.01267  Uiso   1.00
H258   H     0.19160   0.82390   0.32940   0.01267  Uiso   1.00
H259   H     0.03730   0.95700   0.30380   0.01267  Uiso   1.00
H260   H     0.06250   0.91830   0.20510   0.01267  Uiso   1.00
H261   H     0.05330   0.12890   0.19360   0.01267  Uiso   1.00
H262   H     0.98730   0.13890   0.23320   0.01267  Uiso   1.00
H263   H     0.93760   0.13920   0.27500   0.01267  Uiso   1.00
H264   H     0.86970   0.12840   0.31370   0.01267  Uiso   1.00
H265   H     0.86080   0.91850   0.30270   0.01267  Uiso   1.00
H266   H     0.63110   0.83980   0.44530   0.01267  Uiso   1.00
H267   H     0.84440   0.86380   0.43580   0.01267  Uiso   1.00
H268   H     0.86040   0.79210   0.47400   0.01267  Uiso   1.00
H269   H     0.86720   0.72200   0.50980   0.01267  Uiso   1.00
H270   H     0.86340   0.64440   0.54700   0.01267  Uiso   1.00
H271   H     0.64920   0.64730   0.54380   0.01267  Uiso   1.00
H272   H     0.98380   0.67470   0.35100   0.01267  Uiso   1.00
H273   H     0.93090   0.98990   0.11600   0.01267  Uiso   1.00
H274   H     0.95090   0.04160   0.13480   0.01267  Uiso   1.00
H275   H     0.78430   0.23230   0.12260   0.01267  Uiso   1.00
H276   H     0.72570   0.20650   0.13720   0.01267  Uiso   1.00
H277   H     0.49880   0.94980   0.11470   0.01267  Uiso   1.00
H278   H     0.49180   0.88560   0.12870   0.01267  Uiso   1.00
H279   H     0.72540   0.17140   0.37380   0.01267  Uiso   1.00
H280   H     0.65920   0.16630   0.38680   0.01267  Uiso   1.00
H281   H     0.56830   0.09740   0.38960   0.01267  Uiso   1.00
H282   H     0.56230   0.03390   0.40400   0.01267  Uiso   1.00
H283   H     0.33220   0.33170   0.55060   0.01267  Uiso   1.00
H284   H     0.47430   0.49050   0.56160   0.01267  Uiso   1.00
H285   H     0.53400   0.45150   0.52290   0.01267  Uiso   1.00
H286   H     0.58600   0.40970   0.48590   0.01267  Uiso   1.00
H287   H     0.62400   0.36930   0.44400   0.01267  Uiso   1.00
H288   H     0.46420   0.22800   0.44470   0.01267  Uiso   1.00
H289   H     0.20600   0.67940   0.54350   0.01267  Uiso   1.00
H290   H     0.08430   0.52090   0.57300   0.01267  Uiso   1.00
H291   H     0.00480   0.53980   0.53760   0.01267  Uiso   1.00
H292   H     0.93620   0.56050   0.50190   0.01267  Uiso   1.00
H293   H     0.87470   0.58460   0.46190   0.01267  Uiso   1.00
H294   H     0.01210   0.74540   0.44800   0.01267  Uiso   1.00
H295   H     0.10900   0.55100   0.70170   0.01267  Uiso   1.00
H296   H     0.25220   0.69650   0.67590   0.01267  Uiso   1.00
H297   H     0.22790   0.76330   0.71430   0.01267  Uiso   1.00
H298   H     0.21240   0.81250   0.75340   0.01267  Uiso   1.00
H299   H     0.18660   0.86080   0.79660   0.01267  Uiso   1.00
H300   H     0.04330   0.70580   0.80790   0.01267  Uiso   1.00
H301   H     0.01870   0.70420   0.69800   0.01267  Uiso   1.00
H302   H     0.86570   0.85020   0.71060   0.01267  Uiso   1.00
H303   H     0.84910   0.80230   0.75430   0.01267  Uiso   1.00
H304   H     0.83540   0.75100   0.79300   0.01267  Uiso   1.00
H305   H     0.80840   0.67610   0.82940   0.01267  Uiso   1.00
H306   H     0.96270   0.54300   0.80380   0.01267  Uiso   1.00
H307   H     0.93750   0.58170   0.70510   0.01267  Uiso   1.00
H308   H     0.94670   0.37110   0.69360   0.01267  Uiso   1.00
H309   H     0.01270   0.36110   0.73320   0.01267  Uiso   1.00
H310   H     0.06240   0.36080   0.77500   0.01267  Uiso   1.00
H311   H     0.13030   0.37160   0.81370   0.01267  Uiso   1.00
H312   H     0.13920   0.58150   0.80270   0.01267  Uiso   1.00
H313   H     0.36890   0.66020   0.94530   0.01267  Uiso   1.00
H314   H     0.15560   0.63620   0.93580   0.01267  Uiso   1.00
H315   H     0.13960   0.70790   0.97400   0.01267  Uiso   1.00
H316   H     0.13280   0.77800   0.00980   0.01267  Uiso   1.00
H317   H     0.13660   0.85560   0.04700   0.01267  Uiso   1.00
H318   H     0.35080   0.85270   0.04380   0.01267  Uiso   1.00
H319   H     0.01620   0.82530   0.85100   0.01267  Uiso   1.00
H320   H     0.06910   0.51010   0.61600   0.01267  Uiso   1.00
H321   H     0.04910   0.45840   0.63480   0.01267  Uiso   1.00
H322   H     0.21570   0.26770   0.62260   0.01267  Uiso   1.00
H323   H     0.27430   0.29350   0.63720   0.01267  Uiso   1.00
H324   H     0.50120   0.55020   0.61470   0.01267  Uiso   1.00
H325   H     0.50820   0.61440   0.62870   0.01267  Uiso   1.00
H326   H     0.27460   0.32860   0.87380   0.01267  Uiso   1.00
H327   H     0.34080   0.33370   0.88680   0.01267  Uiso   1.00
H328   H     0.43170   0.40260   0.88960   0.01267  Uiso   1.00
H329   H     0.43770   0.46610   0.90400   0.01267  Uiso   1.00
H330   H     0.83220   0.66830   0.94940   0.01267  Uiso   1.00
H331   H     0.97430   0.50950   0.93840   0.01267  Uiso   1.00
H332   H     0.03400   0.54850   0.97710   0.01267  Uiso   1.00
H333   H     0.08600   0.59030   0.01410   0.01267  Uiso   1.00
H334   H     0.12400   0.63070   0.05600   0.01267  Uiso   1.00
H335   H     0.96420   0.77200   0.05530   0.01267  Uiso   1.00
H336   H     0.70600   0.32060   0.95650   0.01267  Uiso   1.00
H337   H     0.58430   0.47910   0.92700   0.01267  Uiso   1.00
H338   H     0.50480   0.46020   0.96240   0.01267  Uiso   1.00
H339   H     0.43620   0.43950   0.99810   0.01267  Uiso   1.00
H340   H     0.37470   0.41540   0.03810   0.01267  Uiso   1.00
H341   H     0.51210   0.25460   0.05200   0.01267  Uiso   1.00
H342   H     0.60900   0.44900   0.79830   0.01267  Uiso   1.00
H343   H     0.75220   0.30350   0.82410   0.01267  Uiso   1.00
H344   H     0.72790   0.23670   0.78570   0.01267  Uiso   1.00
H345   H     0.71240   0.18750   0.74660   0.01267  Uiso   1.00
H346   H     0.68660   0.13920   0.70340   0.01267  Uiso   1.00
H347   H     0.54330   0.29420   0.69210   0.01267  Uiso   1.00
H348   H     0.51870   0.29580   0.80200   0.01267  Uiso   1.00
H349   H     0.36570   0.14980   0.78940   0.01267  Uiso   1.00
H350   H     0.34910   0.19770   0.74570   0.01267  Uiso   1.00
H351   H     0.33540   0.24900   0.70700   0.01267  Uiso   1.00
H352   H     0.30840   0.32390   0.67060   0.01267  Uiso   1.00
H353   H     0.46270   0.45700   0.69620   0.01267  Uiso   1.00
H354   H     0.43750   0.41830   0.79490   0.01267  Uiso   1.00
H355   H     0.44670   0.62890   0.80640   0.01267  Uiso   1.00
H356   H     0.51270   0.63890   0.76680   0.01267  Uiso   1.00
H357   H     0.56240   0.63920   0.72500   0.01267  Uiso   1.00
H358   H     0.63030   0.62840   0.68630   0.01267  Uiso   1.00
H359   H     0.63920   0.41850   0.69730   0.01267  Uiso   1.00
H360   H     0.86890   0.33980   0.55470   0.01267  Uiso   1.00
H361   H     0.65560   0.36380   0.56420   0.01267  Uiso   1.00
H362   H     0.63960   0.29210   0.52600   0.01267  Uiso   1.00
H363   H     0.63280   0.22200   0.49020   0.01267  Uiso   1.00
H364   H     0.63660   0.14440   0.45300   0.01267  Uiso   1.00
H365   H     0.85080   0.14730   0.45620   0.01267  Uiso   1.00
H366   H     0.51620   0.17470   0.64900   0.01267  Uiso   1.00
H367   H     0.56910   0.48990   0.88400   0.01267  Uiso   1.00
H368   H     0.54910   0.54160   0.86520   0.01267  Uiso   1.00
H369   H     0.71570   0.73230   0.87740   0.01267  Uiso   1.00
H370   H     0.77430   0.70650   0.86280   0.01267  Uiso   1.00
H371   H     0.00120   0.44980   0.88530   0.01267  Uiso   1.00
H372   H     0.00820   0.38560   0.87130   0.01267  Uiso   1.00
H373   H     0.77460   0.67140   0.62620   0.01267  Uiso   1.00
H374   H     0.84080   0.66630   0.61320   0.01267  Uiso   1.00
H375   H     0.93170   0.59740   0.61040   0.01267  Uiso   1.00
H376   H     0.93770   0.53390   0.59600   0.01267  Uiso   1.00
C1     C     0.84680   0.05440   0.58192   0.01267  Uiso   1.00
C2     C     0.87230   0.14290   0.54466   0.01267  Uiso   1.00
C3     C     0.89360   0.08160   0.55881   0.01267  Uiso   1.00
C4     C     0.95660   0.04760   0.55145   0.01267  Uiso   1.00
C5     C     0.99250   0.07190   0.52864   0.01267  Uiso   1.00
C6     C     0.96830   0.12900   0.51456   0.01267  Uiso   1.00
C7     C     0.00020   0.15500   0.48864   0.01267  Uiso   1.00
C8     C     0.06090   0.12650   0.47706   0.01267  Uiso   1.00
C9     C     0.08420   0.15140   0.45244   0.01267  Uiso   1.00
C10    C     0.04830   0.20740   0.44017   0.01267  Uiso   1.00
C11    C     0.98880   0.23470   0.45306   0.01267  Uiso   1.00
C12    C     0.07340   0.24180   0.41400   0.01267  Uiso   1.00
C13    C     0.71200   0.91940   0.58331   0.01267  Uiso   1.00
C14    C     0.66540   0.84960   0.54235   0.01267  Uiso   1.00
C15    C     0.65710   0.90370   0.56162   0.01267  Uiso   1.00
C16    C     0.59400   0.94440   0.55998   0.01267  Uiso   1.00
C17    C     0.54630   0.93250   0.53893   0.01267  Uiso   1.00
C18    C     0.55970   0.88000   0.51988   0.01267  Uiso   1.00
C19    C     0.51280   0.86460   0.49677   0.01267  Uiso   1.00
C20    C     0.45210   0.90340   0.49036   0.01267  Uiso   1.00
C21    C     0.41490   0.88830   0.46663   0.01267  Uiso   1.00
C22    C     0.43740   0.83290   0.44990   0.01267  Uiso   1.00
C23    C     0.49710   0.79300   0.45860   0.01267  Uiso   1.00
C24    C     0.39910   0.81510   0.42358   0.01267  Uiso   1.00
C25    C     0.70470   0.93150   0.66099   0.01267  Uiso   1.00
C26    C     0.63370   0.90630   0.70430   0.01267  Uiso   1.00
C27    C     0.68510   0.88590   0.68472   0.01267  Uiso   1.00
C28    C     0.71940   0.82020   0.68878   0.01267  Uiso   1.00
C29    C     0.70500   0.78030   0.71149   0.01267  Uiso   1.00
C30    C     0.65600   0.80600   0.73012   0.01267  Uiso   1.00
C31    C     0.64290   0.76950   0.75660   0.01267  Uiso   1.00
C32    C     0.67870   0.70910   0.76475   0.01267  Uiso   1.00
C33    C     0.66340   0.68050   0.79070   0.01267  Uiso   1.00
C34    C     0.61450   0.71360   0.80700   0.01267  Uiso   1.00
C35    C     0.57830   0.77310   0.79703   0.01267  Uiso   1.00
C36    C     0.59660   0.68600   0.83484   0.01267  Uiso   1.00
C37    C     0.45090   0.69300   0.67068   0.01267  Uiso   1.00
C38    C     0.48360   0.77620   0.70933   0.01267  Uiso   1.00
C39    C     0.44210   0.71930   0.69939   0.01267  Uiso   1.00
C40    C     0.39260   0.68890   0.71636   0.01267  Uiso   1.00
C41    C     0.38290   0.71740   0.74249   0.01267  Uiso   1.00
C42    C     0.42390   0.77450   0.75035   0.01267  Uiso   1.00
C43    C     0.41040   0.81400   0.77630   0.01267  Uiso   1.00
C44    C     0.35910   0.79240   0.79502   0.01267  Uiso   1.00
C45    C     0.34360   0.83670   0.81687   0.01267  Uiso   1.00
C46    C     0.38060   0.89960   0.81985   0.01267  Uiso   1.00
C47    C     0.43570   0.91570   0.80127   0.01267  Uiso   1.00
C48    C     0.35930   0.95190   0.84233   0.01267  Uiso   1.00
C49    C     0.38810   0.01150   0.67008   0.01267  Uiso   1.00
C50    C     0.45340   0.96320   0.71064   0.01267  Uiso   1.00
C51    C     0.43330   0.02160   0.69536   0.01267  Uiso   1.00
C52    C     0.45770   0.08840   0.70375   0.01267  Uiso   1.00
C53    C     0.49770   0.09440   0.72696   0.01267  Uiso   1.00
C54    C     0.51560   0.03280   0.74106   0.01267  Uiso   1.00
C55    C     0.55950   0.03260   0.76644   0.01267  Uiso   1.00
C56    C     0.57790   0.09450   0.78088   0.01267  Uiso   1.00
C57    C     0.61880   0.08790   0.80356   0.01267  Uiso   1.00
C58    C     0.64360   0.02230   0.81191   0.01267  Uiso   1.00
C59    C     0.62290   0.96310   0.79702   0.01267  Uiso   1.00
C60    C     0.69210   0.01410   0.83650   0.01267  Uiso   1.00
C61    C     0.77700   0.90360   0.91135   0.01267  Uiso   1.00
C62    C     0.82220   0.83020   0.95112   0.01267  Uiso   1.00
C63    C     0.76400   0.85830   0.93596   0.01267  Uiso   1.00
C64    C     0.69520   0.84490   0.94490   0.01267  Uiso   1.00
C65    C     0.68590   0.80250   0.96787   0.01267  Uiso   1.00
C66    C     0.74410   0.77610   0.98161   0.01267  Uiso   1.00
C67    C     0.74070   0.72790   0.00520   0.01267  Uiso   1.00
C68    C     0.67660   0.70610   0.01670   0.01267  Uiso   1.00
C69    C     0.67910   0.65980   0.03880   0.01267  Uiso   1.00
C70    C     0.74220   0.63780   0.04810   0.01267  Uiso   1.00
C71    C     0.80690   0.66220   0.03670   0.01267  Uiso   1.00
C72    C     0.74070   0.58830   0.07350   0.01267  Uiso   1.00
C73    C     0.34680   0.94560   0.91808   0.01267  Uiso   1.00
C74    C     0.37230   0.85710   0.95534   0.01267  Uiso   1.00
C75    C     0.39360   0.91840   0.94119   0.01267  Uiso   1.00
C76    C     0.45660   0.95240   0.94855   0.01267  Uiso   1.00
C77    C     0.49250   0.92810   0.97136   0.01267  Uiso   1.00
C78    C     0.46830   0.87100   0.98544   0.01267  Uiso   1.00
C79    C     0.50020   0.84500   0.01136   0.01267  Uiso   1.00
C80    C     0.56090   0.87350   0.02294   0.01267  Uiso   1.00
C81    C     0.58420   0.84860   0.04756   0.01267  Uiso   1.00
C82    C     0.54830   0.79260   0.05983   0.01267  Uiso   1.00
C83    C     0.48880   0.76530   0.04694   0.01267  Uiso   1.00
C84    C     0.57340   0.75820   0.08600   0.01267  Uiso   1.00
C85    C     0.21200   0.08060   0.91669   0.01267  Uiso   1.00
C86    C     0.16540   0.15040   0.95765   0.01267  Uiso   1.00
C87    C     0.15710   0.09630   0.93838   0.01267  Uiso   1.00
C88    C     0.09400   0.05560   0.94002   0.01267  Uiso   1.00
C89    C     0.04630   0.06750   0.96107   0.01267  Uiso   1.00
C90    C     0.05970   0.12000   0.98012   0.01267  Uiso   1.00
C91    C     0.01280   0.13540   0.00323   0.01267  Uiso   1.00
C92    C     0.95210   0.09660   0.00964   0.01267  Uiso   1.00
C93    C     0.91490   0.11170   0.03337   0.01267  Uiso   1.00
C94    C     0.93740   0.16710   0.05010   0.01267  Uiso   1.00
C95    C     0.99710   0.20700   0.04140   0.01267  Uiso   1.00
C96    C     0.89910   0.18490   0.07642   0.01267  Uiso   1.00
C97    C     0.20470   0.06850   0.83901   0.01267  Uiso   1.00
C98    C     0.13370   0.09370   0.79570   0.01267  Uiso   1.00
C99    C     0.18510   0.11410   0.81528   0.01267  Uiso   1.00
C100   C     0.21940   0.17980   0.81122   0.01267  Uiso   1.00
C101   C     0.20500   0.21970   0.78851   0.01267  Uiso   1.00
C102   C     0.15600   0.19400   0.76988   0.01267  Uiso   1.00
C103   C     0.14290   0.23050   0.74340   0.01267  Uiso   1.00
C104   C     0.17870   0.29090   0.73525   0.01267  Uiso   1.00
C105   C     0.16340   0.31950   0.70930   0.01267  Uiso   1.00
C106   C     0.11450   0.28640   0.69300   0.01267  Uiso   1.00
C107   C     0.07830   0.22690   0.70297   0.01267  Uiso   1.00
C108   C     0.09660   0.31400   0.66516   0.01267  Uiso   1.00
C109   C     0.95090   0.30700   0.82932   0.01267  Uiso   1.00
C110   C     0.98360   0.22380   0.79067   0.01267  Uiso   1.00
C111   C     0.94210   0.28070   0.80061   0.01267  Uiso   1.00
C112   C     0.89260   0.31110   0.78364   0.01267  Uiso   1.00
C113   C     0.88290   0.28260   0.75751   0.01267  Uiso   1.00
C114   C     0.92390   0.22550   0.74965   0.01267  Uiso   1.00
C115   C     0.91040   0.18600   0.72370   0.01267  Uiso   1.00
C116   C     0.85910   0.20760   0.70498   0.01267  Uiso   1.00
C117   C     0.84360   0.16330   0.68313   0.01267  Uiso   1.00
C118   C     0.88060   0.10040   0.68015   0.01267  Uiso   1.00
C119   C     0.93570   0.08430   0.69873   0.01267  Uiso   1.00
C120   C     0.85930   0.04810   0.65767   0.01267  Uiso   1.00
C121   C     0.88810   0.98850   0.82992   0.01267  Uiso   1.00
C122   C     0.95340   0.03680   0.78936   0.01267  Uiso   1.00
C123   C     0.93330   0.97840   0.80464   0.01267  Uiso   1.00
C124   C     0.95770   0.91160   0.79625   0.01267  Uiso   1.00
C125   C     0.99770   0.90560   0.77304   0.01267  Uiso   1.00
C126   C     0.01560   0.96720   0.75894   0.01267  Uiso   1.00
C127   C     0.05950   0.96740   0.73356   0.01267  Uiso   1.00
C128   C     0.07790   0.90550   0.71912   0.01267  Uiso   1.00
C129   C     0.11880   0.91210   0.69644   0.01267  Uiso   1.00
C130   C     0.14360   0.97770   0.68809   0.01267  Uiso   1.00
C131   C     0.12290   0.03690   0.70298   0.01267  Uiso   1.00
C132   C     0.19210   0.98590   0.66350   0.01267  Uiso   1.00
C133   C     0.27700   0.09640   0.58865   0.01267  Uiso   1.00
C134   C     0.32220   0.16980   0.54888   0.01267  Uiso   1.00
C135   C     0.26400   0.14170   0.56404   0.01267  Uiso   1.00
C136   C     0.19520   0.15510   0.55510   0.01267  Uiso   1.00
C137   C     0.18590   0.19750   0.53213   0.01267  Uiso   1.00
C138   C     0.24410   0.22390   0.51839   0.01267  Uiso   1.00
C139   C     0.24070   0.27210   0.49480   0.01267  Uiso   1.00
C140   C     0.17660   0.29390   0.48330   0.01267  Uiso   1.00
C141   C     0.17910   0.34020   0.46120   0.01267  Uiso   1.00
C142   C     0.24220   0.36220   0.45190   0.01267  Uiso   1.00
C143   C     0.30690   0.33780   0.46330   0.01267  Uiso   1.00
C144   C     0.24070   0.41170   0.42650   0.01267  Uiso   1.00
C145   C     0.65320   0.55440   0.41808   0.01267  Uiso   1.00
C146   C     0.62770   0.64290   0.45534   0.01267  Uiso   1.00
C147   C     0.60640   0.58160   0.44119   0.01267  Uiso   1.00
C148   C     0.54340   0.54760   0.44855   0.01267  Uiso   1.00
C149   C     0.50750   0.57190   0.47136   0.01267  Uiso   1.00
C150   C     0.53170   0.62900   0.48544   0.01267  Uiso   1.00
C151   C     0.49980   0.65500   0.51136   0.01267  Uiso   1.00
C152   C     0.43910   0.62650   0.52294   0.01267  Uiso   1.00
C153   C     0.41580   0.65140   0.54756   0.01267  Uiso   1.00
C154   C     0.45170   0.70740   0.55983   0.01267  Uiso   1.00
C155   C     0.51120   0.73470   0.54694   0.01267  Uiso   1.00
C156   C     0.42660   0.74180   0.58600   0.01267  Uiso   1.00
C157   C     0.78800   0.41940   0.41669   0.01267  Uiso   1.00
C158   C     0.83460   0.34960   0.45765   0.01267  Uiso   1.00
C159   C     0.84290   0.40370   0.43838   0.01267  Uiso   1.00
C160   C     0.90600   0.44440   0.44002   0.01267  Uiso   1.00
C161   C     0.95370   0.43250   0.46107   0.01267  Uiso   1.00
C162   C     0.94030   0.38000   0.48012   0.01267  Uiso   1.00
C163   C     0.98720   0.36460   0.50323   0.01267  Uiso   1.00
C164   C     0.04790   0.40340   0.50964   0.01267  Uiso   1.00
C165   C     0.08510   0.38830   0.53337   0.01267  Uiso   1.00
C166   C     0.06260   0.33290   0.55010   0.01267  Uiso   1.00
C167   C     0.00290   0.29300   0.54140   0.01267  Uiso   1.00
C168   C     0.10090   0.31510   0.57642   0.01267  Uiso   1.00
C169   C     0.79530   0.43150   0.33901   0.01267  Uiso   1.00
C170   C     0.86630   0.40630   0.29570   0.01267  Uiso   1.00
C171   C     0.81490   0.38590   0.31528   0.01267  Uiso   1.00
C172   C     0.78060   0.32020   0.31122   0.01267  Uiso   1.00
C173   C     0.79500   0.28030   0.28851   0.01267  Uiso   1.00
C174   C     0.84400   0.30600   0.26988   0.01267  Uiso   1.00
C175   C     0.85710   0.26950   0.24340   0.01267  Uiso   1.00
C176   C     0.82130   0.20910   0.23525   0.01267  Uiso   1.00
C177   C     0.83660   0.18050   0.20930   0.01267  Uiso   1.00
C178   C     0.88550   0.21360   0.19300   0.01267  Uiso   1.00
C179   C     0.92170   0.27310   0.20297   0.01267  Uiso   1.00
C180   C     0.90340   0.18600   0.16516   0.01267  Uiso   1.00
C181   C     0.04910   0.19300   0.32932   0.01267  Uiso   1.00
C182   C     0.01640   0.27620   0.29067   0.01267  Uiso   1.00
C183   C     0.05790   0.21930   0.30061   0.01267  Uiso   1.00
C184   C     0.10740   0.18890   0.28364   0.01267  Uiso   1.00
C185   C     0.11710   0.21740   0.25751   0.01267  Uiso   1.00
C186   C     0.07610   0.27450   0.24965   0.01267  Uiso   1.00
C187   C     0.08960   0.31400   0.22370   0.01267  Uiso   1.00
C188   C     0.14090   0.29240   0.20498   0.01267  Uiso   1.00
C189   C     0.15640   0.33670   0.18313   0.01267  Uiso   1.00
C190   C     0.11940   0.39960   0.18015   0.01267  Uiso   1.00
C191   C     0.06430   0.41570   0.19873   0.01267  Uiso   1.00
C192   C     0.14070   0.45190   0.15767   0.01267  Uiso   1.00
C193   C     0.11190   0.51150   0.32992   0.01267  Uiso   1.00
C194   C     0.04660   0.46320   0.28936   0.01267  Uiso   1.00
C195   C     0.06670   0.52160   0.30464   0.01267  Uiso   1.00
C196   C     0.04230   0.58840   0.29625   0.01267  Uiso   1.00
C197   C     0.00230   0.59440   0.27304   0.01267  Uiso   1.00
C198   C     0.98440   0.53280   0.25894   0.01267  Uiso   1.00
C199   C     0.94050   0.53260   0.23356   0.01267  Uiso   1.00
C200   C     0.92210   0.59450   0.21912   0.01267  Uiso   1.00
C201   C     0.88120   0.58790   0.19644   0.01267  Uiso   1.00
C202   C     0.85640   0.52230   0.18809   0.01267  Uiso   1.00
C203   C     0.87710   0.46310   0.20298   0.01267  Uiso   1.00
C204   C     0.80790   0.51410   0.16350   0.01267  Uiso   1.00
C205   C     0.72300   0.40360   0.08865   0.01267  Uiso   1.00
C206   C     0.67780   0.33020   0.04888   0.01267  Uiso   1.00
C207   C     0.73600   0.35830   0.06404   0.01267  Uiso   1.00
C208   C     0.80480   0.34490   0.05510   0.01267  Uiso   1.00
C209   C     0.81410   0.30250   0.03213   0.01267  Uiso   1.00
C210   C     0.75590   0.27610   0.01839   0.01267  Uiso   1.00
C211   C     0.75930   0.22790   0.99480   0.01267  Uiso   1.00
C212   C     0.82340   0.20610   0.98330   0.01267  Uiso   1.00
C213   C     0.82090   0.15980   0.96120   0.01267  Uiso   1.00
C214   C     0.75780   0.13780   0.95190   0.01267  Uiso   1.00
C215   C     0.69310   0.16220   0.96330   0.01267  Uiso   1.00
C216   C     0.75930   0.08830   0.92650   0.01267  Uiso   1.00
C217   C     0.15320   0.44560   0.08192   0.01267  Uiso   1.00
C218   C     0.12770   0.35710   0.04466   0.01267  Uiso   1.00
C219   C     0.10640   0.41840   0.05881   0.01267  Uiso   1.00
C220   C     0.04340   0.45240   0.05145   0.01267  Uiso   1.00
C221   C     0.00750   0.42810   0.02864   0.01267  Uiso   1.00
C222   C     0.03170   0.37100   0.01456   0.01267  Uiso   1.00
C223   C     0.99980   0.34500   0.98864   0.01267  Uiso   1.00
C224   C     0.93910   0.37350   0.97706   0.01267  Uiso   1.00
C225   C     0.91580   0.34860   0.95244   0.01267  Uiso   1.00
C226   C     0.95170   0.29260   0.94017   0.01267  Uiso   1.00
C227   C     0.01120   0.26530   0.95306   0.01267  Uiso   1.00
C228   C     0.92660   0.25820   0.91400   0.01267  Uiso   1.00
C229   C     0.28800   0.58060   0.08331   0.01267  Uiso   1.00
C230   C     0.33460   0.65040   0.04235   0.01267  Uiso   1.00
C231   C     0.34290   0.59630   0.06162   0.01267  Uiso   1.00
C232   C     0.40600   0.55560   0.05998   0.01267  Uiso   1.00
C233   C     0.45370   0.56750   0.03893   0.01267  Uiso   1.00
C234   C     0.44030   0.62000   0.01988   0.01267  Uiso   1.00
C235   C     0.48720   0.63540   0.99677   0.01267  Uiso   1.00
C236   C     0.54790   0.59660   0.99036   0.01267  Uiso   1.00
C237   C     0.58510   0.61170   0.96663   0.01267  Uiso   1.00
C238   C     0.56260   0.66710   0.94990   0.01267  Uiso   1.00
C239   C     0.50290   0.70700   0.95860   0.01267  Uiso   1.00
C240   C     0.60090   0.68490   0.92358   0.01267  Uiso   1.00
C241   C     0.29530   0.56850   0.16099   0.01267  Uiso   1.00
C242   C     0.36630   0.59370   0.20430   0.01267  Uiso   1.00
C243   C     0.31490   0.61410   0.18472   0.01267  Uiso   1.00
C244   C     0.28060   0.67980   0.18878   0.01267  Uiso   1.00
C245   C     0.29500   0.71970   0.21149   0.01267  Uiso   1.00
C246   C     0.34400   0.69400   0.23012   0.01267  Uiso   1.00
C247   C     0.35710   0.73050   0.25660   0.01267  Uiso   1.00
C248   C     0.32130   0.79090   0.26475   0.01267  Uiso   1.00
C249   C     0.33660   0.81950   0.29070   0.01267  Uiso   1.00
C250   C     0.38550   0.78640   0.30700   0.01267  Uiso   1.00
C251   C     0.42170   0.72690   0.29703   0.01267  Uiso   1.00
C252   C     0.40340   0.81400   0.33484   0.01267  Uiso   1.00
C253   C     0.54910   0.80700   0.17068   0.01267  Uiso   1.00
C254   C     0.51640   0.72380   0.20933   0.01267  Uiso   1.00
C255   C     0.55790   0.78070   0.19939   0.01267  Uiso   1.00
C256   C     0.60740   0.81110   0.21636   0.01267  Uiso   1.00
C257   C     0.61710   0.78260   0.24249   0.01267  Uiso   1.00
C258   C     0.57610   0.72550   0.25035   0.01267  Uiso   1.00
C259   C     0.58960   0.68600   0.27630   0.01267  Uiso   1.00
C260   C     0.64090   0.70760   0.29502   0.01267  Uiso   1.00
C261   C     0.65640   0.66330   0.31687   0.01267  Uiso   1.00
C262   C     0.61940   0.60040   0.31985   0.01267  Uiso   1.00
C263   C     0.56430   0.58430   0.30127   0.01267  Uiso   1.00
C264   C     0.64070   0.54810   0.34233   0.01267  Uiso   1.00
C265   C     0.61190   0.48850   0.17008   0.01267  Uiso   1.00
C266   C     0.54660   0.53680   0.21064   0.01267  Uiso   1.00
C267   C     0.56670   0.47840   0.19536   0.01267  Uiso   1.00
C268   C     0.54230   0.41160   0.20375   0.01267  Uiso   1.00
C269   C     0.50230   0.40560   0.22696   0.01267  Uiso   1.00
C270   C     0.48440   0.46720   0.24106   0.01267  Uiso   1.00
C271   C     0.44050   0.46740   0.26644   0.01267  Uiso   1.00
C272   C     0.42210   0.40550   0.28088   0.01267  Uiso   1.00
C273   C     0.38120   0.41210   0.30356   0.01267  Uiso   1.00
C274   C     0.35640   0.47770   0.31191   0.01267  Uiso   1.00
C275   C     0.37710   0.53690   0.29702   0.01267  Uiso   1.00
C276   C     0.30790   0.48590   0.33650   0.01267  Uiso   1.00
C277   C     0.22300   0.59640   0.41135   0.01267  Uiso   1.00
C278   C     0.17780   0.66980   0.45112   0.01267  Uiso   1.00
C279   C     0.23600   0.64170   0.43596   0.01267  Uiso   1.00
C280   C     0.30480   0.65510   0.44490   0.01267  Uiso   1.00
C281   C     0.31410   0.69750   0.46787   0.01267  Uiso   1.00
C282   C     0.25590   0.72390   0.48161   0.01267  Uiso   1.00
C283   C     0.25930   0.77210   0.50520   0.01267  Uiso   1.00
C284   C     0.32340   0.79390   0.51670   0.01267  Uiso   1.00
C285   C     0.32090   0.84020   0.53880   0.01267  Uiso   1.00
C286   C     0.25780   0.86220   0.54810   0.01267  Uiso   1.00
C287   C     0.19310   0.83780   0.53670   0.01267  Uiso   1.00
C288   C     0.25930   0.91170   0.57350   0.01267  Uiso   1.00
C289   C     0.15320   0.94560   0.41808   0.01267  Uiso   1.00
C290   C     0.12770   0.85710   0.45534   0.01267  Uiso   1.00
C291   C     0.10640   0.91840   0.44119   0.01267  Uiso   1.00
C292   C     0.04340   0.95240   0.44855   0.01267  Uiso   1.00
C293   C     0.00750   0.92810   0.47136   0.01267  Uiso   1.00
C294   C     0.03170   0.87100   0.48544   0.01267  Uiso   1.00
C295   C     0.99980   0.84500   0.51136   0.01267  Uiso   1.00
C296   C     0.93910   0.87350   0.52294   0.01267  Uiso   1.00
C297   C     0.91580   0.84860   0.54756   0.01267  Uiso   1.00
C298   C     0.95170   0.79260   0.55983   0.01267  Uiso   1.00
C299   C     0.01120   0.76530   0.54694   0.01267  Uiso   1.00
C300   C     0.92660   0.75820   0.58600   0.01267  Uiso   1.00
C301   C     0.28800   0.08060   0.41669   0.01267  Uiso   1.00
C302   C     0.33460   0.15040   0.45765   0.01267  Uiso   1.00
C303   C     0.34290   0.09630   0.43838   0.01267  Uiso   1.00
C304   C     0.40600   0.05560   0.44002   0.01267  Uiso   1.00
C305   C     0.45370   0.06750   0.46107   0.01267  Uiso   1.00
C306   C     0.44030   0.12000   0.48012   0.01267  Uiso   1.00
C307   C     0.48720   0.13540   0.50323   0.01267  Uiso   1.00
C308   C     0.54790   0.09660   0.50964   0.01267  Uiso   1.00
C309   C     0.58510   0.11170   0.53337   0.01267  Uiso   1.00
C310   C     0.56260   0.16710   0.55010   0.01267  Uiso   1.00
C311   C     0.50290   0.20700   0.54140   0.01267  Uiso   1.00
C312   C     0.60090   0.18490   0.57642   0.01267  Uiso   1.00
C313   C     0.29530   0.06850   0.33901   0.01267  Uiso   1.00
C314   C     0.36630   0.09370   0.29570   0.01267  Uiso   1.00
C315   C     0.31490   0.11410   0.31528   0.01267  Uiso   1.00
C316   C     0.28060   0.17980   0.31122   0.01267  Uiso   1.00
C317   C     0.29500   0.21970   0.28851   0.01267  Uiso   1.00
C318   C     0.34400   0.19400   0.26988   0.01267  Uiso   1.00
C319   C     0.35710   0.23050   0.24340   0.01267  Uiso   1.00
C320   C     0.32130   0.29090   0.23525   0.01267  Uiso   1.00
C321   C     0.33660   0.31950   0.20930   0.01267  Uiso   1.00
C322   C     0.38550   0.28640   0.19300   0.01267  Uiso   1.00
C323   C     0.42170   0.22690   0.20297   0.01267  Uiso   1.00
C324   C     0.40340   0.31400   0.16516   0.01267  Uiso   1.00
C325   C     0.54910   0.30700   0.32932   0.01267  Uiso   1.00
C326   C     0.51640   0.22380   0.29067   0.01267  Uiso   1.00
C327   C     0.55790   0.28070   0.30061   0.01267  Uiso   1.00
C328   C     0.60740   0.31110   0.28364   0.01267  Uiso   1.00
C329   C     0.61710   0.28260   0.25751   0.01267  Uiso   1.00
C330   C     0.57610   0.22550   0.24965   0.01267  Uiso   1.00
C331   C     0.58960   0.18600   0.22370   0.01267  Uiso   1.00
C332   C     0.64090   0.20760   0.20498   0.01267  Uiso   1.00
C333   C     0.65640   0.16330   0.18313   0.01267  Uiso   1.00
C334   C     0.61940   0.10040   0.18015   0.01267  Uiso   1.00
C335   C     0.56430   0.08430   0.19873   0.01267  Uiso   1.00
C336   C     0.64070   0.04810   0.15767   0.01267  Uiso   1.00
C337   C     0.61190   0.98850   0.32992   0.01267  Uiso   1.00
C338   C     0.54660   0.03680   0.28936   0.01267  Uiso   1.00
C339   C     0.56670   0.97840   0.30464   0.01267  Uiso   1.00
C340   C     0.54230   0.91160   0.29625   0.01267  Uiso   1.00
C341   C     0.50230   0.90560   0.27304   0.01267  Uiso   1.00
C342   C     0.48440   0.96720   0.25894   0.01267  Uiso   1.00
C343   C     0.44050   0.96740   0.23356   0.01267  Uiso   1.00
C344   C     0.42210   0.90550   0.21912   0.01267  Uiso   1.00
C345   C     0.38120   0.91210   0.19644   0.01267  Uiso   1.00
C346   C     0.35640   0.97770   0.18809   0.01267  Uiso   1.00
C347   C     0.37710   0.03690   0.20298   0.01267  Uiso   1.00
C348   C     0.30790   0.98590   0.16350   0.01267  Uiso   1.00
C349   C     0.22300   0.09640   0.08865   0.01267  Uiso   1.00
C350   C     0.17780   0.16980   0.04888   0.01267  Uiso   1.00
C351   C     0.23600   0.14170   0.06404   0.01267  Uiso   1.00
C352   C     0.30480   0.15510   0.05510   0.01267  Uiso   1.00
C353   C     0.31410   0.19750   0.03213   0.01267  Uiso   1.00
C354   C     0.25590   0.22390   0.01839   0.01267  Uiso   1.00
C355   C     0.25930   0.27210   0.99480   0.01267  Uiso   1.00
C356   C     0.32340   0.29390   0.98330   0.01267  Uiso   1.00
C357   C     0.32090   0.34020   0.96120   0.01267  Uiso   1.00
C358   C     0.25780   0.36220   0.95190   0.01267  Uiso   1.00
C359   C     0.19310   0.33780   0.96330   0.01267  Uiso   1.00
C360   C     0.25930   0.41170   0.92650   0.01267  Uiso   1.00
C361   C     0.65320   0.05440   0.08192   0.01267  Uiso   1.00
C362   C     0.62770   0.14290   0.04466   0.01267  Uiso   1.00
C363   C     0.60640   0.08160   0.05881   0.01267  Uiso   1.00
C364   C     0.54340   0.04760   0.05145   0.01267  Uiso   1.00
C365   C     0.50750   0.07190   0.02864   0.01267  Uiso   1.00
C366   C     0.53170   0.12900   0.01456   0.01267  Uiso   1.00
C367   C     0.49980   0.15500   0.98864   0.01267  Uiso   1.00
C368   C     0.43910   0.12650   0.97706   0.01267  Uiso   1.00
C369   C     0.41580   0.15140   0.95244   0.01267  Uiso   1.00
C370   C     0.45170   0.20740   0.94017   0.01267  Uiso   1.00
C371   C     0.51120   0.23470   0.95306   0.01267  Uiso   1.00
C372   C     0.42660   0.24180   0.91400   0.01267  Uiso   1.00
C373   C     0.78800   0.91940   0.08331   0.01267  Uiso   1.00
C374   C     0.83460   0.84960   0.04235   0.01267  Uiso   1.00
C375   C     0.84290   0.90370   0.06162   0.01267  Uiso   1.00
C376   C     0.90600   0.94440   0.05998   0.01267  Uiso   1.00
C377   C     0.95370   0.93250   0.03893   0.01267  Uiso   1.00
C378   C     0.94030   0.88000   0.01988   0.01267  Uiso   1.00
C379   C     0.98720   0.86460   0.99677   0.01267  Uiso   1.00
C380   C     0.04790   0.90340   0.99036   0.01267  Uiso   1.00
C381   C     0.08510   0.88830   0.96663   0.01267  Uiso   1.00
C382   C     0.06260   0.83290   0.94990   0.01267  Uiso   1.00
C383   C     0.00290   0.79300   0.95860   0.01267  Uiso   1.00
C384   C     0.10090   0.81510   0.92358   0.01267  Uiso   1.00
C385   C     0.79530   0.93150   0.16099   0.01267  Uiso   1.00
C386   C     0.86630   0.90630   0.20430   0.01267  Uiso   1.00
C387   C     0.81490   0.88590   0.18472   0.01267  Uiso   1.00
C388   C     0.78060   0.82020   0.18878   0.01267  Uiso   1.00
C389   C     0.79500   0.78030   0.21149   0.01267  Uiso   1.00
C390   C     0.84400   0.80600   0.23012   0.01267  Uiso   1.00
C391   C     0.85710   0.76950   0.25660   0.01267  Uiso   1.00
C392   C     0.82130   0.70910   0.26475   0.01267  Uiso   1.00
C393   C     0.83660   0.68050   0.29070   0.01267  Uiso   1.00
C394   C     0.88550   0.71360   0.30700   0.01267  Uiso   1.00
C395   C     0.92170   0.77310   0.29703   0.01267  Uiso   1.00
C396   C     0.90340   0.68600   0.33484   0.01267  Uiso   1.00
C397   C     0.04910   0.69300   0.17068   0.01267  Uiso   1.00
C398   C     0.01640   0.77620   0.20933   0.01267  Uiso   1.00
C399   C     0.05790   0.71930   0.19939   0.01267  Uiso   1.00
C400   C     0.10740   0.68890   0.21636   0.01267  Uiso   1.00
C401   C     0.11710   0.71740   0.24249   0.01267  Uiso   1.00
C402   C     0.07610   0.77450   0.25035   0.01267  Uiso   1.00
C403   C     0.08960   0.81400   0.27630   0.01267  Uiso   1.00
C404   C     0.14090   0.79240   0.29502   0.01267  Uiso   1.00
C405   C     0.15640   0.83670   0.31687   0.01267  Uiso   1.00
C406   C     0.11940   0.89960   0.31985   0.01267  Uiso   1.00
C407   C     0.06430   0.91570   0.30127   0.01267  Uiso   1.00
C408   C     0.14070   0.95190   0.34233   0.01267  Uiso   1.00
C409   C     0.11190   0.01150   0.17008   0.01267  Uiso   1.00
C410   C     0.04660   0.96320   0.21064   0.01267  Uiso   1.00
C411   C     0.06670   0.02160   0.19536   0.01267  Uiso   1.00
C412   C     0.04230   0.08840   0.20375   0.01267  Uiso   1.00
C413   C     0.00230   0.09440   0.22696   0.01267  Uiso   1.00
C414   C     0.98440   0.03280   0.24106   0.01267  Uiso   1.00
C415   C     0.94050   0.03260   0.26644   0.01267  Uiso   1.00
C416   C     0.92210   0.09450   0.28088   0.01267  Uiso   1.00
C417   C     0.88120   0.08790   0.30356   0.01267  Uiso   1.00
C418   C     0.85640   0.02230   0.31191   0.01267  Uiso   1.00
C419   C     0.87710   0.96310   0.29702   0.01267  Uiso   1.00
C420   C     0.80790   0.01410   0.33650   0.01267  Uiso   1.00
C421   C     0.72300   0.90360   0.41135   0.01267  Uiso   1.00
C422   C     0.67780   0.83020   0.45112   0.01267  Uiso   1.00
C423   C     0.73600   0.85830   0.43596   0.01267  Uiso   1.00
C424   C     0.80480   0.84490   0.44490   0.01267  Uiso   1.00
C425   C     0.81410   0.80250   0.46787   0.01267  Uiso   1.00
C426   C     0.75590   0.77610   0.48161   0.01267  Uiso   1.00
C427   C     0.75930   0.72790   0.50520   0.01267  Uiso   1.00
C428   C     0.82340   0.70610   0.51670   0.01267  Uiso   1.00
C429   C     0.82090   0.65980   0.53880   0.01267  Uiso   1.00
C430   C     0.75780   0.63780   0.54810   0.01267  Uiso   1.00
C431   C     0.69310   0.66220   0.53670   0.01267  Uiso   1.00
C432   C     0.75930   0.58830   0.57350   0.01267  Uiso   1.00
C433   C     0.34680   0.44560   0.58192   0.01267  Uiso   1.00
C434   C     0.37230   0.35710   0.54466   0.01267  Uiso   1.00
C435   C     0.39360   0.41840   0.55881   0.01267  Uiso   1.00
C436   C     0.45660   0.45240   0.55145   0.01267  Uiso   1.00
C437   C     0.49250   0.42810   0.52864   0.01267  Uiso   1.00
C438   C     0.46830   0.37100   0.51456   0.01267  Uiso   1.00
C439   C     0.50020   0.34500   0.48864   0.01267  Uiso   1.00
C440   C     0.56090   0.37350   0.47706   0.01267  Uiso   1.00
C441   C     0.58420   0.34860   0.45244   0.01267  Uiso   1.00
C442   C     0.54830   0.29260   0.44017   0.01267  Uiso   1.00
C443   C     0.48880   0.26530   0.45306   0.01267  Uiso   1.00
C444   C     0.57340   0.25820   0.41400   0.01267  Uiso   1.00
C445   C     0.21200   0.58060   0.58331   0.01267  Uiso   1.00
C446   C     0.16540   0.65040   0.54235   0.01267  Uiso   1.00
C447   C     0.15710   0.59630   0.56162   0.01267  Uiso   1.00
C448   C     0.09400   0.55560   0.55998   0.01267  Uiso   1.00
C449   C     0.04630   0.56750   0.53893   0.01267  Uiso   1.00
C450   C     0.05970   0.62000   0.51988   0.01267  Uiso   1.00
C451   C     0.01280   0.63540   0.49677   0.01267  Uiso   1.00
C452   C     0.95210   0.59660   0.49036   0.01267  Uiso   1.00
C453   C     0.91490   0.61170   0.46663   0.01267  Uiso   1.00
C454   C     0.93740   0.66710   0.44990   0.01267  Uiso   1.00
C455   C     0.99710   0.70700   0.45860   0.01267  Uiso   1.00
C456   C     0.89910   0.68490   0.42358   0.01267  Uiso   1.00
C457   C     0.20470   0.56850   0.66099   0.01267  Uiso   1.00
C458   C     0.13370   0.59370   0.70430   0.01267  Uiso   1.00
C459   C     0.18510   0.61410   0.68472   0.01267  Uiso   1.00
C460   C     0.21940   0.67980   0.68878   0.01267  Uiso   1.00
C461   C     0.20500   0.71970   0.71149   0.01267  Uiso   1.00
C462   C     0.15600   0.69400   0.73012   0.01267  Uiso   1.00
C463   C     0.14290   0.73050   0.75660   0.01267  Uiso   1.00
C464   C     0.17870   0.79090   0.76475   0.01267  Uiso   1.00
C465   C     0.16340   0.81950   0.79070   0.01267  Uiso   1.00
C466   C     0.11450   0.78640   0.80700   0.01267  Uiso   1.00
C467   C     0.07830   0.72690   0.79703   0.01267  Uiso   1.00
C468   C     0.09660   0.81400   0.83484   0.01267  Uiso   1.00
C469   C     0.95090   0.80700   0.67068   0.01267  Uiso   1.00
C470   C     0.98360   0.72380   0.70933   0.01267  Uiso   1.00
C471   C     0.94210   0.78070   0.69939   0.01267  Uiso   1.00
C472   C     0.89260   0.81110   0.71636   0.01267  Uiso   1.00
C473   C     0.88290   0.78260   0.74249   0.01267  Uiso   1.00
C474   C     0.92390   0.72550   0.75035   0.01267  Uiso   1.00
C475   C     0.91040   0.68600   0.77630   0.01267  Uiso   1.00
C476   C     0.85910   0.70760   0.79502   0.01267  Uiso   1.00
C477   C     0.84360   0.66330   0.81687   0.01267  Uiso   1.00
C478   C     0.88060   0.60040   0.81985   0.01267  Uiso   1.00
C479   C     0.93570   0.58430   0.80127   0.01267  Uiso   1.00
C480   C     0.85930   0.54810   0.84233   0.01267  Uiso   1.00
C481   C     0.88810   0.48850   0.67008   0.01267  Uiso   1.00
C482   C     0.95340   0.53680   0.71064   0.01267  Uiso   1.00
C483   C     0.93330   0.47840   0.69536   0.01267  Uiso   1.00
C484   C     0.95770   0.41160   0.70375   0.01267  Uiso   1.00
C485   C     0.99770   0.40560   0.72696   0.01267  Uiso   1.00
C486   C     0.01560   0.46720   0.74106   0.01267  Uiso   1.00
C487   C     0.05950   0.46740   0.76644   0.01267  Uiso   1.00
C488   C     0.07790   0.40550   0.78088   0.01267  Uiso   1.00
C489   C     0.11880   0.41210   0.80356   0.01267  Uiso   1.00
C490   C     0.14360   0.47770   0.81191   0.01267  Uiso   1.00
C491   C     0.12290   0.53690   0.79702   0.01267  Uiso   1.00
C492   C     0.19210   0.48590   0.83650   0.01267  Uiso   1.00
C493   C     0.27700   0.59640   0.91135   0.01267  Uiso   1.00
C494   C     0.32220   0.66980   0.95112   0.01267  Uiso   1.00
C495   C     0.26400   0.64170   0.93596   0.01267  Uiso   1.00
C496   C     0.19520   0.65510   0.94490   0.01267  Uiso   1.00
C497   C     0.18590   0.69750   0.96787   0.01267  Uiso   1.00
C498   C     0.24410   0.72390   0.98161   0.01267  Uiso   1.00
C499   C     0.24070   0.77210   0.00520   0.01267  Uiso   1.00
C500   C     0.17660   0.79390   0.01670   0.01267  Uiso   1.00
C501   C     0.17910   0.84020   0.03880   0.01267  Uiso   1.00
C502   C     0.24220   0.86220   0.04810   0.01267  Uiso   1.00
C503   C     0.30690   0.83780   0.03670   0.01267  Uiso   1.00
C504   C     0.24070   0.91170   0.07350   0.01267  Uiso   1.00
C505   C     0.84680   0.55440   0.91808   0.01267  Uiso   1.00
C506   C     0.87230   0.64290   0.95534   0.01267  Uiso   1.00
C507   C     0.89360   0.58160   0.94119   0.01267  Uiso   1.00
C508   C     0.95660   0.54760   0.94855   0.01267  Uiso   1.00
C509   C     0.99250   0.57190   0.97136   0.01267  Uiso   1.00
C510   C     0.96830   0.62900   0.98544   0.01267  Uiso   1.00
C511   C     0.00020   0.65500   0.01136   0.01267  Uiso   1.00
C512   C     0.06090   0.62650   0.02294   0.01267  Uiso   1.00
C513   C     0.08420   0.65140   0.04756   0.01267  Uiso   1.00
C514   C     0.04830   0.70740   0.05983   0.01267  Uiso   1.00
C515   C     0.98880   0.73470   0.04694   0.01267  Uiso   1.00
C516   C     0.07340   0.74180   0.08600   0.01267  Uiso   1.00
C517   C     0.71200   0.41940   0.91669   0.01267  Uiso   1.00
C518   C     0.66540   0.34960   0.95765   0.01267  Uiso   1.00
C519   C     0.65710   0.40370   0.93838   0.01267  Uiso   1.00
C520   C     0.59400   0.44440   0.94002   0.01267  Uiso   1.00
C521   C     0.54630   0.43250   0.96107   0.01267  Uiso   1.00
C522   C     0.55970   0.38000   0.98012   0.01267  Uiso   1.00
C523   C     0.51280   0.36460   0.00323   0.01267  Uiso   1.00
C524   C     0.45210   0.40340   0.00964   0.01267  Uiso   1.00
C525   C     0.41490   0.38830   0.03337   0.01267  Uiso   1.00
C526   C     0.43740   0.33290   0.05010   0.01267  Uiso   1.00
C527   C     0.49710   0.29300   0.04140   0.01267  Uiso   1.00
C528   C     0.39910   0.31510   0.07642   0.01267  Uiso   1.00
C529   C     0.70470   0.43150   0.83901   0.01267  Uiso   1.00
C530   C     0.63370   0.40630   0.79570   0.01267  Uiso   1.00
C531   C     0.68510   0.38590   0.81528   0.01267  Uiso   1.00
C532   C     0.71940   0.32020   0.81122   0.01267  Uiso   1.00
C533   C     0.70500   0.28030   0.78851   0.01267  Uiso   1.00
C534   C     0.65600   0.30600   0.76988   0.01267  Uiso   1.00
C535   C     0.64290   0.26950   0.74340   0.01267  Uiso   1.00
C536   C     0.67870   0.20910   0.73525   0.01267  Uiso   1.00
C537   C     0.66340   0.18050   0.70930   0.01267  Uiso   1.00
C538   C     0.61450   0.21360   0.69300   0.01267  Uiso   1.00
C539   C     0.57830   0.27310   0.70297   0.01267  Uiso   1.00
C540   C     0.59660   0.18600   0.66516   0.01267  Uiso   1.00
C541   C     0.45090   0.19300   0.82932   0.01267  Uiso   1.00
C542   C     0.48360   0.27620   0.79067   0.01267  Uiso   1.00
C543   C     0.44210   0.21930   0.80061   0.01267  Uiso   1.00
C544   C     0.39260   0.18890   0.78364   0.01267  Uiso   1.00
C545   C     0.38290   0.21740   0.75751   0.01267  Uiso   1.00
C546   C     0.42390   0.27450   0.74965   0.01267  Uiso   1.00
C547   C     0.41040   0.31400   0.72370   0.01267  Uiso   1.00
C548   C     0.35910   0.29240   0.70498   0.01267  Uiso   1.00
C549   C     0.34360   0.33670   0.68313   0.01267  Uiso   1.00
C550   C     0.38060   0.39960   0.68015   0.01267  Uiso   1.00
C551   C     0.43570   0.41570   0.69873   0.01267  Uiso   1.00
C552   C     0.35930   0.45190   0.65767   0.01267  Uiso   1.00
C553   C     0.38810   0.51150   0.82992   0.01267  Uiso   1.00
C554   C     0.45340   0.46320   0.78936   0.01267  Uiso   1.00
C555   C     0.43330   0.52160   0.80464   0.01267  Uiso   1.00
C556   C     0.45770   0.58840   0.79625   0.01267  Uiso   1.00
C557   C     0.49770   0.59440   0.77304   0.01267  Uiso   1.00
C558   C     0.51560   0.53280   0.75894   0.01267  Uiso   1.00
C559   C     0.55950   0.53260   0.73356   0.01267  Uiso   1.00
C560   C     0.57790   0.59450   0.71912   0.01267  Uiso   1.00
C561   C     0.61880   0.58790   0.69644   0.01267  Uiso   1.00
C562   C     0.64360   0.52230   0.68809   0.01267  Uiso   1.00
C563   C     0.62290   0.46310   0.70298   0.01267  Uiso   1.00
C564   C     0.69210   0.51410   0.66350   0.01267  Uiso   1.00
C565   C     0.77700   0.40360   0.58865   0.01267  Uiso   1.00
C566   C     0.82220   0.33020   0.54888   0.01267  Uiso   1.00
C567   C     0.76400   0.35830   0.56404   0.01267  Uiso   1.00
C568   C     0.69520   0.34490   0.55510   0.01267  Uiso   1.00
C569   C     0.68590   0.30250   0.53213   0.01267  Uiso   1.00
C570   C     0.74410   0.27610   0.51839   0.01267  Uiso   1.00
C571   C     0.74070   0.22790   0.49480   0.01267  Uiso   1.00
C572   C     0.67660   0.20610   0.48330   0.01267  Uiso   1.00
C573   C     0.67910   0.15980   0.46120   0.01267  Uiso   1.00
C574   C     0.74220   0.13780   0.45190   0.01267  Uiso   1.00
C575   C     0.80690   0.16220   0.46330   0.01267  Uiso   1.00
C576   C     0.74070   0.08830   0.42650   0.01267  Uiso   1.00
N1     N     0.96390   0.21050   0.47734   0.01267  Uiso   1.00
N2     N     0.90820   0.16590   0.52287   0.01267  Uiso   1.00
N3     N     0.53300   0.80800   0.48133   0.01267  Uiso   1.00
N4     N     0.61860   0.83720   0.52240   0.01267  Uiso   1.00
N5     N     0.61850   0.86780   0.72630   0.01267  Uiso   1.00
N6     N     0.59140   0.80150   0.77247   0.01267  Uiso   1.00
N7     N     0.47510   0.80370   0.73439   0.01267  Uiso   1.00
N8     N     0.45040   0.87420   0.78028   0.01267  Uiso   1.00
N9     N     0.49430   0.96730   0.73285   0.01267  Uiso   1.00
N10    N     0.58070   0.96600   0.77493   0.01267  Uiso   1.00
N11    N     0.81280   0.79080   0.97333   0.01267  Uiso   1.00
N12    N     0.80500   0.70830   0.01485   0.01267  Uiso   1.00
N13    N     0.46390   0.78950   0.02266   0.01267  Uiso   1.00
N14    N     0.40820   0.83410   0.97713   0.01267  Uiso   1.00
N15    N     0.03300   0.19200   0.01867   0.01267  Uiso   1.00
N16    N     0.11860   0.16280   0.97760   0.01267  Uiso   1.00
N17    N     0.11850   0.13220   0.77370   0.01267  Uiso   1.00
N18    N     0.09140   0.19850   0.72753   0.01267  Uiso   1.00
N19    N     0.97510   0.19630   0.76561   0.01267  Uiso   1.00
N20    N     0.95040   0.12580   0.71972   0.01267  Uiso   1.00
N21    N     0.99430   0.03270   0.76715   0.01267  Uiso   1.00
N22    N     0.08070   0.03400   0.72507   0.01267  Uiso   1.00
N23    N     0.31280   0.20920   0.52667   0.01267  Uiso   1.00
N24    N     0.30500   0.29170   0.48515   0.01267  Uiso   1.00
N25    N     0.53610   0.71050   0.52266   0.01267  Uiso   1.00
N26    N     0.59180   0.66590   0.47713   0.01267  Uiso   1.00
N27    N     0.96700   0.30800   0.51867   0.01267  Uiso   1.00
N28    N     0.88140   0.33720   0.47760   0.01267  Uiso   1.00
N29    N     0.88150   0.36780   0.27370   0.01267  Uiso   1.00
N30    N     0.90860   0.30150   0.22753   0.01267  Uiso   1.00
N31    N     0.02490   0.30370   0.26561   0.01267  Uiso   1.00
N32    N     0.04960   0.37420   0.21972   0.01267  Uiso   1.00
N33    N     0.00570   0.46730   0.26715   0.01267  Uiso   1.00
N34    N     0.91930   0.46600   0.22507   0.01267  Uiso   1.00
N35    N     0.68720   0.29080   0.02667   0.01267  Uiso   1.00
N36    N     0.69500   0.20830   0.98515   0.01267  Uiso   1.00
N37    N     0.03610   0.28950   0.97734   0.01267  Uiso   1.00
N38    N     0.09180   0.33410   0.02287   0.01267  Uiso   1.00
N39    N     0.46700   0.69200   0.98133   0.01267  Uiso   1.00
N40    N     0.38140   0.66280   0.02240   0.01267  Uiso   1.00
N41    N     0.38150   0.63220   0.22630   0.01267  Uiso   1.00
N42    N     0.40860   0.69850   0.27247   0.01267  Uiso   1.00
N43    N     0.52490   0.69630   0.23439   0.01267  Uiso   1.00
N44    N     0.54960   0.62580   0.28028   0.01267  Uiso   1.00
N45    N     0.50570   0.53270   0.23285   0.01267  Uiso   1.00
N46    N     0.41930   0.53400   0.27493   0.01267  Uiso   1.00
N47    N     0.18720   0.70920   0.47333   0.01267  Uiso   1.00
N48    N     0.19500   0.79170   0.51485   0.01267  Uiso   1.00
N49    N     0.03610   0.78950   0.52266   0.01267  Uiso   1.00
N50    N     0.09180   0.83410   0.47713   0.01267  Uiso   1.00
N51    N     0.46700   0.19200   0.51867   0.01267  Uiso   1.00
N52    N     0.38140   0.16280   0.47760   0.01267  Uiso   1.00
N53    N     0.38150   0.13220   0.27370   0.01267  Uiso   1.00
N54    N     0.40860   0.19850   0.22753   0.01267  Uiso   1.00
N55    N     0.52490   0.19630   0.26561   0.01267  Uiso   1.00
N56    N     0.54960   0.12580   0.21972   0.01267  Uiso   1.00
N57    N     0.50570   0.03270   0.26715   0.01267  Uiso   1.00
N58    N     0.41930   0.03400   0.22507   0.01267  Uiso   1.00
N59    N     0.18720   0.20920   0.02667   0.01267  Uiso   1.00
N60    N     0.19500   0.29170   0.98515   0.01267  Uiso   1.00
N61    N     0.53610   0.21050   0.97734   0.01267  Uiso   1.00
N62    N     0.59180   0.16590   0.02287   0.01267  Uiso   1.00
N63    N     0.96700   0.80800   0.98133   0.01267  Uiso   1.00
N64    N     0.88140   0.83720   0.02240   0.01267  Uiso   1.00
N65    N     0.88150   0.86780   0.22630   0.01267  Uiso   1.00
N66    N     0.90860   0.80150   0.27247   0.01267  Uiso   1.00
N67    N     0.02490   0.80370   0.23439   0.01267  Uiso   1.00
N68    N     0.04960   0.87420   0.28028   0.01267  Uiso   1.00
N69    N     0.00570   0.96730   0.23285   0.01267  Uiso   1.00
N70    N     0.91930   0.96600   0.27493   0.01267  Uiso   1.00
N71    N     0.68720   0.79080   0.47333   0.01267  Uiso   1.00
N72    N     0.69500   0.70830   0.51485   0.01267  Uiso   1.00
N73    N     0.46390   0.28950   0.47734   0.01267  Uiso   1.00
N74    N     0.40820   0.33410   0.52287   0.01267  Uiso   1.00
N75    N     0.03300   0.69200   0.48133   0.01267  Uiso   1.00
N76    N     0.11860   0.66280   0.52240   0.01267  Uiso   1.00
N77    N     0.11850   0.63220   0.72630   0.01267  Uiso   1.00
N78    N     0.09140   0.69850   0.77247   0.01267  Uiso   1.00
N79    N     0.97510   0.69630   0.73439   0.01267  Uiso   1.00
N80    N     0.95040   0.62580   0.78028   0.01267  Uiso   1.00
N81    N     0.99430   0.53270   0.73285   0.01267  Uiso   1.00
N82    N     0.08070   0.53400   0.77493   0.01267  Uiso   1.00
N83    N     0.31280   0.70920   0.97333   0.01267  Uiso   1.00
N84    N     0.30500   0.79170   0.01485   0.01267  Uiso   1.00
N85    N     0.96390   0.71050   0.02266   0.01267  Uiso   1.00
N86    N     0.90820   0.66590   0.97713   0.01267  Uiso   1.00
N87    N     0.53300   0.30800   0.01867   0.01267  Uiso   1.00
N88    N     0.61860   0.33720   0.97760   0.01267  Uiso   1.00
N89    N     0.61850   0.36780   0.77370   0.01267  Uiso   1.00
N90    N     0.59140   0.30150   0.72753   0.01267  Uiso   1.00
N91    N     0.47510   0.30370   0.76561   0.01267  Uiso   1.00
N92    N     0.45040   0.37420   0.71972   0.01267  Uiso   1.00
N93    N     0.49430   0.46730   0.76715   0.01267  Uiso   1.00
N94    N     0.58070   0.46600   0.72507   0.01267  Uiso   1.00
N95    N     0.81280   0.29080   0.52667   0.01267  Uiso   1.00
N96    N     0.80500   0.20830   0.48515   0.01267  Uiso   1.00
O1     O     0.79350   0.09060   0.58828   0.01267  Uiso   1.00
O2     O     0.86830   0.99690   0.59260   0.01267  Uiso   1.00
O3     O     0.05540   0.30400   0.40967   0.01267  Uiso   1.00
O4     O     0.11510   0.20460   0.39926   0.01267  Uiso   1.00
O5     O     0.70090   0.97490   0.59649   0.01267  Uiso   1.00
O6     O     0.76310   0.87690   0.58688   0.01267  Uiso   1.00
O7     O     0.40800   0.75500   0.41384   0.01267  Uiso   1.00
O8     O     0.67060   0.98790   0.65701   0.01267  Uiso   1.00
O9     O     0.64030   0.64290   0.84505   0.01267  Uiso   1.00
O10    O     0.54010   0.70850   0.84542   0.01267  Uiso   1.00
O11    O     0.51060   0.70030   0.66001   0.01267  Uiso   1.00
O12    O     0.39890   0.66250   0.66006   0.01267  Uiso   1.00
O13    O     0.30340   0.93740   0.85490   0.01267  Uiso   1.00
O14    O     0.39810   0.00640   0.84576   0.01267  Uiso   1.00
O15    O     0.35800   0.95130   0.66737   0.01267  Uiso   1.00
O16    O     0.38350   0.05960   0.65281   0.01267  Uiso   1.00
O17    O     0.72640   0.95740   0.83943   0.01267  Uiso   1.00
O18    O     0.69820   0.06520   0.85209   0.01267  Uiso   1.00
O19    O     0.72420   0.92970   0.89918   0.01267  Uiso   1.00
O20    O     0.84060   0.91670   0.90489   0.01267  Uiso   1.00
O21    O     0.68490   0.55650   0.07805   0.01267  Uiso   1.00
O22    O     0.79560   0.58550   0.08621   0.01267  Uiso   1.00
O23    O     0.57000   0.03610   0.61927   0.01267  Uiso   1.00
O24    O     0.75040   0.20070   0.62237   0.01267  Uiso   1.00
O25    O     0.98640   0.90710   0.61534   0.01267  Uiso   1.00
O26    O     0.81700   0.15140   0.87297   0.01267  Uiso   1.00
O27    O     0.92730   0.05170   0.88813   0.01267  Uiso   1.00
O28    O     0.36260   0.86420   0.41407   0.01267  Uiso   1.00
O29    O     0.75640   0.90950   0.64679   0.01267  Uiso   1.00
O30    O     0.29350   0.90940   0.91172   0.01267  Uiso   1.00
O31    O     0.36830   0.00310   0.90740   0.01267  Uiso   1.00
O32    O     0.55540   0.69600   0.09033   0.01267  Uiso   1.00
O33    O     0.61510   0.79540   0.10074   0.01267  Uiso   1.00
O34    O     0.20090   0.02510   0.90351   0.01267  Uiso   1.00
O35    O     0.26310   0.12310   0.91312   0.01267  Uiso   1.00
O36    O     0.90800   0.24500   0.08616   0.01267  Uiso   1.00
O37    O     0.17060   0.01210   0.84299   0.01267  Uiso   1.00
O38    O     0.14030   0.35710   0.65495   0.01267  Uiso   1.00
O39    O     0.04010   0.29150   0.65458   0.01267  Uiso   1.00
O40    O     0.01060   0.29970   0.83999   0.01267  Uiso   1.00
O41    O     0.89890   0.33750   0.83994   0.01267  Uiso   1.00
O42    O     0.80340   0.06260   0.64510   0.01267  Uiso   1.00
O43    O     0.89810   0.99360   0.65424   0.01267  Uiso   1.00
O44    O     0.85800   0.04870   0.83263   0.01267  Uiso   1.00
O45    O     0.88350   0.94040   0.84719   0.01267  Uiso   1.00
O46    O     0.22640   0.04260   0.66057   0.01267  Uiso   1.00
O47    O     0.19820   0.93480   0.64791   0.01267  Uiso   1.00
O48    O     0.22420   0.07030   0.60082   0.01267  Uiso   1.00
O49    O     0.34060   0.08330   0.59511   0.01267  Uiso   1.00
O50    O     0.18490   0.44350   0.42195   0.01267  Uiso   1.00
O51    O     0.29560   0.41450   0.41379   0.01267  Uiso   1.00
O52    O     0.07000   0.96390   0.88073   0.01267  Uiso   1.00
O53    O     0.25040   0.79930   0.87763   0.01267  Uiso   1.00
O54    O     0.48640   0.09290   0.88466   0.01267  Uiso   1.00
O55    O     0.31700   0.84860   0.62703   0.01267  Uiso   1.00
O56    O     0.42730   0.94830   0.61187   0.01267  Uiso   1.00
O57    O     0.86260   0.13580   0.08593   0.01267  Uiso   1.00
O58    O     0.25640   0.09050   0.85321   0.01267  Uiso   1.00
O59    O     0.70650   0.59060   0.41172   0.01267  Uiso   1.00
O60    O     0.63170   0.49690   0.40740   0.01267  Uiso   1.00
O61    O     0.44460   0.80400   0.59033   0.01267  Uiso   1.00
O62    O     0.38490   0.70460   0.60074   0.01267  Uiso   1.00
O63    O     0.79910   0.47490   0.40351   0.01267  Uiso   1.00
O64    O     0.73690   0.37690   0.41312   0.01267  Uiso   1.00
O65    O     0.09200   0.25500   0.58616   0.01267  Uiso   1.00
O66    O     0.82940   0.48790   0.34299   0.01267  Uiso   1.00
O67    O     0.85970   0.14290   0.15495   0.01267  Uiso   1.00
O68    O     0.95990   0.20850   0.15458   0.01267  Uiso   1.00
O69    O     0.98940   0.20030   0.33999   0.01267  Uiso   1.00
O70    O     0.10110   0.16250   0.33994   0.01267  Uiso   1.00
O71    O     0.19660   0.43740   0.14510   0.01267  Uiso   1.00
O72    O     0.10190   0.50640   0.15424   0.01267  Uiso   1.00
O73    O     0.14200   0.45130   0.33263   0.01267  Uiso   1.00
O74    O     0.11650   0.55960   0.34719   0.01267  Uiso   1.00
O75    O     0.77360   0.45740   0.16057   0.01267  Uiso   1.00
O76    O     0.80180   0.56520   0.14791   0.01267  Uiso   1.00
O77    O     0.77580   0.42970   0.10082   0.01267  Uiso   1.00
O78    O     0.65940   0.41670   0.09511   0.01267  Uiso   1.00
O79    O     0.81510   0.05650   0.92195   0.01267  Uiso   1.00
O80    O     0.70440   0.08550   0.91379   0.01267  Uiso   1.00
O81    O     0.93000   0.53610   0.38073   0.01267  Uiso   1.00
O82    O     0.74960   0.70070   0.37763   0.01267  Uiso   1.00
O83    O     0.51360   0.40710   0.38466   0.01267  Uiso   1.00
O84    O     0.68300   0.65140   0.12703   0.01267  Uiso   1.00
O85    O     0.57270   0.55170   0.11187   0.01267  Uiso   1.00
O86    O     0.13740   0.36420   0.58593   0.01267  Uiso   1.00
O87    O     0.74360   0.40950   0.35321   0.01267  Uiso   1.00
O88    O     0.20650   0.40940   0.08828   0.01267  Uiso   1.00
O89    O     0.13170   0.50310   0.09260   0.01267  Uiso   1.00
O90    O     0.94460   0.19600   0.90967   0.01267  Uiso   1.00
O91    O     0.88490   0.29540   0.89926   0.01267  Uiso   1.00
O92    O     0.29910   0.52510   0.09649   0.01267  Uiso   1.00
O93    O     0.23690   0.62310   0.08688   0.01267  Uiso   1.00
O94    O     0.59200   0.74500   0.91384   0.01267  Uiso   1.00
O95    O     0.32940   0.51210   0.15701   0.01267  Uiso   1.00
O96    O     0.35970   0.85710   0.34505   0.01267  Uiso   1.00
O97    O     0.45990   0.79150   0.34542   0.01267  Uiso   1.00
O98    O     0.48940   0.79970   0.16001   0.01267  Uiso   1.00
O99    O     0.60110   0.83750   0.16006   0.01267  Uiso   1.00
O100   O     0.69660   0.56260   0.35490   0.01267  Uiso   1.00
O101   O     0.60190   0.49360   0.34576   0.01267  Uiso   1.00
O102   O     0.64200   0.54870   0.16737   0.01267  Uiso   1.00
O103   O     0.61650   0.44040   0.15281   0.01267  Uiso   1.00
O104   O     0.27360   0.54260   0.33943   0.01267  Uiso   1.00
O105   O     0.30180   0.43480   0.35209   0.01267  Uiso   1.00
O106   O     0.27580   0.57030   0.39918   0.01267  Uiso   1.00
O107   O     0.15940   0.58330   0.40489   0.01267  Uiso   1.00
O108   O     0.31510   0.94350   0.57805   0.01267  Uiso   1.00
O109   O     0.20440   0.91450   0.58621   0.01267  Uiso   1.00
O110   O     0.43000   0.46390   0.11927   0.01267  Uiso   1.00
O111   O     0.24960   0.29930   0.12237   0.01267  Uiso   1.00
O112   O     0.01360   0.59290   0.11534   0.01267  Uiso   1.00
O113   O     0.18300   0.34860   0.37297   0.01267  Uiso   1.00
O114   O     0.07270   0.44830   0.38813   0.01267  Uiso   1.00
O115   O     0.63740   0.63580   0.91407   0.01267  Uiso   1.00
O116   O     0.24360   0.59050   0.14679   0.01267  Uiso   1.00
O117   O     0.20650   0.90940   0.41172   0.01267  Uiso   1.00
O118   O     0.13170   0.00310   0.40740   0.01267  Uiso   1.00
O119   O     0.94460   0.69600   0.59033   0.01267  Uiso   1.00
O120   O     0.88490   0.79540   0.60074   0.01267  Uiso   1.00
O121   O     0.29910   0.02510   0.40351   0.01267  Uiso   1.00
O122   O     0.23690   0.12310   0.41312   0.01267  Uiso   1.00
O123   O     0.59200   0.24500   0.58616   0.01267  Uiso   1.00
O124   O     0.32940   0.01210   0.34299   0.01267  Uiso   1.00
O125   O     0.35970   0.35710   0.15495   0.01267  Uiso   1.00
O126   O     0.45990   0.29150   0.15458   0.01267  Uiso   1.00
O127   O     0.48940   0.29970   0.33999   0.01267  Uiso   1.00
O128   O     0.60110   0.33750   0.33994   0.01267  Uiso   1.00
O129   O     0.69660   0.06260   0.14510   0.01267  Uiso   1.00
O130   O     0.60190   0.99360   0.15424   0.01267  Uiso   1.00
O131   O     0.64200   0.04870   0.33263   0.01267  Uiso   1.00
O132   O     0.61650   0.94040   0.34719   0.01267  Uiso   1.00
O133   O     0.27360   0.04260   0.16057   0.01267  Uiso   1.00
O134   O     0.30180   0.93480   0.14791   0.01267  Uiso   1.00
O135   O     0.27580   0.07030   0.10082   0.01267  Uiso   1.00
O136   O     0.15940   0.08330   0.09511   0.01267  Uiso   1.00
O137   O     0.31510   0.44350   0.92195   0.01267  Uiso   1.00
O138   O     0.20440   0.41450   0.91379   0.01267  Uiso   1.00
O139   O     0.43000   0.96390   0.38073   0.01267  Uiso   1.00
O140   O     0.24960   0.79930   0.37763   0.01267  Uiso   1.00
O141   O     0.01360   0.09290   0.38466   0.01267  Uiso   1.00
O142   O     0.18300   0.84860   0.12703   0.01267  Uiso   1.00
O143   O     0.07270   0.94830   0.11187   0.01267  Uiso   1.00
O144   O     0.63740   0.13580   0.58593   0.01267  Uiso   1.00
O145   O     0.24360   0.09050   0.35321   0.01267  Uiso   1.00
O146   O     0.70650   0.09060   0.08828   0.01267  Uiso   1.00
O147   O     0.63170   0.99690   0.09260   0.01267  Uiso   1.00
O148   O     0.44460   0.30400   0.90967   0.01267  Uiso   1.00
O149   O     0.38490   0.20460   0.89926   0.01267  Uiso   1.00
O150   O     0.79910   0.97490   0.09649   0.01267  Uiso   1.00
O151   O     0.73690   0.87690   0.08688   0.01267  Uiso   1.00
O152   O     0.09200   0.75500   0.91384   0.01267  Uiso   1.00
O153   O     0.82940   0.98790   0.15701   0.01267  Uiso   1.00
O154   O     0.85970   0.64290   0.34505   0.01267  Uiso   1.00
O155   O     0.95990   0.70850   0.34542   0.01267  Uiso   1.00
O156   O     0.98940   0.70030   0.16001   0.01267  Uiso   1.00
O157   O     0.10110   0.66250   0.16006   0.01267  Uiso   1.00
O158   O     0.19660   0.93740   0.35490   0.01267  Uiso   1.00
O159   O     0.10190   0.00640   0.34576   0.01267  Uiso   1.00
O160   O     0.14200   0.95130   0.16737   0.01267  Uiso   1.00
O161   O     0.11650   0.05960   0.15281   0.01267  Uiso   1.00
O162   O     0.77360   0.95740   0.33943   0.01267  Uiso   1.00
O163   O     0.80180   0.06520   0.35209   0.01267  Uiso   1.00
O164   O     0.77580   0.92970   0.39918   0.01267  Uiso   1.00
O165   O     0.65940   0.91670   0.40489   0.01267  Uiso   1.00
O166   O     0.81510   0.55650   0.57805   0.01267  Uiso   1.00
O167   O     0.70440   0.58550   0.58621   0.01267  Uiso   1.00
O168   O     0.93000   0.03610   0.11927   0.01267  Uiso   1.00
O169   O     0.74960   0.20070   0.12237   0.01267  Uiso   1.00
O170   O     0.51360   0.90710   0.11534   0.01267  Uiso   1.00
O171   O     0.68300   0.15140   0.37297   0.01267  Uiso   1.00
O172   O     0.57270   0.05170   0.38813   0.01267  Uiso   1.00
O173   O     0.13740   0.86420   0.91407   0.01267  Uiso   1.00
O174   O     0.74360   0.90950   0.14679   0.01267  Uiso   1.00
O175   O     0.29350   0.40940   0.58828   0.01267  Uiso   1.00
O176   O     0.36830   0.50310   0.59260   0.01267  Uiso   1.00
O177   O     0.55540   0.19600   0.40967   0.01267  Uiso   1.00
O178   O     0.61510   0.29540   0.39926   0.01267  Uiso   1.00
O179   O     0.20090   0.52510   0.59649   0.01267  Uiso   1.00
O180   O     0.26310   0.62310   0.58688   0.01267  Uiso   1.00
O181   O     0.90800   0.74500   0.41384   0.01267  Uiso   1.00
O182   O     0.17060   0.51210   0.65701   0.01267  Uiso   1.00
O183   O     0.14030   0.85710   0.84505   0.01267  Uiso   1.00
O184   O     0.04010   0.79150   0.84542   0.01267  Uiso   1.00
O185   O     0.01060   0.79970   0.66001   0.01267  Uiso   1.00
O186   O     0.89890   0.83750   0.66006   0.01267  Uiso   1.00
O187   O     0.80340   0.56260   0.85490   0.01267  Uiso   1.00
O188   O     0.89810   0.49360   0.84576   0.01267  Uiso   1.00
O189   O     0.85800   0.54870   0.66737   0.01267  Uiso   1.00
O190   O     0.88350   0.44040   0.65281   0.01267  Uiso   1.00
O191   O     0.22640   0.54260   0.83943   0.01267  Uiso   1.00
O192   O     0.19820   0.43480   0.85209   0.01267  Uiso   1.00
O193   O     0.22420   0.57030   0.89918   0.01267  Uiso   1.00
O194   O     0.34060   0.58330   0.90489   0.01267  Uiso   1.00
O195   O     0.18490   0.94350   0.07805   0.01267  Uiso   1.00
O196   O     0.29560   0.91450   0.08621   0.01267  Uiso   1.00
O197   O     0.07000   0.46390   0.61927   0.01267  Uiso   1.00
O198   O     0.25040   0.29930   0.62237   0.01267  Uiso   1.00
O199   O     0.48640   0.59290   0.61534   0.01267  Uiso   1.00
O200   O     0.31700   0.34860   0.87297   0.01267  Uiso   1.00
O201   O     0.42730   0.44830   0.88813   0.01267  Uiso   1.00
O202   O     0.86260   0.63580   0.41407   0.01267  Uiso   1.00
O203   O     0.25640   0.59050   0.64679   0.01267  Uiso   1.00
O204   O     0.79350   0.59060   0.91172   0.01267  Uiso   1.00
O205   O     0.86830   0.49690   0.90740   0.01267  Uiso   1.00
O206   O     0.05540   0.80400   0.09033   0.01267  Uiso   1.00
O207   O     0.11510   0.70460   0.10074   0.01267  Uiso   1.00
O208   O     0.70090   0.47490   0.90351   0.01267  Uiso   1.00
O209   O     0.76310   0.37690   0.91312   0.01267  Uiso   1.00
O210   O     0.40800   0.25500   0.08616   0.01267  Uiso   1.00
O211   O     0.67060   0.48790   0.84299   0.01267  Uiso   1.00
O212   O     0.64030   0.14290   0.65495   0.01267  Uiso   1.00
O213   O     0.54010   0.20850   0.65458   0.01267  Uiso   1.00
O214   O     0.51060   0.20030   0.83999   0.01267  Uiso   1.00
O215   O     0.39890   0.16250   0.83994   0.01267  Uiso   1.00
O216   O     0.30340   0.43740   0.64510   0.01267  Uiso   1.00
O217   O     0.39810   0.50640   0.65424   0.01267  Uiso   1.00
O218   O     0.35800   0.45130   0.83263   0.01267  Uiso   1.00
O219   O     0.38350   0.55960   0.84719   0.01267  Uiso   1.00
O220   O     0.72640   0.45740   0.66057   0.01267  Uiso   1.00
O221   O     0.69820   0.56520   0.64791   0.01267  Uiso   1.00
O222   O     0.72420   0.42970   0.60082   0.01267  Uiso   1.00
O223   O     0.84060   0.41670   0.59511   0.01267  Uiso   1.00
O224   O     0.68490   0.05650   0.42195   0.01267  Uiso   1.00
O225   O     0.79560   0.08550   0.41379   0.01267  Uiso   1.00
O226   O     0.57000   0.53610   0.88073   0.01267  Uiso   1.00
O227   O     0.75040   0.70070   0.87763   0.01267  Uiso   1.00
O228   O     0.98640   0.40710   0.88466   0.01267  Uiso   1.00
O229   O     0.81700   0.65140   0.62703   0.01267  Uiso   1.00
O230   O     0.92730   0.55170   0.61187   0.01267  Uiso   1.00
O231   O     0.36260   0.36420   0.08593   0.01267  Uiso   1.00
O232   O     0.75640   0.40950   0.85321   0.01267  Uiso   1.00
Cl1    Cl    0.77573   0.49647   0.99348   0.01267  Uiso   1.00
O233   O     0.74510   0.56150   0.98652   0.01267  Uiso   1.00
O234   O     0.84170   0.51150   0.00776   0.01267  Uiso   1.00
O235   O     0.72950   0.45930   0.00890   0.01267  Uiso   1.00
O236   O     0.78960   0.44570   0.97420   0.01267  Uiso   1.00
Cl2    Cl    0.27573   0.50353   0.50652   0.01267  Uiso   1.00
O237   O     0.24510   0.43850   0.51348   0.01267  Uiso   1.00
O238   O     0.34170   0.48850   0.49224   0.01267  Uiso   1.00
O239   O     0.22950   0.54070   0.49110   0.01267  Uiso   1.00
O240   O     0.28960   0.55430   0.52580   0.01267  Uiso   1.00
Cl3    Cl    0.72427   0.99647   0.00652   0.01267  Uiso   1.00
O241   O     0.75490   0.06150   0.01348   0.01267  Uiso   1.00
O242   O     0.65830   0.01150   0.99224   0.01267  Uiso   1.00
O243   O     0.77050   0.95930   0.99110   0.01267  Uiso   1.00
O244   O     0.71040   0.94570   0.02580   0.01267  Uiso   1.00
Cl4    Cl    0.22427   0.00353   0.49348   0.01267  Uiso   1.00
O245   O     0.25490   0.93850   0.48652   0.01267  Uiso   1.00
O246   O     0.15830   0.98850   0.50776   0.01267  Uiso   1.00
O247   O     0.27050   0.04070   0.50890   0.01267  Uiso   1.00
O248   O     0.21040   0.05430   0.47420   0.01267  Uiso   1.00
Cl5    Cl    0.22427   0.50353   0.00652   0.01267  Uiso   1.00
O249   O     0.25490   0.43850   0.01348   0.01267  Uiso   1.00
O250   O     0.15830   0.48850   0.99224   0.01267  Uiso   1.00
O251   O     0.27050   0.54070   0.99110   0.01267  Uiso   1.00
O252   O     0.21040   0.55430   0.02580   0.01267  Uiso   1.00
Cl6    Cl    0.72427   0.49647   0.49348   0.01267  Uiso   1.00
O253   O     0.75490   0.56150   0.48652   0.01267  Uiso   1.00
O254   O     0.65830   0.51150   0.50776   0.01267  Uiso   1.00
O255   O     0.77050   0.45930   0.50890   0.01267  Uiso   1.00
O256   O     0.71040   0.44570   0.47420   0.01267  Uiso   1.00
Cl7    Cl    0.27573   0.00353   0.99348   0.01267  Uiso   1.00
O257   O     0.24510   0.93850   0.98652   0.01267  Uiso   1.00
O258   O     0.34170   0.98850   0.00776   0.01267  Uiso   1.00
O259   O     0.22950   0.04070   0.00890   0.01267  Uiso   1.00
O260   O     0.28960   0.05430   0.97420   0.01267  Uiso   1.00
Cl8    Cl    0.77573   0.99647   0.50652   0.01267  Uiso   1.00
O261   O     0.74510   0.06150   0.51348   0.01267  Uiso   1.00
O262   O     0.84170   0.01150   0.49224   0.01267  Uiso   1.00
O263   O     0.72950   0.95930   0.49110   0.01267  Uiso   1.00
O264   O     0.78960   0.94570   0.52580   0.01267  Uiso   1.00
