data_NIFZEJ_charged
_audit_creation_date              2014-07-02
_audit_creation_method            'Materials Studio'
_symmetry_space_group_name_H-M    'P1'
_symmetry_Int_Tables_number       1
_symmetry_cell_setting            triclinic
loop_
_symmetry_equiv_pos_as_xyz
  x,y,z
_cell_length_a                    18.3965
_cell_length_b                    18.5561
_cell_length_c                    48.8513
_cell_angle_alpha                 90.0000
_cell_angle_beta                  90.0000
_cell_angle_gamma                 90.0000
loop_
_atom_site_label
_atom_site_type_symbol
_atom_site_fract_x
_atom_site_fract_y
_atom_site_fract_z
_atom_site_U_iso_or_equiv
_atom_site_adp_type
_atom_site_occupancy
Dy1    Dy    0.79993   0.57146   0.87826   0.01267  Uiso   1.00
Dy2    Dy    0.63108   0.40166   0.87774   0.01267  Uiso   1.00
Dy3    Dy    0.68263   0.51288   0.62402   0.01267  Uiso   1.00
Dy4    Dy    0.29993   0.42854   0.62174   0.01267  Uiso   1.00
Dy5    Dy    0.13108   0.59834   0.62226   0.01267  Uiso   1.00
Dy6    Dy    0.18263   0.48712   0.87598   0.01267  Uiso   1.00
Dy7    Dy    0.70007   0.07146   0.12174   0.01267  Uiso   1.00
Dy8    Dy    0.86892   0.90166   0.12226   0.01267  Uiso   1.00
Dy9    Dy    0.81737   0.01288   0.37598   0.01267  Uiso   1.00
Dy10   Dy    0.20007   0.92854   0.37826   0.01267  Uiso   1.00
Dy11   Dy    0.36892   0.09834   0.37774   0.01267  Uiso   1.00
Dy12   Dy    0.31737   0.98712   0.12402   0.01267  Uiso   1.00
Dy13   Dy    0.20007   0.42854   0.12174   0.01267  Uiso   1.00
Dy14   Dy    0.36892   0.59834   0.12226   0.01267  Uiso   1.00
Dy15   Dy    0.31737   0.48712   0.37598   0.01267  Uiso   1.00
Dy16   Dy    0.70007   0.57146   0.37826   0.01267  Uiso   1.00
Dy17   Dy    0.86892   0.40166   0.37774   0.01267  Uiso   1.00
Dy18   Dy    0.81737   0.51288   0.12402   0.01267  Uiso   1.00
Dy19   Dy    0.29993   0.92854   0.87826   0.01267  Uiso   1.00
Dy20   Dy    0.13108   0.09834   0.87774   0.01267  Uiso   1.00
Dy21   Dy    0.18263   0.98712   0.62402   0.01267  Uiso   1.00
Dy22   Dy    0.79993   0.07146   0.62174   0.01267  Uiso   1.00
Dy23   Dy    0.63108   0.90166   0.62226   0.01267  Uiso   1.00
Dy24   Dy    0.68263   0.01288   0.87598   0.01267  Uiso   1.00
Co1    Co    0.10867   0.74748   0.99790   0.01267  Uiso   1.00
Co2    Co    0.45475   0.61441   0.75517   0.01267  Uiso   1.00
Co3    Co    0.60867   0.25252   0.50210   0.01267  Uiso   1.00
Co4    Co    0.95475   0.38559   0.74483   0.01267  Uiso   1.00
Co5    Co    0.39133   0.24748   0.00210   0.01267  Uiso   1.00
Co6    Co    0.04525   0.11441   0.24483   0.01267  Uiso   1.00
Co7    Co    0.89133   0.75252   0.49790   0.01267  Uiso   1.00
Co8    Co    0.54525   0.88559   0.25517   0.01267  Uiso   1.00
Co9    Co    0.89133   0.25252   0.00210   0.01267  Uiso   1.00
Co10   Co    0.54525   0.38559   0.24483   0.01267  Uiso   1.00
Co11   Co    0.39133   0.74748   0.49790   0.01267  Uiso   1.00
Co12   Co    0.04525   0.61441   0.25517   0.01267  Uiso   1.00
Co13   Co    0.60867   0.75252   0.99790   0.01267  Uiso   1.00
Co14   Co    0.95475   0.88559   0.75517   0.01267  Uiso   1.00
Co15   Co    0.10867   0.24748   0.50210   0.01267  Uiso   1.00
Co16   Co    0.45475   0.11441   0.74483   0.01267  Uiso   1.00
H1     H     0.96230   0.54490   0.86820   0.01267  Uiso   1.00
H2     H     0.93530   0.47560   0.87240   0.01267  Uiso   1.00
H3     H     0.79680   0.72290   0.88860   0.01267  Uiso   1.00
H4     H     0.75340   0.72160   0.86580   0.01267  Uiso   1.00
H5     H     0.00490   0.74310   0.94820   0.01267  Uiso   1.00
H6     H     0.87430   0.57580   0.96400   0.01267  Uiso   1.00
H7     H     0.53040   0.50200   0.94020   0.01267  Uiso   1.00
H8     H     0.66700   0.66670   0.94990   0.01267  Uiso   1.00
H9     H     0.68180   0.68460   0.83230   0.01267  Uiso   1.00
H10    H     0.53210   0.54440   0.80620   0.01267  Uiso   1.00
H11    H     0.94300   0.79810   0.81090   0.01267  Uiso   1.00
H12    H     0.80220   0.63750   0.79970   0.01267  Uiso   1.00
H13    H     0.93840   0.55370   0.00330   0.01267  Uiso   1.00
H14    H     0.46200   0.54490   0.97770   0.01267  Uiso   1.00
H15    H     0.65550   0.75740   0.79440   0.01267  Uiso   1.00
H16    H     0.77940   0.68200   0.75600   0.01267  Uiso   1.00
H17    H     0.20820   0.68610   0.04340   0.01267  Uiso   1.00
H18    H     0.00780   0.53940   0.04010   0.01267  Uiso   1.00
H19    H     0.40960   0.59210   0.01510   0.01267  Uiso   1.00
H20    H     0.53810   0.77530   0.05470   0.01267  Uiso   1.00
H21    H     0.64410   0.80430   0.75360   0.01267  Uiso   1.00
H22    H     0.47390   0.69890   0.69870   0.01267  Uiso   1.00
H23    H     0.54940   0.57540   0.70480   0.01267  Uiso   1.00
H24    H     0.35460   0.57740   0.80480   0.01267  Uiso   1.00
H25    H     0.76280   0.73040   0.71580   0.01267  Uiso   1.00
H26    H     0.87420   0.94830   0.70260   0.01267  Uiso   1.00
H27    H     0.09030   0.52480   0.07500   0.01267  Uiso   1.00
H28    H     0.37210   0.63810   0.05740   0.01267  Uiso   1.00
H29    H     0.62690   0.85000   0.71060   0.01267  Uiso   1.00
H30    H     0.47360   0.35380   0.73390   0.01267  Uiso   1.00
H31    H     0.42580   0.35390   0.77610   0.01267  Uiso   1.00
H32    H     0.73900   0.79590   0.67650   0.01267  Uiso   1.00
H33    H     0.53830   0.36260   0.69350   0.01267  Uiso   1.00
H34    H     0.35610   0.36380   0.81570   0.01267  Uiso   1.00
H35    H     0.63280   0.66680   0.62550   0.01267  Uiso   1.00
H36    H     0.70660   0.67160   0.63290   0.01267  Uiso   1.00
H37    H     0.52010   0.54730   0.60630   0.01267  Uiso   1.00
H38    H     0.57070   0.53130   0.58660   0.01267  Uiso   1.00
H39    H     0.86490   0.63860   0.53970   0.01267  Uiso   1.00
H40    H     0.64840   0.63160   0.54830   0.01267  Uiso   1.00
H41    H     0.63730   0.71320   0.51280   0.01267  Uiso   1.00
H42    H     0.64180   0.79150   0.47550   0.01267  Uiso   1.00
H43    H     0.87340   0.83680   0.44490   0.01267  Uiso   1.00
H44    H     0.65820   0.85970   0.43540   0.01267  Uiso   1.00
H45    H     0.46510   0.42520   0.89210   0.01267  Uiso   1.00
H46    H     0.51900   0.39400   0.90750   0.01267  Uiso   1.00
H47    H     0.46230   0.45510   0.63180   0.01267  Uiso   1.00
H48    H     0.43530   0.52440   0.62760   0.01267  Uiso   1.00
H49    H     0.29680   0.27710   0.61140   0.01267  Uiso   1.00
H50    H     0.25340   0.27840   0.63420   0.01267  Uiso   1.00
H51    H     0.50490   0.25690   0.55180   0.01267  Uiso   1.00
H52    H     0.37430   0.42420   0.53600   0.01267  Uiso   1.00
H53    H     0.03040   0.49800   0.55980   0.01267  Uiso   1.00
H54    H     0.16700   0.33330   0.55010   0.01267  Uiso   1.00
H55    H     0.18180   0.31540   0.66770   0.01267  Uiso   1.00
H56    H     0.03210   0.45560   0.69380   0.01267  Uiso   1.00
H57    H     0.44300   0.20190   0.68910   0.01267  Uiso   1.00
H58    H     0.30220   0.36250   0.70030   0.01267  Uiso   1.00
H59    H     0.43840   0.44630   0.49670   0.01267  Uiso   1.00
H60    H     0.96200   0.45510   0.52230   0.01267  Uiso   1.00
H61    H     0.15550   0.24260   0.70560   0.01267  Uiso   1.00
H62    H     0.27940   0.31800   0.74400   0.01267  Uiso   1.00
H63    H     0.70820   0.31390   0.45660   0.01267  Uiso   1.00
H64    H     0.50780   0.46060   0.45990   0.01267  Uiso   1.00
H65    H     0.90960   0.40790   0.48490   0.01267  Uiso   1.00
H66    H     0.03810   0.22470   0.44530   0.01267  Uiso   1.00
H67    H     0.14410   0.19570   0.74640   0.01267  Uiso   1.00
H68    H     0.97390   0.30110   0.80130   0.01267  Uiso   1.00
H69    H     0.04940   0.42460   0.79520   0.01267  Uiso   1.00
H70    H     0.85460   0.42260   0.69520   0.01267  Uiso   1.00
H71    H     0.26280   0.26960   0.78420   0.01267  Uiso   1.00
H72    H     0.37420   0.05170   0.79740   0.01267  Uiso   1.00
H73    H     0.59030   0.47520   0.42500   0.01267  Uiso   1.00
H74    H     0.87210   0.36190   0.44260   0.01267  Uiso   1.00
H75    H     0.12690   0.15000   0.78940   0.01267  Uiso   1.00
H76    H     0.97360   0.64620   0.76610   0.01267  Uiso   1.00
H77    H     0.92580   0.64610   0.72390   0.01267  Uiso   1.00
H78    H     0.23900   0.20410   0.82350   0.01267  Uiso   1.00
H79    H     0.03830   0.63740   0.80650   0.01267  Uiso   1.00
H80    H     0.85610   0.63620   0.68430   0.01267  Uiso   1.00
H81    H     0.13280   0.33320   0.87450   0.01267  Uiso   1.00
H82    H     0.20660   0.32840   0.86710   0.01267  Uiso   1.00
H83    H     0.02010   0.45270   0.89370   0.01267  Uiso   1.00
H84    H     0.07070   0.46870   0.91340   0.01267  Uiso   1.00
H85    H     0.36490   0.36140   0.96030   0.01267  Uiso   1.00
H86    H     0.14840   0.36840   0.95170   0.01267  Uiso   1.00
H87    H     0.13730   0.28680   0.98720   0.01267  Uiso   1.00
H88    H     0.14180   0.20850   0.02450   0.01267  Uiso   1.00
H89    H     0.37340   0.16320   0.05510   0.01267  Uiso   1.00
H90    H     0.15820   0.14030   0.06460   0.01267  Uiso   1.00
H91    H     0.96510   0.57480   0.60790   0.01267  Uiso   1.00
H92    H     0.01900   0.60600   0.59250   0.01267  Uiso   1.00
H93    H     0.53770   0.04490   0.13180   0.01267  Uiso   1.00
H94    H     0.56470   0.97560   0.12760   0.01267  Uiso   1.00
H95    H     0.70320   0.22290   0.11140   0.01267  Uiso   1.00
H96    H     0.74660   0.22160   0.13420   0.01267  Uiso   1.00
H97    H     0.49510   0.24310   0.05180   0.01267  Uiso   1.00
H98    H     0.62570   0.07580   0.03600   0.01267  Uiso   1.00
H99    H     0.96960   0.00200   0.05980   0.01267  Uiso   1.00
H100   H     0.83300   0.16670   0.05010   0.01267  Uiso   1.00
H101   H     0.81820   0.18460   0.16770   0.01267  Uiso   1.00
H102   H     0.96790   0.04440   0.19380   0.01267  Uiso   1.00
H103   H     0.55700   0.29810   0.18910   0.01267  Uiso   1.00
H104   H     0.69780   0.13750   0.20030   0.01267  Uiso   1.00
H105   H     0.56160   0.05370   0.99670   0.01267  Uiso   1.00
H106   H     0.03800   0.04490   0.02230   0.01267  Uiso   1.00
H107   H     0.84450   0.25740   0.20560   0.01267  Uiso   1.00
H108   H     0.72060   0.18200   0.24400   0.01267  Uiso   1.00
H109   H     0.29180   0.18610   0.95660   0.01267  Uiso   1.00
H110   H     0.49220   0.03940   0.95990   0.01267  Uiso   1.00
H111   H     0.09040   0.09210   0.98490   0.01267  Uiso   1.00
H112   H     0.96190   0.27530   0.94530   0.01267  Uiso   1.00
H113   H     0.85590   0.30430   0.24640   0.01267  Uiso   1.00
H114   H     0.02610   0.19890   0.30130   0.01267  Uiso   1.00
H115   H     0.95060   0.07540   0.29520   0.01267  Uiso   1.00
H116   H     0.14540   0.07740   0.19520   0.01267  Uiso   1.00
H117   H     0.73720   0.23040   0.28420   0.01267  Uiso   1.00
H118   H     0.62580   0.44830   0.29740   0.01267  Uiso   1.00
H119   H     0.40970   0.02480   0.92500   0.01267  Uiso   1.00
H120   H     0.12790   0.13810   0.94260   0.01267  Uiso   1.00
H121   H     0.87310   0.35000   0.28940   0.01267  Uiso   1.00
H122   H     0.02640   0.85380   0.26610   0.01267  Uiso   1.00
H123   H     0.07420   0.85390   0.22390   0.01267  Uiso   1.00
H124   H     0.76100   0.29590   0.32350   0.01267  Uiso   1.00
H125   H     0.96170   0.86260   0.30650   0.01267  Uiso   1.00
H126   H     0.14390   0.86380   0.18430   0.01267  Uiso   1.00
H127   H     0.86720   0.16680   0.37450   0.01267  Uiso   1.00
H128   H     0.79340   0.17160   0.36710   0.01267  Uiso   1.00
H129   H     0.97990   0.04730   0.39370   0.01267  Uiso   1.00
H130   H     0.92930   0.03130   0.41340   0.01267  Uiso   1.00
H131   H     0.63510   0.13860   0.46030   0.01267  Uiso   1.00
H132   H     0.85160   0.13160   0.45170   0.01267  Uiso   1.00
H133   H     0.86270   0.21320   0.48720   0.01267  Uiso   1.00
H134   H     0.85820   0.29150   0.52450   0.01267  Uiso   1.00
H135   H     0.62660   0.33680   0.55510   0.01267  Uiso   1.00
H136   H     0.84180   0.35970   0.56460   0.01267  Uiso   1.00
H137   H     0.03490   0.92520   0.10790   0.01267  Uiso   1.00
H138   H     0.98100   0.89400   0.09250   0.01267  Uiso   1.00
H139   H     0.03770   0.95510   0.36820   0.01267  Uiso   1.00
H140   H     0.06470   0.02440   0.37240   0.01267  Uiso   1.00
H141   H     0.20320   0.77710   0.38860   0.01267  Uiso   1.00
H142   H     0.24660   0.77840   0.36580   0.01267  Uiso   1.00
H143   H     0.99510   0.75690   0.44820   0.01267  Uiso   1.00
H144   H     0.12570   0.92420   0.46400   0.01267  Uiso   1.00
H145   H     0.46960   0.99800   0.44020   0.01267  Uiso   1.00
H146   H     0.33300   0.83330   0.44990   0.01267  Uiso   1.00
H147   H     0.31820   0.81540   0.33230   0.01267  Uiso   1.00
H148   H     0.46790   0.95560   0.30620   0.01267  Uiso   1.00
H149   H     0.05700   0.70190   0.31090   0.01267  Uiso   1.00
H150   H     0.19780   0.86250   0.29970   0.01267  Uiso   1.00
H151   H     0.06160   0.94630   0.50330   0.01267  Uiso   1.00
H152   H     0.53800   0.95510   0.47770   0.01267  Uiso   1.00
H153   H     0.34450   0.74260   0.29440   0.01267  Uiso   1.00
H154   H     0.22060   0.81800   0.25600   0.01267  Uiso   1.00
H155   H     0.79180   0.81390   0.54340   0.01267  Uiso   1.00
H156   H     0.99220   0.96060   0.54010   0.01267  Uiso   1.00
H157   H     0.59040   0.90790   0.51510   0.01267  Uiso   1.00
H158   H     0.46190   0.72470   0.55470   0.01267  Uiso   1.00
H159   H     0.35590   0.69570   0.25360   0.01267  Uiso   1.00
H160   H     0.52610   0.80110   0.19870   0.01267  Uiso   1.00
H161   H     0.45060   0.92460   0.20480   0.01267  Uiso   1.00
H162   H     0.64540   0.92260   0.30480   0.01267  Uiso   1.00
H163   H     0.23720   0.76960   0.21580   0.01267  Uiso   1.00
H164   H     0.12580   0.55170   0.20260   0.01267  Uiso   1.00
H165   H     0.90970   0.97520   0.57500   0.01267  Uiso   1.00
H166   H     0.62790   0.86190   0.55740   0.01267  Uiso   1.00
H167   H     0.37310   0.65000   0.21060   0.01267  Uiso   1.00
H168   H     0.52640   0.14620   0.23390   0.01267  Uiso   1.00
H169   H     0.57420   0.14610   0.27610   0.01267  Uiso   1.00
H170   H     0.26100   0.70410   0.17650   0.01267  Uiso   1.00
H171   H     0.46170   0.13740   0.19350   0.01267  Uiso   1.00
H172   H     0.64390   0.13620   0.31570   0.01267  Uiso   1.00
H173   H     0.36720   0.83320   0.12550   0.01267  Uiso   1.00
H174   H     0.29340   0.82840   0.13290   0.01267  Uiso   1.00
H175   H     0.47990   0.95270   0.10630   0.01267  Uiso   1.00
H176   H     0.42930   0.96870   0.08660   0.01267  Uiso   1.00
H177   H     0.13510   0.86140   0.03970   0.01267  Uiso   1.00
H178   H     0.35160   0.86840   0.04830   0.01267  Uiso   1.00
H179   H     0.36270   0.78680   0.01280   0.01267  Uiso   1.00
H180   H     0.35820   0.70850   0.97550   0.01267  Uiso   1.00
H181   H     0.12660   0.66320   0.94490   0.01267  Uiso   1.00
H182   H     0.34180   0.64030   0.93540   0.01267  Uiso   1.00
H183   H     0.53490   0.07480   0.39210   0.01267  Uiso   1.00
H184   H     0.48100   0.10600   0.40750   0.01267  Uiso   1.00
H185   H     0.03770   0.45510   0.13180   0.01267  Uiso   1.00
H186   H     0.06470   0.52440   0.12760   0.01267  Uiso   1.00
H187   H     0.20320   0.27710   0.11140   0.01267  Uiso   1.00
H188   H     0.24660   0.27840   0.13420   0.01267  Uiso   1.00
H189   H     0.99510   0.25690   0.05180   0.01267  Uiso   1.00
H190   H     0.12570   0.42420   0.03600   0.01267  Uiso   1.00
H191   H     0.46960   0.49800   0.05980   0.01267  Uiso   1.00
H192   H     0.33300   0.33330   0.05010   0.01267  Uiso   1.00
H193   H     0.31820   0.31540   0.16770   0.01267  Uiso   1.00
H194   H     0.46790   0.45560   0.19380   0.01267  Uiso   1.00
H195   H     0.05700   0.20190   0.18910   0.01267  Uiso   1.00
H196   H     0.19780   0.36250   0.20030   0.01267  Uiso   1.00
H197   H     0.06160   0.44630   0.99670   0.01267  Uiso   1.00
H198   H     0.53800   0.45510   0.02230   0.01267  Uiso   1.00
H199   H     0.34450   0.24260   0.20560   0.01267  Uiso   1.00
H200   H     0.22060   0.31800   0.24400   0.01267  Uiso   1.00
H201   H     0.79180   0.31390   0.95660   0.01267  Uiso   1.00
H202   H     0.99220   0.46060   0.95990   0.01267  Uiso   1.00
H203   H     0.59040   0.40790   0.98490   0.01267  Uiso   1.00
H204   H     0.46190   0.22470   0.94530   0.01267  Uiso   1.00
H205   H     0.35590   0.19570   0.24640   0.01267  Uiso   1.00
H206   H     0.52610   0.30110   0.30130   0.01267  Uiso   1.00
H207   H     0.45060   0.42460   0.29520   0.01267  Uiso   1.00
H208   H     0.64540   0.42260   0.19520   0.01267  Uiso   1.00
H209   H     0.23720   0.26960   0.28420   0.01267  Uiso   1.00
H210   H     0.12580   0.05170   0.29740   0.01267  Uiso   1.00
H211   H     0.90970   0.47520   0.92500   0.01267  Uiso   1.00
H212   H     0.62790   0.36190   0.94260   0.01267  Uiso   1.00
H213   H     0.37310   0.15000   0.28940   0.01267  Uiso   1.00
H214   H     0.52640   0.64620   0.26610   0.01267  Uiso   1.00
H215   H     0.57420   0.64610   0.22390   0.01267  Uiso   1.00
H216   H     0.26100   0.20410   0.32350   0.01267  Uiso   1.00
H217   H     0.46170   0.63740   0.30650   0.01267  Uiso   1.00
H218   H     0.64390   0.63620   0.18430   0.01267  Uiso   1.00
H219   H     0.36720   0.33320   0.37450   0.01267  Uiso   1.00
H220   H     0.29340   0.32840   0.36710   0.01267  Uiso   1.00
H221   H     0.47990   0.45270   0.39370   0.01267  Uiso   1.00
H222   H     0.42930   0.46870   0.41340   0.01267  Uiso   1.00
H223   H     0.13510   0.36140   0.46030   0.01267  Uiso   1.00
H224   H     0.35160   0.36840   0.45170   0.01267  Uiso   1.00
H225   H     0.36270   0.28680   0.48720   0.01267  Uiso   1.00
H226   H     0.35820   0.20850   0.52450   0.01267  Uiso   1.00
H227   H     0.12660   0.16320   0.55510   0.01267  Uiso   1.00
H228   H     0.34180   0.14030   0.56460   0.01267  Uiso   1.00
H229   H     0.53490   0.57480   0.10790   0.01267  Uiso   1.00
H230   H     0.48100   0.60600   0.09250   0.01267  Uiso   1.00
H231   H     0.53770   0.54490   0.36820   0.01267  Uiso   1.00
H232   H     0.56470   0.47560   0.37240   0.01267  Uiso   1.00
H233   H     0.70320   0.72290   0.38860   0.01267  Uiso   1.00
H234   H     0.74660   0.72160   0.36580   0.01267  Uiso   1.00
H235   H     0.49510   0.74310   0.44820   0.01267  Uiso   1.00
H236   H     0.62570   0.57580   0.46400   0.01267  Uiso   1.00
H237   H     0.96960   0.50200   0.44020   0.01267  Uiso   1.00
H238   H     0.83300   0.66670   0.44990   0.01267  Uiso   1.00
H239   H     0.81820   0.68460   0.33230   0.01267  Uiso   1.00
H240   H     0.96790   0.54440   0.30620   0.01267  Uiso   1.00
H241   H     0.55700   0.79810   0.31090   0.01267  Uiso   1.00
H242   H     0.69780   0.63750   0.29970   0.01267  Uiso   1.00
H243   H     0.56160   0.55370   0.50330   0.01267  Uiso   1.00
H244   H     0.03800   0.54490   0.47770   0.01267  Uiso   1.00
H245   H     0.84450   0.75740   0.29440   0.01267  Uiso   1.00
H246   H     0.72060   0.68200   0.25600   0.01267  Uiso   1.00
H247   H     0.29180   0.68610   0.54340   0.01267  Uiso   1.00
H248   H     0.49220   0.53940   0.54010   0.01267  Uiso   1.00
H249   H     0.09040   0.59210   0.51510   0.01267  Uiso   1.00
H250   H     0.96190   0.77530   0.55470   0.01267  Uiso   1.00
H251   H     0.85590   0.80430   0.25360   0.01267  Uiso   1.00
H252   H     0.02610   0.69890   0.19870   0.01267  Uiso   1.00
H253   H     0.95060   0.57540   0.20480   0.01267  Uiso   1.00
H254   H     0.14540   0.57740   0.30480   0.01267  Uiso   1.00
H255   H     0.73720   0.73040   0.21580   0.01267  Uiso   1.00
H256   H     0.62580   0.94830   0.20260   0.01267  Uiso   1.00
H257   H     0.40970   0.52480   0.57500   0.01267  Uiso   1.00
H258   H     0.12790   0.63810   0.55740   0.01267  Uiso   1.00
H259   H     0.87310   0.85000   0.21060   0.01267  Uiso   1.00
H260   H     0.02640   0.35380   0.23390   0.01267  Uiso   1.00
H261   H     0.07420   0.35390   0.27610   0.01267  Uiso   1.00
H262   H     0.76100   0.79590   0.17650   0.01267  Uiso   1.00
H263   H     0.96170   0.36260   0.19350   0.01267  Uiso   1.00
H264   H     0.14390   0.36380   0.31570   0.01267  Uiso   1.00
H265   H     0.86720   0.66680   0.12550   0.01267  Uiso   1.00
H266   H     0.79340   0.67160   0.13290   0.01267  Uiso   1.00
H267   H     0.97990   0.54730   0.10630   0.01267  Uiso   1.00
H268   H     0.92930   0.53130   0.08660   0.01267  Uiso   1.00
H269   H     0.63510   0.63860   0.03970   0.01267  Uiso   1.00
H270   H     0.85160   0.63160   0.04830   0.01267  Uiso   1.00
H271   H     0.86270   0.71320   0.01280   0.01267  Uiso   1.00
H272   H     0.85820   0.79150   0.97550   0.01267  Uiso   1.00
H273   H     0.62660   0.83680   0.94490   0.01267  Uiso   1.00
H274   H     0.84180   0.85970   0.93540   0.01267  Uiso   1.00
H275   H     0.03490   0.42520   0.39210   0.01267  Uiso   1.00
H276   H     0.98100   0.39400   0.40750   0.01267  Uiso   1.00
H277   H     0.46230   0.95510   0.86820   0.01267  Uiso   1.00
H278   H     0.43530   0.02440   0.87240   0.01267  Uiso   1.00
H279   H     0.29680   0.77710   0.88860   0.01267  Uiso   1.00
H280   H     0.25340   0.77840   0.86580   0.01267  Uiso   1.00
H281   H     0.50490   0.75690   0.94820   0.01267  Uiso   1.00
H282   H     0.37430   0.92420   0.96400   0.01267  Uiso   1.00
H283   H     0.03040   0.99800   0.94020   0.01267  Uiso   1.00
H284   H     0.16700   0.83330   0.94990   0.01267  Uiso   1.00
H285   H     0.18180   0.81540   0.83230   0.01267  Uiso   1.00
H286   H     0.03210   0.95560   0.80620   0.01267  Uiso   1.00
H287   H     0.44300   0.70190   0.81090   0.01267  Uiso   1.00
H288   H     0.30220   0.86250   0.79970   0.01267  Uiso   1.00
H289   H     0.43840   0.94630   0.00330   0.01267  Uiso   1.00
H290   H     0.96200   0.95510   0.97770   0.01267  Uiso   1.00
H291   H     0.15550   0.74260   0.79440   0.01267  Uiso   1.00
H292   H     0.27940   0.81800   0.75600   0.01267  Uiso   1.00
H293   H     0.70820   0.81390   0.04340   0.01267  Uiso   1.00
H294   H     0.50780   0.96060   0.04010   0.01267  Uiso   1.00
H295   H     0.90960   0.90790   0.01510   0.01267  Uiso   1.00
H296   H     0.03810   0.72470   0.05470   0.01267  Uiso   1.00
H297   H     0.14410   0.69570   0.75360   0.01267  Uiso   1.00
H298   H     0.97390   0.80110   0.69870   0.01267  Uiso   1.00
H299   H     0.04940   0.92460   0.70480   0.01267  Uiso   1.00
H300   H     0.85460   0.92260   0.80480   0.01267  Uiso   1.00
H301   H     0.26280   0.76960   0.71580   0.01267  Uiso   1.00
H302   H     0.37420   0.55170   0.70260   0.01267  Uiso   1.00
H303   H     0.59030   0.97520   0.07500   0.01267  Uiso   1.00
H304   H     0.87210   0.86190   0.05740   0.01267  Uiso   1.00
H305   H     0.12690   0.65000   0.71060   0.01267  Uiso   1.00
H306   H     0.97360   0.14620   0.73390   0.01267  Uiso   1.00
H307   H     0.92580   0.14610   0.77610   0.01267  Uiso   1.00
H308   H     0.23900   0.70410   0.67650   0.01267  Uiso   1.00
H309   H     0.03830   0.13740   0.69350   0.01267  Uiso   1.00
H310   H     0.85610   0.13620   0.81570   0.01267  Uiso   1.00
H311   H     0.13280   0.83320   0.62550   0.01267  Uiso   1.00
H312   H     0.20660   0.82840   0.63290   0.01267  Uiso   1.00
H313   H     0.02010   0.95270   0.60630   0.01267  Uiso   1.00
H314   H     0.07070   0.96870   0.58660   0.01267  Uiso   1.00
H315   H     0.36490   0.86140   0.53970   0.01267  Uiso   1.00
H316   H     0.14840   0.86840   0.54830   0.01267  Uiso   1.00
H317   H     0.13730   0.78680   0.51280   0.01267  Uiso   1.00
H318   H     0.14180   0.70850   0.47550   0.01267  Uiso   1.00
H319   H     0.37340   0.66320   0.44490   0.01267  Uiso   1.00
H320   H     0.15820   0.64030   0.43540   0.01267  Uiso   1.00
H321   H     0.96510   0.07480   0.89210   0.01267  Uiso   1.00
H322   H     0.01900   0.10600   0.90750   0.01267  Uiso   1.00
H323   H     0.96230   0.04490   0.63180   0.01267  Uiso   1.00
H324   H     0.93530   0.97560   0.62760   0.01267  Uiso   1.00
H325   H     0.79680   0.22290   0.61140   0.01267  Uiso   1.00
H326   H     0.75340   0.22160   0.63420   0.01267  Uiso   1.00
H327   H     0.00490   0.24310   0.55180   0.01267  Uiso   1.00
H328   H     0.87430   0.07580   0.53600   0.01267  Uiso   1.00
H329   H     0.53040   0.00200   0.55980   0.01267  Uiso   1.00
H330   H     0.66700   0.16670   0.55010   0.01267  Uiso   1.00
H331   H     0.68180   0.18460   0.66770   0.01267  Uiso   1.00
H332   H     0.53210   0.04440   0.69380   0.01267  Uiso   1.00
H333   H     0.94300   0.29810   0.68910   0.01267  Uiso   1.00
H334   H     0.80220   0.13750   0.70030   0.01267  Uiso   1.00
H335   H     0.93840   0.05370   0.49670   0.01267  Uiso   1.00
H336   H     0.46200   0.04490   0.52230   0.01267  Uiso   1.00
H337   H     0.65550   0.25740   0.70560   0.01267  Uiso   1.00
H338   H     0.77940   0.18200   0.74400   0.01267  Uiso   1.00
H339   H     0.20820   0.18610   0.45660   0.01267  Uiso   1.00
H340   H     0.00780   0.03940   0.45990   0.01267  Uiso   1.00
H341   H     0.40960   0.09210   0.48490   0.01267  Uiso   1.00
H342   H     0.53810   0.27530   0.44530   0.01267  Uiso   1.00
H343   H     0.64410   0.30430   0.74640   0.01267  Uiso   1.00
H344   H     0.47390   0.19890   0.80130   0.01267  Uiso   1.00
H345   H     0.54940   0.07540   0.79520   0.01267  Uiso   1.00
H346   H     0.35460   0.07740   0.69520   0.01267  Uiso   1.00
H347   H     0.76280   0.23040   0.78420   0.01267  Uiso   1.00
H348   H     0.87420   0.44830   0.79740   0.01267  Uiso   1.00
H349   H     0.09030   0.02480   0.42500   0.01267  Uiso   1.00
H350   H     0.37210   0.13810   0.44260   0.01267  Uiso   1.00
H351   H     0.62690   0.35000   0.78940   0.01267  Uiso   1.00
H352   H     0.47360   0.85380   0.76610   0.01267  Uiso   1.00
H353   H     0.42580   0.85390   0.72390   0.01267  Uiso   1.00
H354   H     0.73900   0.29590   0.82350   0.01267  Uiso   1.00
H355   H     0.53830   0.86260   0.80650   0.01267  Uiso   1.00
H356   H     0.35610   0.86380   0.68430   0.01267  Uiso   1.00
H357   H     0.63280   0.16680   0.87450   0.01267  Uiso   1.00
H358   H     0.70660   0.17160   0.86710   0.01267  Uiso   1.00
H359   H     0.52010   0.04730   0.89370   0.01267  Uiso   1.00
H360   H     0.57070   0.03130   0.91340   0.01267  Uiso   1.00
H361   H     0.86490   0.13860   0.96030   0.01267  Uiso   1.00
H362   H     0.64840   0.13160   0.95170   0.01267  Uiso   1.00
H363   H     0.63730   0.21320   0.98720   0.01267  Uiso   1.00
H364   H     0.64180   0.29150   0.02450   0.01267  Uiso   1.00
H365   H     0.87340   0.33680   0.05510   0.01267  Uiso   1.00
H366   H     0.65820   0.35970   0.06460   0.01267  Uiso   1.00
H367   H     0.46510   0.92520   0.60790   0.01267  Uiso   1.00
H368   H     0.51900   0.89400   0.59250   0.01267  Uiso   1.00
C1     C     0.89410   0.66950   0.92400   0.01267  Uiso   1.00
C2     C     0.65560   0.54950   0.91950   0.01267  Uiso   1.00
C3     C     0.63480   0.55190   0.84490   0.01267  Uiso   1.00
C4     C     0.89560   0.68930   0.83850   0.01267  Uiso   1.00
C5     C     0.93570   0.65920   0.95110   0.01267  Uiso   1.00
C6     C     0.60810   0.57770   0.94250   0.01267  Uiso   1.00
C7     C     0.61130   0.60460   0.82300   0.01267  Uiso   1.00
C8     C     0.87500   0.71310   0.80980   0.01267  Uiso   1.00
C9     C     0.99290   0.70350   0.95890   0.01267  Uiso   1.00
C10    C     0.91450   0.60390   0.96840   0.01267  Uiso   1.00
C11    C     0.54550   0.54250   0.94980   0.01267  Uiso   1.00
C12    C     0.62640   0.64110   0.95580   0.01267  Uiso   1.00
C13    C     0.64750   0.66990   0.81940   0.01267  Uiso   1.00
C14    C     0.55830   0.58670   0.80370   0.01267  Uiso   1.00
C15    C     0.90970   0.77470   0.79970   0.01267  Uiso   1.00
C16    C     0.82610   0.67850   0.79350   0.01267  Uiso   1.00
C17    C     0.95240   0.59080   0.99160   0.01267  Uiso   1.00
C18    C     0.50430   0.56820   0.97210   0.01267  Uiso   1.00
C19    C     0.63260   0.71310   0.79680   0.01267  Uiso   1.00
C20    C     0.81210   0.70520   0.76750   0.01267  Uiso   1.00
C21    C     0.01200   0.63300   0.99770   0.01267  Uiso   1.00
C22    C     0.52910   0.62990   0.98540   0.01267  Uiso   1.00
C23    C     0.58220   0.68760   0.77790   0.01267  Uiso   1.00
C24    C     0.84790   0.76730   0.75890   0.01267  Uiso   1.00
C25    C     0.06110   0.62060   0.02120   0.01267  Uiso   1.00
C26    C     0.49690   0.65660   0.01090   0.01267  Uiso   1.00
C27    C     0.57060   0.72480   0.75110   0.01267  Uiso   1.00
C28    C     0.83330   0.80260   0.73230   0.01267  Uiso   1.00
C29    C     0.16770   0.65620   0.04270   0.01267  Uiso   1.00
C30    C     0.04900   0.56840   0.04100   0.01267  Uiso   1.00
C31    C     0.43570   0.62900   0.02340   0.01267  Uiso   1.00
C32    C     0.51170   0.73820   0.04660   0.01267  Uiso   1.00
C33    C     0.61010   0.78310   0.74200   0.01267  Uiso   1.00
C34    C     0.50880   0.72020   0.70980   0.01267  Uiso   1.00
C35    C     0.53290   0.53040   0.71040   0.01267  Uiso   1.00
C36    C     0.47430   0.45980   0.74240   0.01267  Uiso   1.00
C37    C     0.43030   0.46050   0.76810   0.01267  Uiso   1.00
C38    C     0.36920   0.53190   0.79910   0.01267  Uiso   1.00
C39    C     0.78500   0.77480   0.71300   0.01267  Uiso   1.00
C40    C     0.85160   0.90400   0.70530   0.01267  Uiso   1.00
C41    C     0.15950   0.60250   0.06270   0.01267  Uiso   1.00
C42    C     0.09820   0.55970   0.06160   0.01267  Uiso   1.00
C43    C     0.41290   0.65660   0.04870   0.01267  Uiso   1.00
C44    C     0.45220   0.71180   0.06020   0.01267  Uiso   1.00
C45    C     0.60030   0.81030   0.71640   0.01267  Uiso   1.00
C46    C     0.54980   0.77780   0.69910   0.01267  Uiso   1.00
C47    C     0.55000   0.47000   0.69430   0.01267  Uiso   1.00
C48    C     0.48930   0.39850   0.72760   0.01267  Uiso   1.00
C49    C     0.41090   0.39890   0.78230   0.01267  Uiso   1.00
C50    C     0.34690   0.47230   0.81420   0.01267  Uiso   1.00
C51    C     0.77060   0.81410   0.68970   0.01267  Uiso   1.00
C52    C     0.80300   0.88040   0.68580   0.01267  Uiso   1.00
C53    C     0.21550   0.59020   0.08520   0.01267  Uiso   1.00
C54    C     0.42940   0.74660   0.08690   0.01267  Uiso   1.00
C55    C     0.53730   0.79960   0.66980   0.01267  Uiso   1.00
C56    C     0.59090   0.48290   0.66820   0.01267  Uiso   1.00
C57    C     0.52760   0.40380   0.70350   0.01267  Uiso   1.00
C58    C     0.36910   0.40460   0.80580   0.01267  Uiso   1.00
C59    C     0.29540   0.48140   0.83810   0.01267  Uiso   1.00
C60    C     0.78390   0.92630   0.66170   0.01267  Uiso   1.00
C61    C     0.77180   0.57100   0.57020   0.01267  Uiso   1.00
C62    C     0.75690   0.62590   0.54740   0.01267  Uiso   1.00
C63    C     0.81880   0.65400   0.53440   0.01267  Uiso   1.00
C64    C     0.68970   0.64900   0.53950   0.01267  Uiso   1.00
C65    C     0.68300   0.69820   0.51850   0.01267  Uiso   1.00
C66    C     0.74440   0.72500   0.50610   0.01267  Uiso   1.00
C67    C     0.74700   0.77450   0.48210   0.01267  Uiso   1.00
C68    C     0.68830   0.80050   0.46890   0.01267  Uiso   1.00
C69    C     0.82620   0.82760   0.45090   0.01267  Uiso   1.00
C70    C     0.69800   0.84140   0.44490   0.01267  Uiso   1.00
C71    C     0.76790   0.85350   0.43580   0.01267  Uiso   1.00
C72    C     0.78420   0.89720   0.41010   0.01267  Uiso   1.00
C73    C     0.39410   0.33050   0.57600   0.01267  Uiso   1.00
C74    C     0.15560   0.45050   0.58050   0.01267  Uiso   1.00
C75    C     0.13480   0.44810   0.65510   0.01267  Uiso   1.00
C76    C     0.39560   0.31070   0.66150   0.01267  Uiso   1.00
C77    C     0.43570   0.34080   0.54890   0.01267  Uiso   1.00
C78    C     0.10810   0.42230   0.55750   0.01267  Uiso   1.00
C79    C     0.11130   0.39540   0.67700   0.01267  Uiso   1.00
C80    C     0.37500   0.28690   0.69020   0.01267  Uiso   1.00
C81    C     0.49290   0.29650   0.54110   0.01267  Uiso   1.00
C82    C     0.41450   0.39610   0.53160   0.01267  Uiso   1.00
C83    C     0.04550   0.45750   0.55020   0.01267  Uiso   1.00
C84    C     0.12640   0.35890   0.54420   0.01267  Uiso   1.00
C85    C     0.14750   0.33010   0.68060   0.01267  Uiso   1.00
C86    C     0.05830   0.41330   0.69630   0.01267  Uiso   1.00
C87    C     0.40970   0.22530   0.70030   0.01267  Uiso   1.00
C88    C     0.32610   0.32150   0.70650   0.01267  Uiso   1.00
C89    C     0.45240   0.40920   0.50840   0.01267  Uiso   1.00
C90    C     0.00430   0.43180   0.52790   0.01267  Uiso   1.00
C91    C     0.13260   0.28690   0.70320   0.01267  Uiso   1.00
C92    C     0.31210   0.29480   0.73250   0.01267  Uiso   1.00
C93    C     0.51200   0.36700   0.50230   0.01267  Uiso   1.00
C94    C     0.02910   0.37010   0.51460   0.01267  Uiso   1.00
C95    C     0.08220   0.31240   0.72210   0.01267  Uiso   1.00
C96    C     0.34790   0.23270   0.74110   0.01267  Uiso   1.00
C97    C     0.56110   0.37940   0.47880   0.01267  Uiso   1.00
C98    C     0.99690   0.34340   0.48910   0.01267  Uiso   1.00
C99    C     0.07060   0.27520   0.74890   0.01267  Uiso   1.00
C100   C     0.33330   0.19740   0.76770   0.01267  Uiso   1.00
C101   C     0.66770   0.34380   0.45730   0.01267  Uiso   1.00
C102   C     0.54900   0.43160   0.45900   0.01267  Uiso   1.00
C103   C     0.93570   0.37100   0.47660   0.01267  Uiso   1.00
C104   C     0.01170   0.26180   0.45340   0.01267  Uiso   1.00
C105   C     0.11010   0.21690   0.75800   0.01267  Uiso   1.00
C106   C     0.00880   0.27980   0.79020   0.01267  Uiso   1.00
C107   C     0.03290   0.46960   0.78960   0.01267  Uiso   1.00
C108   C     0.97430   0.54020   0.75760   0.01267  Uiso   1.00
C109   C     0.93030   0.53950   0.73190   0.01267  Uiso   1.00
C110   C     0.86920   0.46810   0.70090   0.01267  Uiso   1.00
C111   C     0.28500   0.22520   0.78700   0.01267  Uiso   1.00
C112   C     0.35160   0.09600   0.79470   0.01267  Uiso   1.00
C113   C     0.65950   0.39750   0.43730   0.01267  Uiso   1.00
C114   C     0.59820   0.44030   0.43840   0.01267  Uiso   1.00
C115   C     0.91290   0.34340   0.45130   0.01267  Uiso   1.00
C116   C     0.95220   0.28820   0.43980   0.01267  Uiso   1.00
C117   C     0.10030   0.18970   0.78360   0.01267  Uiso   1.00
C118   C     0.04980   0.22220   0.80090   0.01267  Uiso   1.00
C119   C     0.05000   0.53000   0.80570   0.01267  Uiso   1.00
C120   C     0.98930   0.60150   0.77240   0.01267  Uiso   1.00
C121   C     0.91090   0.60110   0.71770   0.01267  Uiso   1.00
C122   C     0.84690   0.52770   0.68580   0.01267  Uiso   1.00
C123   C     0.27060   0.18590   0.81030   0.01267  Uiso   1.00
C124   C     0.30300   0.11960   0.81420   0.01267  Uiso   1.00
C125   C     0.71550   0.40980   0.41480   0.01267  Uiso   1.00
C126   C     0.92940   0.25340   0.41310   0.01267  Uiso   1.00
C127   C     0.03730   0.20040   0.83020   0.01267  Uiso   1.00
C128   C     0.09090   0.51710   0.83180   0.01267  Uiso   1.00
C129   C     0.02760   0.59620   0.79650   0.01267  Uiso   1.00
C130   C     0.86910   0.59540   0.69420   0.01267  Uiso   1.00
C131   C     0.79540   0.51860   0.66190   0.01267  Uiso   1.00
C132   C     0.28390   0.07370   0.83830   0.01267  Uiso   1.00
C133   C     0.27180   0.42900   0.92980   0.01267  Uiso   1.00
C134   C     0.25690   0.37410   0.95260   0.01267  Uiso   1.00
C135   C     0.31880   0.34600   0.96560   0.01267  Uiso   1.00
C136   C     0.18970   0.35100   0.96050   0.01267  Uiso   1.00
C137   C     0.18300   0.30180   0.98150   0.01267  Uiso   1.00
C138   C     0.24440   0.27500   0.99390   0.01267  Uiso   1.00
C139   C     0.24700   0.22550   0.01790   0.01267  Uiso   1.00
C140   C     0.18830   0.19950   0.03110   0.01267  Uiso   1.00
C141   C     0.32620   0.17240   0.04910   0.01267  Uiso   1.00
C142   C     0.19800   0.15860   0.05510   0.01267  Uiso   1.00
C143   C     0.26790   0.14650   0.06420   0.01267  Uiso   1.00
C144   C     0.28420   0.10280   0.08990   0.01267  Uiso   1.00
C145   C     0.60590   0.16950   0.07600   0.01267  Uiso   1.00
C146   C     0.84440   0.04950   0.08050   0.01267  Uiso   1.00
C147   C     0.86520   0.05190   0.15510   0.01267  Uiso   1.00
C148   C     0.60440   0.18930   0.16150   0.01267  Uiso   1.00
C149   C     0.56430   0.15920   0.04890   0.01267  Uiso   1.00
C150   C     0.89190   0.07770   0.05750   0.01267  Uiso   1.00
C151   C     0.88870   0.10460   0.17700   0.01267  Uiso   1.00
C152   C     0.62500   0.21310   0.19020   0.01267  Uiso   1.00
C153   C     0.50710   0.20350   0.04110   0.01267  Uiso   1.00
C154   C     0.58550   0.10390   0.03160   0.01267  Uiso   1.00
C155   C     0.95450   0.04250   0.05020   0.01267  Uiso   1.00
C156   C     0.87360   0.14110   0.04420   0.01267  Uiso   1.00
C157   C     0.85250   0.16990   0.18060   0.01267  Uiso   1.00
C158   C     0.94170   0.08670   0.19630   0.01267  Uiso   1.00
C159   C     0.59030   0.27470   0.20030   0.01267  Uiso   1.00
C160   C     0.67390   0.17850   0.20650   0.01267  Uiso   1.00
C161   C     0.54760   0.09080   0.00840   0.01267  Uiso   1.00
C162   C     0.99570   0.06820   0.02790   0.01267  Uiso   1.00
C163   C     0.86740   0.21310   0.20320   0.01267  Uiso   1.00
C164   C     0.68790   0.20520   0.23250   0.01267  Uiso   1.00
C165   C     0.48800   0.13300   0.00230   0.01267  Uiso   1.00
C166   C     0.97090   0.12990   0.01460   0.01267  Uiso   1.00
C167   C     0.91780   0.18760   0.22210   0.01267  Uiso   1.00
C168   C     0.65210   0.26730   0.24110   0.01267  Uiso   1.00
C169   C     0.43890   0.12060   0.97880   0.01267  Uiso   1.00
C170   C     0.00310   0.15660   0.98910   0.01267  Uiso   1.00
C171   C     0.92940   0.22480   0.24890   0.01267  Uiso   1.00
C172   C     0.66670   0.30260   0.26770   0.01267  Uiso   1.00
C173   C     0.33230   0.15620   0.95730   0.01267  Uiso   1.00
C174   C     0.45100   0.06840   0.95900   0.01267  Uiso   1.00
C175   C     0.06430   0.12900   0.97660   0.01267  Uiso   1.00
C176   C     0.98830   0.23820   0.95340   0.01267  Uiso   1.00
C177   C     0.88990   0.28310   0.25800   0.01267  Uiso   1.00
C178   C     0.99120   0.22020   0.29020   0.01267  Uiso   1.00
C179   C     0.96710   0.03040   0.28960   0.01267  Uiso   1.00
C180   C     0.02570   0.95980   0.25760   0.01267  Uiso   1.00
C181   C     0.06970   0.96050   0.23190   0.01267  Uiso   1.00
C182   C     0.13080   0.03190   0.20090   0.01267  Uiso   1.00
C183   C     0.71500   0.27480   0.28700   0.01267  Uiso   1.00
C184   C     0.64840   0.40400   0.29470   0.01267  Uiso   1.00
C185   C     0.34050   0.10250   0.93730   0.01267  Uiso   1.00
C186   C     0.40180   0.05970   0.93840   0.01267  Uiso   1.00
C187   C     0.08710   0.15660   0.95130   0.01267  Uiso   1.00
C188   C     0.04780   0.21180   0.93980   0.01267  Uiso   1.00
C189   C     0.89970   0.31030   0.28360   0.01267  Uiso   1.00
C190   C     0.95020   0.27780   0.30090   0.01267  Uiso   1.00
C191   C     0.95000   0.97000   0.30570   0.01267  Uiso   1.00
C192   C     0.01070   0.89850   0.27240   0.01267  Uiso   1.00
C193   C     0.08910   0.89890   0.21770   0.01267  Uiso   1.00
C194   C     0.15310   0.97230   0.18580   0.01267  Uiso   1.00
C195   C     0.72940   0.31410   0.31030   0.01267  Uiso   1.00
C196   C     0.69700   0.38040   0.31420   0.01267  Uiso   1.00
C197   C     0.28450   0.09020   0.91480   0.01267  Uiso   1.00
C198   C     0.07060   0.24660   0.91310   0.01267  Uiso   1.00
C199   C     0.96270   0.29960   0.33020   0.01267  Uiso   1.00
C200   C     0.90910   0.98290   0.33180   0.01267  Uiso   1.00
C201   C     0.97240   0.90380   0.29650   0.01267  Uiso   1.00
C202   C     0.13090   0.90460   0.19420   0.01267  Uiso   1.00
C203   C     0.20460   0.98140   0.16190   0.01267  Uiso   1.00
C204   C     0.71610   0.42630   0.33830   0.01267  Uiso   1.00
C205   C     0.72820   0.07100   0.42980   0.01267  Uiso   1.00
C206   C     0.74310   0.12590   0.45260   0.01267  Uiso   1.00
C207   C     0.68120   0.15400   0.46560   0.01267  Uiso   1.00
C208   C     0.81030   0.14900   0.46050   0.01267  Uiso   1.00
C209   C     0.81700   0.19820   0.48150   0.01267  Uiso   1.00
C210   C     0.75560   0.22500   0.49390   0.01267  Uiso   1.00
C211   C     0.75300   0.27450   0.51790   0.01267  Uiso   1.00
C212   C     0.81170   0.30050   0.53110   0.01267  Uiso   1.00
C213   C     0.67380   0.32760   0.54910   0.01267  Uiso   1.00
C214   C     0.80200   0.34140   0.55510   0.01267  Uiso   1.00
C215   C     0.73210   0.35350   0.56420   0.01267  Uiso   1.00
C216   C     0.71580   0.39720   0.58990   0.01267  Uiso   1.00
C217   C     0.10590   0.83050   0.42400   0.01267  Uiso   1.00
C218   C     0.34440   0.95050   0.41950   0.01267  Uiso   1.00
C219   C     0.36520   0.94810   0.34490   0.01267  Uiso   1.00
C220   C     0.10440   0.81070   0.33850   0.01267  Uiso   1.00
C221   C     0.06430   0.84080   0.45110   0.01267  Uiso   1.00
C222   C     0.39190   0.92230   0.44250   0.01267  Uiso   1.00
C223   C     0.38870   0.89540   0.32300   0.01267  Uiso   1.00
C224   C     0.12500   0.78690   0.30980   0.01267  Uiso   1.00
C225   C     0.00710   0.79650   0.45890   0.01267  Uiso   1.00
C226   C     0.08550   0.89610   0.46840   0.01267  Uiso   1.00
C227   C     0.45450   0.95750   0.44980   0.01267  Uiso   1.00
C228   C     0.37360   0.85890   0.45580   0.01267  Uiso   1.00
C229   C     0.35250   0.83010   0.31940   0.01267  Uiso   1.00
C230   C     0.44170   0.91330   0.30370   0.01267  Uiso   1.00
C231   C     0.09030   0.72530   0.29970   0.01267  Uiso   1.00
C232   C     0.17390   0.82150   0.29350   0.01267  Uiso   1.00
C233   C     0.04760   0.90920   0.49160   0.01267  Uiso   1.00
C234   C     0.49570   0.93180   0.47210   0.01267  Uiso   1.00
C235   C     0.36740   0.78690   0.29680   0.01267  Uiso   1.00
C236   C     0.18790   0.79480   0.26750   0.01267  Uiso   1.00
C237   C     0.98800   0.86700   0.49770   0.01267  Uiso   1.00
C238   C     0.47090   0.87010   0.48540   0.01267  Uiso   1.00
C239   C     0.41780   0.81240   0.27790   0.01267  Uiso   1.00
C240   C     0.15210   0.73270   0.25890   0.01267  Uiso   1.00
C241   C     0.93890   0.87940   0.52120   0.01267  Uiso   1.00
C242   C     0.50310   0.84340   0.51090   0.01267  Uiso   1.00
C243   C     0.42940   0.77520   0.25110   0.01267  Uiso   1.00
C244   C     0.16670   0.69740   0.23230   0.01267  Uiso   1.00
C245   C     0.83230   0.84380   0.54270   0.01267  Uiso   1.00
C246   C     0.95100   0.93160   0.54100   0.01267  Uiso   1.00
C247   C     0.56430   0.87100   0.52340   0.01267  Uiso   1.00
C248   C     0.48830   0.76180   0.54660   0.01267  Uiso   1.00
C249   C     0.38990   0.71690   0.24200   0.01267  Uiso   1.00
C250   C     0.49120   0.77980   0.20980   0.01267  Uiso   1.00
C251   C     0.46710   0.96960   0.21040   0.01267  Uiso   1.00
C252   C     0.52570   0.04020   0.24240   0.01267  Uiso   1.00
C253   C     0.56970   0.03950   0.26810   0.01267  Uiso   1.00
C254   C     0.63080   0.96810   0.29910   0.01267  Uiso   1.00
C255   C     0.21500   0.72520   0.21300   0.01267  Uiso   1.00
C256   C     0.14840   0.59600   0.20530   0.01267  Uiso   1.00
C257   C     0.84050   0.89750   0.56270   0.01267  Uiso   1.00
C258   C     0.90180   0.94030   0.56160   0.01267  Uiso   1.00
C259   C     0.58710   0.84340   0.54870   0.01267  Uiso   1.00
C260   C     0.54780   0.78820   0.56020   0.01267  Uiso   1.00
C261   C     0.39970   0.68970   0.21640   0.01267  Uiso   1.00
C262   C     0.45020   0.72220   0.19910   0.01267  Uiso   1.00
C263   C     0.45000   0.03000   0.19430   0.01267  Uiso   1.00
C264   C     0.51070   0.10150   0.22760   0.01267  Uiso   1.00
C265   C     0.58910   0.10110   0.28230   0.01267  Uiso   1.00
C266   C     0.65310   0.02770   0.31420   0.01267  Uiso   1.00
C267   C     0.22940   0.68590   0.18970   0.01267  Uiso   1.00
C268   C     0.19700   0.61960   0.18580   0.01267  Uiso   1.00
C269   C     0.78450   0.90980   0.58520   0.01267  Uiso   1.00
C270   C     0.57060   0.75340   0.58690   0.01267  Uiso   1.00
C271   C     0.46270   0.70040   0.16980   0.01267  Uiso   1.00
C272   C     0.40910   0.01710   0.16820   0.01267  Uiso   1.00
C273   C     0.47240   0.09620   0.20350   0.01267  Uiso   1.00
C274   C     0.63090   0.09540   0.30580   0.01267  Uiso   1.00
C275   C     0.70460   0.01860   0.33810   0.01267  Uiso   1.00
C276   C     0.21610   0.57370   0.16170   0.01267  Uiso   1.00
C277   C     0.22820   0.92900   0.07020   0.01267  Uiso   1.00
C278   C     0.24310   0.87410   0.04740   0.01267  Uiso   1.00
C279   C     0.18120   0.84600   0.03440   0.01267  Uiso   1.00
C280   C     0.31030   0.85100   0.03950   0.01267  Uiso   1.00
C281   C     0.31700   0.80180   0.01850   0.01267  Uiso   1.00
C282   C     0.25560   0.77500   0.00610   0.01267  Uiso   1.00
C283   C     0.25300   0.72550   0.98210   0.01267  Uiso   1.00
C284   C     0.31170   0.69950   0.96890   0.01267  Uiso   1.00
C285   C     0.17380   0.67240   0.95090   0.01267  Uiso   1.00
C286   C     0.30200   0.65860   0.94490   0.01267  Uiso   1.00
C287   C     0.23210   0.64650   0.93580   0.01267  Uiso   1.00
C288   C     0.21580   0.60280   0.91010   0.01267  Uiso   1.00
C289   C     0.10590   0.33050   0.07600   0.01267  Uiso   1.00
C290   C     0.34440   0.45050   0.08050   0.01267  Uiso   1.00
C291   C     0.36520   0.44810   0.15510   0.01267  Uiso   1.00
C292   C     0.10440   0.31070   0.16150   0.01267  Uiso   1.00
C293   C     0.06430   0.34080   0.04890   0.01267  Uiso   1.00
C294   C     0.39190   0.42230   0.05750   0.01267  Uiso   1.00
C295   C     0.38870   0.39540   0.17700   0.01267  Uiso   1.00
C296   C     0.12500   0.28690   0.19020   0.01267  Uiso   1.00
C297   C     0.00710   0.29650   0.04110   0.01267  Uiso   1.00
C298   C     0.08550   0.39610   0.03160   0.01267  Uiso   1.00
C299   C     0.45450   0.45750   0.05020   0.01267  Uiso   1.00
C300   C     0.37360   0.35890   0.04420   0.01267  Uiso   1.00
C301   C     0.35250   0.33010   0.18060   0.01267  Uiso   1.00
C302   C     0.44170   0.41330   0.19630   0.01267  Uiso   1.00
C303   C     0.09030   0.22530   0.20030   0.01267  Uiso   1.00
C304   C     0.17390   0.32150   0.20650   0.01267  Uiso   1.00
C305   C     0.04760   0.40920   0.00840   0.01267  Uiso   1.00
C306   C     0.49570   0.43180   0.02790   0.01267  Uiso   1.00
C307   C     0.36740   0.28690   0.20320   0.01267  Uiso   1.00
C308   C     0.18790   0.29480   0.23250   0.01267  Uiso   1.00
C309   C     0.98800   0.36700   0.00230   0.01267  Uiso   1.00
C310   C     0.47090   0.37010   0.01460   0.01267  Uiso   1.00
C311   C     0.41780   0.31240   0.22210   0.01267  Uiso   1.00
C312   C     0.15210   0.23270   0.24110   0.01267  Uiso   1.00
C313   C     0.93890   0.37940   0.97880   0.01267  Uiso   1.00
C314   C     0.50310   0.34340   0.98910   0.01267  Uiso   1.00
C315   C     0.42940   0.27520   0.24890   0.01267  Uiso   1.00
C316   C     0.16670   0.19740   0.26770   0.01267  Uiso   1.00
C317   C     0.83230   0.34380   0.95730   0.01267  Uiso   1.00
C318   C     0.95100   0.43160   0.95900   0.01267  Uiso   1.00
C319   C     0.56430   0.37100   0.97660   0.01267  Uiso   1.00
C320   C     0.48830   0.26180   0.95340   0.01267  Uiso   1.00
C321   C     0.38990   0.21690   0.25800   0.01267  Uiso   1.00
C322   C     0.49120   0.27980   0.29020   0.01267  Uiso   1.00
C323   C     0.46710   0.46960   0.28960   0.01267  Uiso   1.00
C324   C     0.52570   0.54020   0.25760   0.01267  Uiso   1.00
C325   C     0.56970   0.53950   0.23190   0.01267  Uiso   1.00
C326   C     0.63080   0.46810   0.20090   0.01267  Uiso   1.00
C327   C     0.21500   0.22520   0.28700   0.01267  Uiso   1.00
C328   C     0.14840   0.09600   0.29470   0.01267  Uiso   1.00
C329   C     0.84050   0.39750   0.93730   0.01267  Uiso   1.00
C330   C     0.90180   0.44030   0.93840   0.01267  Uiso   1.00
C331   C     0.58710   0.34340   0.95130   0.01267  Uiso   1.00
C332   C     0.54780   0.28820   0.93980   0.01267  Uiso   1.00
C333   C     0.39970   0.18970   0.28360   0.01267  Uiso   1.00
C334   C     0.45020   0.22220   0.30090   0.01267  Uiso   1.00
C335   C     0.45000   0.53000   0.30570   0.01267  Uiso   1.00
C336   C     0.51070   0.60150   0.27240   0.01267  Uiso   1.00
C337   C     0.58910   0.60110   0.21770   0.01267  Uiso   1.00
C338   C     0.65310   0.52770   0.18580   0.01267  Uiso   1.00
C339   C     0.22940   0.18590   0.31030   0.01267  Uiso   1.00
C340   C     0.19700   0.11960   0.31420   0.01267  Uiso   1.00
C341   C     0.78450   0.40980   0.91480   0.01267  Uiso   1.00
C342   C     0.57060   0.25340   0.91310   0.01267  Uiso   1.00
C343   C     0.46270   0.20040   0.33020   0.01267  Uiso   1.00
C344   C     0.40910   0.51710   0.33180   0.01267  Uiso   1.00
C345   C     0.47240   0.59620   0.29650   0.01267  Uiso   1.00
C346   C     0.63090   0.59540   0.19420   0.01267  Uiso   1.00
C347   C     0.70460   0.51860   0.16190   0.01267  Uiso   1.00
C348   C     0.21610   0.07370   0.33830   0.01267  Uiso   1.00
C349   C     0.22820   0.42900   0.42980   0.01267  Uiso   1.00
C350   C     0.24310   0.37410   0.45260   0.01267  Uiso   1.00
C351   C     0.18120   0.34600   0.46560   0.01267  Uiso   1.00
C352   C     0.31030   0.35100   0.46050   0.01267  Uiso   1.00
C353   C     0.31700   0.30180   0.48150   0.01267  Uiso   1.00
C354   C     0.25560   0.27500   0.49390   0.01267  Uiso   1.00
C355   C     0.25300   0.22550   0.51790   0.01267  Uiso   1.00
C356   C     0.31170   0.19950   0.53110   0.01267  Uiso   1.00
C357   C     0.17380   0.17240   0.54910   0.01267  Uiso   1.00
C358   C     0.30200   0.15860   0.55510   0.01267  Uiso   1.00
C359   C     0.23210   0.14650   0.56420   0.01267  Uiso   1.00
C360   C     0.21580   0.10280   0.58990   0.01267  Uiso   1.00
C361   C     0.60590   0.66950   0.42400   0.01267  Uiso   1.00
C362   C     0.84440   0.54950   0.41950   0.01267  Uiso   1.00
C363   C     0.86520   0.55190   0.34490   0.01267  Uiso   1.00
C364   C     0.60440   0.68930   0.33850   0.01267  Uiso   1.00
C365   C     0.56430   0.65920   0.45110   0.01267  Uiso   1.00
C366   C     0.89190   0.57770   0.44250   0.01267  Uiso   1.00
C367   C     0.88870   0.60460   0.32300   0.01267  Uiso   1.00
C368   C     0.62500   0.71310   0.30980   0.01267  Uiso   1.00
C369   C     0.50710   0.70350   0.45890   0.01267  Uiso   1.00
C370   C     0.58550   0.60390   0.46840   0.01267  Uiso   1.00
C371   C     0.95450   0.54250   0.44980   0.01267  Uiso   1.00
C372   C     0.87360   0.64110   0.45580   0.01267  Uiso   1.00
C373   C     0.85250   0.66990   0.31940   0.01267  Uiso   1.00
C374   C     0.94170   0.58670   0.30370   0.01267  Uiso   1.00
C375   C     0.59030   0.77470   0.29970   0.01267  Uiso   1.00
C376   C     0.67390   0.67850   0.29350   0.01267  Uiso   1.00
C377   C     0.54760   0.59080   0.49160   0.01267  Uiso   1.00
C378   C     0.99570   0.56820   0.47210   0.01267  Uiso   1.00
C379   C     0.86740   0.71310   0.29680   0.01267  Uiso   1.00
C380   C     0.68790   0.70520   0.26750   0.01267  Uiso   1.00
C381   C     0.48800   0.63300   0.49770   0.01267  Uiso   1.00
C382   C     0.97090   0.62990   0.48540   0.01267  Uiso   1.00
C383   C     0.91780   0.68760   0.27790   0.01267  Uiso   1.00
C384   C     0.65210   0.76730   0.25890   0.01267  Uiso   1.00
C385   C     0.43890   0.62060   0.52120   0.01267  Uiso   1.00
C386   C     0.00310   0.65660   0.51090   0.01267  Uiso   1.00
C387   C     0.92940   0.72480   0.25110   0.01267  Uiso   1.00
C388   C     0.66670   0.80260   0.23230   0.01267  Uiso   1.00
C389   C     0.33230   0.65620   0.54270   0.01267  Uiso   1.00
C390   C     0.45100   0.56840   0.54100   0.01267  Uiso   1.00
C391   C     0.06430   0.62900   0.52340   0.01267  Uiso   1.00
C392   C     0.98830   0.73820   0.54660   0.01267  Uiso   1.00
C393   C     0.88990   0.78310   0.24200   0.01267  Uiso   1.00
C394   C     0.99120   0.72020   0.20980   0.01267  Uiso   1.00
C395   C     0.96710   0.53040   0.21040   0.01267  Uiso   1.00
C396   C     0.02570   0.45980   0.24240   0.01267  Uiso   1.00
C397   C     0.06970   0.46050   0.26810   0.01267  Uiso   1.00
C398   C     0.13080   0.53190   0.29910   0.01267  Uiso   1.00
C399   C     0.71500   0.77480   0.21300   0.01267  Uiso   1.00
C400   C     0.64840   0.90400   0.20530   0.01267  Uiso   1.00
C401   C     0.34050   0.60250   0.56270   0.01267  Uiso   1.00
C402   C     0.40180   0.55970   0.56160   0.01267  Uiso   1.00
C403   C     0.08710   0.65660   0.54870   0.01267  Uiso   1.00
C404   C     0.04780   0.71180   0.56020   0.01267  Uiso   1.00
C405   C     0.89970   0.81030   0.21640   0.01267  Uiso   1.00
C406   C     0.95020   0.77780   0.19910   0.01267  Uiso   1.00
C407   C     0.95000   0.47000   0.19430   0.01267  Uiso   1.00
C408   C     0.01070   0.39850   0.22760   0.01267  Uiso   1.00
C409   C     0.08910   0.39890   0.28230   0.01267  Uiso   1.00
C410   C     0.15310   0.47230   0.31420   0.01267  Uiso   1.00
C411   C     0.72940   0.81410   0.18970   0.01267  Uiso   1.00
C412   C     0.69700   0.88040   0.18580   0.01267  Uiso   1.00
C413   C     0.28450   0.59020   0.58520   0.01267  Uiso   1.00
C414   C     0.07060   0.74660   0.58690   0.01267  Uiso   1.00
C415   C     0.96270   0.79960   0.16980   0.01267  Uiso   1.00
C416   C     0.90910   0.48290   0.16820   0.01267  Uiso   1.00
C417   C     0.97240   0.40380   0.20350   0.01267  Uiso   1.00
C418   C     0.13090   0.40460   0.30580   0.01267  Uiso   1.00
C419   C     0.20460   0.48140   0.33810   0.01267  Uiso   1.00
C420   C     0.71610   0.92630   0.16170   0.01267  Uiso   1.00
C421   C     0.72820   0.57100   0.07020   0.01267  Uiso   1.00
C422   C     0.74310   0.62590   0.04740   0.01267  Uiso   1.00
C423   C     0.68120   0.65400   0.03440   0.01267  Uiso   1.00
C424   C     0.81030   0.64900   0.03950   0.01267  Uiso   1.00
C425   C     0.81700   0.69820   0.01850   0.01267  Uiso   1.00
C426   C     0.75560   0.72500   0.00610   0.01267  Uiso   1.00
C427   C     0.75300   0.77450   0.98210   0.01267  Uiso   1.00
C428   C     0.81170   0.80050   0.96890   0.01267  Uiso   1.00
C429   C     0.67380   0.82760   0.95090   0.01267  Uiso   1.00
C430   C     0.80200   0.84140   0.94490   0.01267  Uiso   1.00
C431   C     0.73210   0.85350   0.93580   0.01267  Uiso   1.00
C432   C     0.71580   0.89720   0.91010   0.01267  Uiso   1.00
C433   C     0.39410   0.83050   0.92400   0.01267  Uiso   1.00
C434   C     0.15560   0.95050   0.91950   0.01267  Uiso   1.00
C435   C     0.13480   0.94810   0.84490   0.01267  Uiso   1.00
C436   C     0.39560   0.81070   0.83850   0.01267  Uiso   1.00
C437   C     0.43570   0.84080   0.95110   0.01267  Uiso   1.00
C438   C     0.10810   0.92230   0.94250   0.01267  Uiso   1.00
C439   C     0.11130   0.89540   0.82300   0.01267  Uiso   1.00
C440   C     0.37500   0.78690   0.80980   0.01267  Uiso   1.00
C441   C     0.49290   0.79650   0.95890   0.01267  Uiso   1.00
C442   C     0.41450   0.89610   0.96840   0.01267  Uiso   1.00
C443   C     0.04550   0.95750   0.94980   0.01267  Uiso   1.00
C444   C     0.12640   0.85890   0.95580   0.01267  Uiso   1.00
C445   C     0.14750   0.83010   0.81940   0.01267  Uiso   1.00
C446   C     0.05830   0.91330   0.80370   0.01267  Uiso   1.00
C447   C     0.40970   0.72530   0.79970   0.01267  Uiso   1.00
C448   C     0.32610   0.82150   0.79350   0.01267  Uiso   1.00
C449   C     0.45240   0.90920   0.99160   0.01267  Uiso   1.00
C450   C     0.00430   0.93180   0.97210   0.01267  Uiso   1.00
C451   C     0.13260   0.78690   0.79680   0.01267  Uiso   1.00
C452   C     0.31210   0.79480   0.76750   0.01267  Uiso   1.00
C453   C     0.51200   0.86700   0.99770   0.01267  Uiso   1.00
C454   C     0.02910   0.87010   0.98540   0.01267  Uiso   1.00
C455   C     0.08220   0.81240   0.77790   0.01267  Uiso   1.00
C456   C     0.34790   0.73270   0.75890   0.01267  Uiso   1.00
C457   C     0.56110   0.87940   0.02120   0.01267  Uiso   1.00
C458   C     0.99690   0.84340   0.01090   0.01267  Uiso   1.00
C459   C     0.07060   0.77520   0.75110   0.01267  Uiso   1.00
C460   C     0.33330   0.69740   0.73230   0.01267  Uiso   1.00
C461   C     0.66770   0.84380   0.04270   0.01267  Uiso   1.00
C462   C     0.54900   0.93160   0.04100   0.01267  Uiso   1.00
C463   C     0.93570   0.87100   0.02340   0.01267  Uiso   1.00
C464   C     0.01170   0.76180   0.04660   0.01267  Uiso   1.00
C465   C     0.11010   0.71690   0.74200   0.01267  Uiso   1.00
C466   C     0.00880   0.77980   0.70980   0.01267  Uiso   1.00
C467   C     0.03290   0.96960   0.71040   0.01267  Uiso   1.00
C468   C     0.97430   0.04020   0.74240   0.01267  Uiso   1.00
C469   C     0.93030   0.03950   0.76810   0.01267  Uiso   1.00
C470   C     0.86920   0.96810   0.79910   0.01267  Uiso   1.00
C471   C     0.28500   0.72520   0.71300   0.01267  Uiso   1.00
C472   C     0.35160   0.59600   0.70530   0.01267  Uiso   1.00
C473   C     0.65950   0.89750   0.06270   0.01267  Uiso   1.00
C474   C     0.59820   0.94030   0.06160   0.01267  Uiso   1.00
C475   C     0.91290   0.84340   0.04870   0.01267  Uiso   1.00
C476   C     0.95220   0.78820   0.06020   0.01267  Uiso   1.00
C477   C     0.10030   0.68970   0.71640   0.01267  Uiso   1.00
C478   C     0.04980   0.72220   0.69910   0.01267  Uiso   1.00
C479   C     0.05000   0.03000   0.69430   0.01267  Uiso   1.00
C480   C     0.98930   0.10150   0.72760   0.01267  Uiso   1.00
C481   C     0.91090   0.10110   0.78230   0.01267  Uiso   1.00
C482   C     0.84690   0.02770   0.81420   0.01267  Uiso   1.00
C483   C     0.27060   0.68590   0.68970   0.01267  Uiso   1.00
C484   C     0.30300   0.61960   0.68580   0.01267  Uiso   1.00
C485   C     0.71550   0.90980   0.08520   0.01267  Uiso   1.00
C486   C     0.92940   0.75340   0.08690   0.01267  Uiso   1.00
C487   C     0.03730   0.70040   0.66980   0.01267  Uiso   1.00
C488   C     0.09090   0.01710   0.66820   0.01267  Uiso   1.00
C489   C     0.02760   0.09620   0.70350   0.01267  Uiso   1.00
C490   C     0.86910   0.09540   0.80580   0.01267  Uiso   1.00
C491   C     0.79540   0.01860   0.83810   0.01267  Uiso   1.00
C492   C     0.28390   0.57370   0.66170   0.01267  Uiso   1.00
C493   C     0.27180   0.92900   0.57020   0.01267  Uiso   1.00
C494   C     0.25690   0.87410   0.54740   0.01267  Uiso   1.00
C495   C     0.31880   0.84600   0.53440   0.01267  Uiso   1.00
C496   C     0.18970   0.85100   0.53950   0.01267  Uiso   1.00
C497   C     0.18300   0.80180   0.51850   0.01267  Uiso   1.00
C498   C     0.24440   0.77500   0.50610   0.01267  Uiso   1.00
C499   C     0.24700   0.72550   0.48210   0.01267  Uiso   1.00
C500   C     0.18830   0.69950   0.46890   0.01267  Uiso   1.00
C501   C     0.32620   0.67240   0.45090   0.01267  Uiso   1.00
C502   C     0.19800   0.65860   0.44490   0.01267  Uiso   1.00
C503   C     0.26790   0.64650   0.43580   0.01267  Uiso   1.00
C504   C     0.28420   0.60280   0.41010   0.01267  Uiso   1.00
C505   C     0.89410   0.16950   0.57600   0.01267  Uiso   1.00
C506   C     0.65560   0.04950   0.58050   0.01267  Uiso   1.00
C507   C     0.63480   0.05190   0.65510   0.01267  Uiso   1.00
C508   C     0.89560   0.18930   0.66150   0.01267  Uiso   1.00
C509   C     0.93570   0.15920   0.54890   0.01267  Uiso   1.00
C510   C     0.60810   0.07770   0.55750   0.01267  Uiso   1.00
C511   C     0.61130   0.10460   0.67700   0.01267  Uiso   1.00
C512   C     0.87500   0.21310   0.69020   0.01267  Uiso   1.00
C513   C     0.99290   0.20350   0.54110   0.01267  Uiso   1.00
C514   C     0.91450   0.10390   0.53160   0.01267  Uiso   1.00
C515   C     0.54550   0.04250   0.55020   0.01267  Uiso   1.00
C516   C     0.62640   0.14110   0.54420   0.01267  Uiso   1.00
C517   C     0.64750   0.16990   0.68060   0.01267  Uiso   1.00
C518   C     0.55830   0.08670   0.69630   0.01267  Uiso   1.00
C519   C     0.90970   0.27470   0.70030   0.01267  Uiso   1.00
C520   C     0.82610   0.17850   0.70650   0.01267  Uiso   1.00
C521   C     0.95240   0.09080   0.50840   0.01267  Uiso   1.00
C522   C     0.50430   0.06820   0.52790   0.01267  Uiso   1.00
C523   C     0.63260   0.21310   0.70320   0.01267  Uiso   1.00
C524   C     0.81210   0.20520   0.73250   0.01267  Uiso   1.00
C525   C     0.01200   0.13300   0.50230   0.01267  Uiso   1.00
C526   C     0.52910   0.12990   0.51460   0.01267  Uiso   1.00
C527   C     0.58220   0.18760   0.72210   0.01267  Uiso   1.00
C528   C     0.84790   0.26730   0.74110   0.01267  Uiso   1.00
C529   C     0.06110   0.12060   0.47880   0.01267  Uiso   1.00
C530   C     0.49690   0.15660   0.48910   0.01267  Uiso   1.00
C531   C     0.57060   0.22480   0.74890   0.01267  Uiso   1.00
C532   C     0.83330   0.30260   0.76770   0.01267  Uiso   1.00
C533   C     0.16770   0.15620   0.45730   0.01267  Uiso   1.00
C534   C     0.04900   0.06840   0.45900   0.01267  Uiso   1.00
C535   C     0.43570   0.12900   0.47660   0.01267  Uiso   1.00
C536   C     0.51170   0.23820   0.45340   0.01267  Uiso   1.00
C537   C     0.61010   0.28310   0.75800   0.01267  Uiso   1.00
C538   C     0.50880   0.22020   0.79020   0.01267  Uiso   1.00
C539   C     0.53290   0.03040   0.78960   0.01267  Uiso   1.00
C540   C     0.47430   0.95980   0.75760   0.01267  Uiso   1.00
C541   C     0.43030   0.96050   0.73190   0.01267  Uiso   1.00
C542   C     0.36920   0.03190   0.70090   0.01267  Uiso   1.00
C543   C     0.78500   0.27480   0.78700   0.01267  Uiso   1.00
C544   C     0.85160   0.40400   0.79470   0.01267  Uiso   1.00
C545   C     0.15950   0.10250   0.43730   0.01267  Uiso   1.00
C546   C     0.09820   0.05970   0.43840   0.01267  Uiso   1.00
C547   C     0.41290   0.15660   0.45130   0.01267  Uiso   1.00
C548   C     0.45220   0.21180   0.43980   0.01267  Uiso   1.00
C549   C     0.60030   0.31030   0.78360   0.01267  Uiso   1.00
C550   C     0.54980   0.27780   0.80090   0.01267  Uiso   1.00
C551   C     0.55000   0.97000   0.80570   0.01267  Uiso   1.00
C552   C     0.48930   0.89850   0.77240   0.01267  Uiso   1.00
C553   C     0.41090   0.89890   0.71770   0.01267  Uiso   1.00
C554   C     0.34690   0.97230   0.68580   0.01267  Uiso   1.00
C555   C     0.77060   0.31410   0.81030   0.01267  Uiso   1.00
C556   C     0.80300   0.38040   0.81420   0.01267  Uiso   1.00
C557   C     0.21550   0.09020   0.41480   0.01267  Uiso   1.00
C558   C     0.42940   0.24660   0.41310   0.01267  Uiso   1.00
C559   C     0.53730   0.29960   0.83020   0.01267  Uiso   1.00
C560   C     0.59090   0.98290   0.83180   0.01267  Uiso   1.00
C561   C     0.52760   0.90380   0.79650   0.01267  Uiso   1.00
C562   C     0.36910   0.90460   0.69420   0.01267  Uiso   1.00
C563   C     0.29540   0.98140   0.66190   0.01267  Uiso   1.00
C564   C     0.78390   0.42630   0.83830   0.01267  Uiso   1.00
C565   C     0.77180   0.07100   0.92980   0.01267  Uiso   1.00
C566   C     0.75690   0.12590   0.95260   0.01267  Uiso   1.00
C567   C     0.81880   0.15400   0.96560   0.01267  Uiso   1.00
C568   C     0.68970   0.14900   0.96050   0.01267  Uiso   1.00
C569   C     0.68300   0.19820   0.98150   0.01267  Uiso   1.00
C570   C     0.74440   0.22500   0.99390   0.01267  Uiso   1.00
C571   C     0.74700   0.27450   0.01790   0.01267  Uiso   1.00
C572   C     0.68830   0.30050   0.03110   0.01267  Uiso   1.00
C573   C     0.82620   0.32760   0.04910   0.01267  Uiso   1.00
C574   C     0.69800   0.34140   0.05510   0.01267  Uiso   1.00
C575   C     0.76790   0.35350   0.06420   0.01267  Uiso   1.00
C576   C     0.78420   0.39720   0.08990   0.01267  Uiso   1.00
N1     N     0.03150   0.68970   0.98190   0.01267  Uiso   1.00
N2     N     0.58750   0.66680   0.97680   0.01267  Uiso   1.00
N3     N     0.54320   0.62700   0.78180   0.01267  Uiso   1.00
N4     N     0.89730   0.80170   0.77460   0.01267  Uiso   1.00
N5     N     0.11960   0.66580   0.02280   0.01267  Uiso   1.00
N6     N     0.81590   0.78970   0.47390   0.01267  Uiso   1.00
N7     N     0.81140   0.70290   0.51460   0.01267  Uiso   1.00
N8     N     0.53380   0.71260   0.02190   0.01267  Uiso   1.00
N9     N     0.51790   0.69480   0.73520   0.01267  Uiso   1.00
N10    N     0.49420   0.52590   0.73330   0.01267  Uiso   1.00
N11    N     0.41100   0.52670   0.77670   0.01267  Uiso   1.00
N12    N     0.86790   0.86690   0.72780   0.01267  Uiso   1.00
N13    N     0.53150   0.31030   0.51810   0.01267  Uiso   1.00
N14    N     0.08750   0.33320   0.52320   0.01267  Uiso   1.00
N15    N     0.04320   0.37300   0.71820   0.01267  Uiso   1.00
N16    N     0.39730   0.19830   0.72540   0.01267  Uiso   1.00
N17    N     0.61960   0.33420   0.47720   0.01267  Uiso   1.00
N18    N     0.31590   0.21030   0.02610   0.01267  Uiso   1.00
N19    N     0.31140   0.29710   0.98540   0.01267  Uiso   1.00
N20    N     0.03380   0.28740   0.47810   0.01267  Uiso   1.00
N21    N     0.01790   0.30520   0.76480   0.01267  Uiso   1.00
N22    N     0.99420   0.47410   0.76670   0.01267  Uiso   1.00
N23    N     0.91100   0.47330   0.72330   0.01267  Uiso   1.00
N24    N     0.36790   0.13310   0.77220   0.01267  Uiso   1.00
N25    N     0.46850   0.18970   0.01810   0.01267  Uiso   1.00
N26    N     0.91250   0.16680   0.02320   0.01267  Uiso   1.00
N27    N     0.95680   0.12700   0.21820   0.01267  Uiso   1.00
N28    N     0.60270   0.30170   0.22540   0.01267  Uiso   1.00
N29    N     0.38040   0.16580   0.97720   0.01267  Uiso   1.00
N30    N     0.68410   0.28970   0.52610   0.01267  Uiso   1.00
N31    N     0.68860   0.20290   0.48540   0.01267  Uiso   1.00
N32    N     0.96620   0.21260   0.97810   0.01267  Uiso   1.00
N33    N     0.98210   0.19480   0.26480   0.01267  Uiso   1.00
N34    N     0.00580   0.02590   0.26670   0.01267  Uiso   1.00
N35    N     0.08900   0.02670   0.22330   0.01267  Uiso   1.00
N36    N     0.63210   0.36690   0.27220   0.01267  Uiso   1.00
N37    N     0.96850   0.81030   0.48190   0.01267  Uiso   1.00
N38    N     0.41250   0.83320   0.47680   0.01267  Uiso   1.00
N39    N     0.45680   0.87300   0.28180   0.01267  Uiso   1.00
N40    N     0.10270   0.69830   0.27460   0.01267  Uiso   1.00
N41    N     0.88040   0.83420   0.52280   0.01267  Uiso   1.00
N42    N     0.18410   0.71030   0.97390   0.01267  Uiso   1.00
N43    N     0.18860   0.79710   0.01460   0.01267  Uiso   1.00
N44    N     0.46620   0.78740   0.52190   0.01267  Uiso   1.00
N45    N     0.48210   0.80520   0.23520   0.01267  Uiso   1.00
N46    N     0.50580   0.97410   0.23330   0.01267  Uiso   1.00
N47    N     0.58900   0.97330   0.27670   0.01267  Uiso   1.00
N48    N     0.13210   0.63310   0.22780   0.01267  Uiso   1.00
N49    N     0.96850   0.31030   0.01810   0.01267  Uiso   1.00
N50    N     0.41250   0.33320   0.02320   0.01267  Uiso   1.00
N51    N     0.45680   0.37300   0.21820   0.01267  Uiso   1.00
N52    N     0.10270   0.19830   0.22540   0.01267  Uiso   1.00
N53    N     0.88040   0.33420   0.97720   0.01267  Uiso   1.00
N54    N     0.18410   0.21030   0.52610   0.01267  Uiso   1.00
N55    N     0.18860   0.29710   0.48540   0.01267  Uiso   1.00
N56    N     0.46620   0.28740   0.97810   0.01267  Uiso   1.00
N57    N     0.48210   0.30520   0.26480   0.01267  Uiso   1.00
N58    N     0.50580   0.47410   0.26670   0.01267  Uiso   1.00
N59    N     0.58900   0.47330   0.22330   0.01267  Uiso   1.00
N60    N     0.13210   0.13310   0.27220   0.01267  Uiso   1.00
N61    N     0.46850   0.68970   0.48190   0.01267  Uiso   1.00
N62    N     0.91250   0.66680   0.47680   0.01267  Uiso   1.00
N63    N     0.95680   0.62700   0.28180   0.01267  Uiso   1.00
N64    N     0.60270   0.80170   0.27460   0.01267  Uiso   1.00
N65    N     0.38040   0.66580   0.52280   0.01267  Uiso   1.00
N66    N     0.68410   0.78970   0.97390   0.01267  Uiso   1.00
N67    N     0.68860   0.70290   0.01460   0.01267  Uiso   1.00
N68    N     0.96620   0.71260   0.52190   0.01267  Uiso   1.00
N69    N     0.98210   0.69480   0.23520   0.01267  Uiso   1.00
N70    N     0.00580   0.52590   0.23330   0.01267  Uiso   1.00
N71    N     0.08900   0.52670   0.27670   0.01267  Uiso   1.00
N72    N     0.63210   0.86690   0.22780   0.01267  Uiso   1.00
N73    N     0.53150   0.81030   0.98190   0.01267  Uiso   1.00
N74    N     0.08750   0.83320   0.97680   0.01267  Uiso   1.00
N75    N     0.04320   0.87300   0.78180   0.01267  Uiso   1.00
N76    N     0.39730   0.69830   0.77460   0.01267  Uiso   1.00
N77    N     0.61960   0.83420   0.02280   0.01267  Uiso   1.00
N78    N     0.31590   0.71030   0.47390   0.01267  Uiso   1.00
N79    N     0.31140   0.79710   0.51460   0.01267  Uiso   1.00
N80    N     0.03380   0.78740   0.02190   0.01267  Uiso   1.00
N81    N     0.01790   0.80520   0.73520   0.01267  Uiso   1.00
N82    N     0.99420   0.97410   0.73330   0.01267  Uiso   1.00
N83    N     0.91100   0.97330   0.77670   0.01267  Uiso   1.00
N84    N     0.36790   0.63310   0.72780   0.01267  Uiso   1.00
N85    N     0.03150   0.18970   0.51810   0.01267  Uiso   1.00
N86    N     0.58750   0.16680   0.52320   0.01267  Uiso   1.00
N87    N     0.54320   0.12700   0.71820   0.01267  Uiso   1.00
N88    N     0.89730   0.30170   0.72540   0.01267  Uiso   1.00
N89    N     0.11960   0.16580   0.47720   0.01267  Uiso   1.00
N90    N     0.81590   0.28970   0.02610   0.01267  Uiso   1.00
N91    N     0.81140   0.20290   0.98540   0.01267  Uiso   1.00
N92    N     0.53380   0.21260   0.47810   0.01267  Uiso   1.00
N93    N     0.51790   0.19480   0.76480   0.01267  Uiso   1.00
N94    N     0.49420   0.02590   0.76670   0.01267  Uiso   1.00
N95    N     0.41100   0.02670   0.72330   0.01267  Uiso   1.00
N96    N     0.86790   0.36690   0.77220   0.01267  Uiso   1.00
O1     O     0.86780   0.61290   0.91461   0.01267  Uiso   1.00
O2     O     0.71110   0.58590   0.91389   0.01267  Uiso   1.00
O3     O     0.69180   0.56780   0.85652   0.01267  Uiso   1.00
O4     O     0.86860   0.62940   0.84560   0.01267  Uiso   1.00
O5     O     0.93290   0.51920   0.87710   0.01267  Uiso   1.00
O6     O     0.76670   0.69740   0.87970   0.01267  Uiso   1.00
O7     O     0.20510   0.53470   0.09866   0.01267  Uiso   1.00
O8     O     0.81770   0.98280   0.65750   0.01267  Uiso   1.00
O9     O     0.88780   0.73190   0.91510   0.01267  Uiso   1.00
O10    O     0.63500   0.49240   0.90892   0.01267  Uiso   1.00
O11    O     0.59520   0.49860   0.84890   0.01267  Uiso   1.00
O12    O     0.93360   0.72890   0.85240   0.01267  Uiso   1.00
O13    O     0.26830   0.63270   0.08818   0.01267  Uiso   1.00
O14    O     0.44880   0.81000   0.09050   0.01267  Uiso   1.00
O15    O     0.39270   0.70920   0.10327   0.01267  Uiso   1.00
O16    O     0.58200   0.84250   0.65980   0.01267  Uiso   1.00
O17    O     0.48250   0.77260   0.65770   0.01267  Uiso   1.00
O18    O     0.61350   0.54530   0.66370   0.01267  Uiso   1.00
O19    O     0.60090   0.43210   0.65200   0.01267  Uiso   1.00
O20    O     0.25100   0.53280   0.83730   0.01267  Uiso   1.00
O21    O     0.29630   0.43830   0.85740   0.01267  Uiso   1.00
O22    O     0.73060   0.90340   0.64770   0.01267  Uiso   1.00
O23    O     0.71530   0.55160   0.58220   0.01267  Uiso   1.00
O24    O     0.67220   0.64350   0.62650   0.01267  Uiso   1.00
O25    O     0.56540   0.54370   0.60320   0.01267  Uiso   1.00
O26    O     0.84940   0.91650   0.40680   0.01267  Uiso   1.00
O27    O     0.73560   0.91310   0.39410   0.01267  Uiso   1.00
O28    O     0.83640   0.55180   0.57380   0.01267  Uiso   1.00
O29    O     0.51040   0.41620   0.89270   0.01267  Uiso   1.00
O30    O     0.36780   0.38710   0.58539   0.01267  Uiso   1.00
O31    O     0.21110   0.41410   0.58611   0.01267  Uiso   1.00
O32    O     0.19180   0.43220   0.64348   0.01267  Uiso   1.00
O33    O     0.36860   0.37060   0.65440   0.01267  Uiso   1.00
O34    O     0.43290   0.48080   0.62290   0.01267  Uiso   1.00
O35    O     0.26670   0.30260   0.62030   0.01267  Uiso   1.00
O36    O     0.70510   0.46530   0.40134   0.01267  Uiso   1.00
O37    O     0.31770   0.01720   0.84250   0.01267  Uiso   1.00
O38    O     0.38780   0.26810   0.58490   0.01267  Uiso   1.00
O39    O     0.13500   0.50760   0.59108   0.01267  Uiso   1.00
O40    O     0.09520   0.50140   0.65110   0.01267  Uiso   1.00
O41    O     0.43360   0.27110   0.64760   0.01267  Uiso   1.00
O42    O     0.76830   0.36730   0.41182   0.01267  Uiso   1.00
O43    O     0.94880   0.19000   0.40950   0.01267  Uiso   1.00
O44    O     0.89270   0.29080   0.39673   0.01267  Uiso   1.00
O45    O     0.08200   0.15750   0.84020   0.01267  Uiso   1.00
O46    O     0.98250   0.22740   0.84230   0.01267  Uiso   1.00
O47    O     0.11350   0.45470   0.83630   0.01267  Uiso   1.00
O48    O     0.10090   0.56790   0.84800   0.01267  Uiso   1.00
O49    O     0.75100   0.46720   0.66270   0.01267  Uiso   1.00
O50    O     0.79630   0.56170   0.64260   0.01267  Uiso   1.00
O51    O     0.23060   0.09660   0.85230   0.01267  Uiso   1.00
O52    O     0.21530   0.44840   0.91780   0.01267  Uiso   1.00
O53    O     0.17220   0.35650   0.87350   0.01267  Uiso   1.00
O54    O     0.06540   0.45630   0.89680   0.01267  Uiso   1.00
O55    O     0.34940   0.08350   0.09320   0.01267  Uiso   1.00
O56    O     0.23560   0.08690   0.10590   0.01267  Uiso   1.00
O57    O     0.33640   0.44820   0.92620   0.01267  Uiso   1.00
O58    O     0.01040   0.58380   0.60730   0.01267  Uiso   1.00
O59    O     0.63220   0.11290   0.08539   0.01267  Uiso   1.00
O60    O     0.78890   0.08590   0.08611   0.01267  Uiso   1.00
O61    O     0.80820   0.06780   0.14348   0.01267  Uiso   1.00
O62    O     0.63140   0.12940   0.15440   0.01267  Uiso   1.00
O63    O     0.56710   0.01920   0.12290   0.01267  Uiso   1.00
O64    O     0.73330   0.19740   0.12030   0.01267  Uiso   1.00
O65    O     0.29490   0.03470   0.90134   0.01267  Uiso   1.00
O66    O     0.68230   0.48280   0.34250   0.01267  Uiso   1.00
O67    O     0.61220   0.23190   0.08490   0.01267  Uiso   1.00
O68    O     0.86500   0.99240   0.09108   0.01267  Uiso   1.00
O69    O     0.90480   0.99860   0.15110   0.01267  Uiso   1.00
O70    O     0.56640   0.22890   0.14760   0.01267  Uiso   1.00
O71    O     0.23170   0.13270   0.91182   0.01267  Uiso   1.00
O72    O     0.05120   0.31000   0.90950   0.01267  Uiso   1.00
O73    O     0.10730   0.20920   0.89673   0.01267  Uiso   1.00
O74    O     0.91800   0.34250   0.34020   0.01267  Uiso   1.00
O75    O     0.01750   0.27260   0.34230   0.01267  Uiso   1.00
O76    O     0.88650   0.04530   0.33630   0.01267  Uiso   1.00
O77    O     0.89910   0.93210   0.34800   0.01267  Uiso   1.00
O78    O     0.24900   0.03280   0.16270   0.01267  Uiso   1.00
O79    O     0.20370   0.93830   0.14260   0.01267  Uiso   1.00
O80    O     0.76940   0.40340   0.35230   0.01267  Uiso   1.00
O81    O     0.78470   0.05160   0.41780   0.01267  Uiso   1.00
O82    O     0.82780   0.14350   0.37350   0.01267  Uiso   1.00
O83    O     0.93460   0.04370   0.39680   0.01267  Uiso   1.00
O84    O     0.65060   0.41650   0.59320   0.01267  Uiso   1.00
O85    O     0.76440   0.41310   0.60590   0.01267  Uiso   1.00
O86    O     0.66360   0.05180   0.42620   0.01267  Uiso   1.00
O87    O     0.98960   0.91620   0.10730   0.01267  Uiso   1.00
O88    O     0.13220   0.88710   0.41461   0.01267  Uiso   1.00
O89    O     0.28890   0.91410   0.41389   0.01267  Uiso   1.00
O90    O     0.30820   0.93220   0.35652   0.01267  Uiso   1.00
O91    O     0.13140   0.87060   0.34560   0.01267  Uiso   1.00
O92    O     0.06710   0.98080   0.37710   0.01267  Uiso   1.00
O93    O     0.23330   0.80260   0.37970   0.01267  Uiso   1.00
O94    O     0.79490   0.96530   0.59866   0.01267  Uiso   1.00
O95    O     0.18230   0.51720   0.15750   0.01267  Uiso   1.00
O96    O     0.11220   0.76810   0.41510   0.01267  Uiso   1.00
O97    O     0.36500   0.00760   0.40892   0.01267  Uiso   1.00
O98    O     0.40480   0.00140   0.34890   0.01267  Uiso   1.00
O99    O     0.06640   0.77110   0.35240   0.01267  Uiso   1.00
O100   O     0.73170   0.86730   0.58818   0.01267  Uiso   1.00
O101   O     0.55120   0.69000   0.59050   0.01267  Uiso   1.00
O102   O     0.60730   0.79080   0.60327   0.01267  Uiso   1.00
O103   O     0.41800   0.65750   0.15980   0.01267  Uiso   1.00
O104   O     0.51750   0.72740   0.15770   0.01267  Uiso   1.00
O105   O     0.38650   0.95470   0.16370   0.01267  Uiso   1.00
O106   O     0.39910   0.06790   0.15200   0.01267  Uiso   1.00
O107   O     0.74900   0.96720   0.33730   0.01267  Uiso   1.00
O108   O     0.70370   0.06170   0.35740   0.01267  Uiso   1.00
O109   O     0.26940   0.59660   0.14770   0.01267  Uiso   1.00
O110   O     0.28470   0.94840   0.08220   0.01267  Uiso   1.00
O111   O     0.32780   0.85650   0.12650   0.01267  Uiso   1.00
O112   O     0.43460   0.95630   0.10320   0.01267  Uiso   1.00
O113   O     0.15060   0.58350   0.90680   0.01267  Uiso   1.00
O114   O     0.26440   0.58690   0.89410   0.01267  Uiso   1.00
O115   O     0.16360   0.94820   0.07380   0.01267  Uiso   1.00
O116   O     0.48960   0.08380   0.39270   0.01267  Uiso   1.00
O117   O     0.13220   0.38710   0.08539   0.01267  Uiso   1.00
O118   O     0.28890   0.41410   0.08611   0.01267  Uiso   1.00
O119   O     0.30820   0.43220   0.14348   0.01267  Uiso   1.00
O120   O     0.13140   0.37060   0.15440   0.01267  Uiso   1.00
O121   O     0.06710   0.48080   0.12290   0.01267  Uiso   1.00
O122   O     0.23330   0.30260   0.12030   0.01267  Uiso   1.00
O123   O     0.79490   0.46530   0.90134   0.01267  Uiso   1.00
O124   O     0.18230   0.01720   0.34250   0.01267  Uiso   1.00
O125   O     0.11220   0.26810   0.08490   0.01267  Uiso   1.00
O126   O     0.36500   0.50760   0.09108   0.01267  Uiso   1.00
O127   O     0.40480   0.50140   0.15110   0.01267  Uiso   1.00
O128   O     0.06640   0.27110   0.14760   0.01267  Uiso   1.00
O129   O     0.73170   0.36730   0.91182   0.01267  Uiso   1.00
O130   O     0.55120   0.19000   0.90950   0.01267  Uiso   1.00
O131   O     0.60730   0.29080   0.89673   0.01267  Uiso   1.00
O132   O     0.41800   0.15750   0.34020   0.01267  Uiso   1.00
O133   O     0.51750   0.22740   0.34230   0.01267  Uiso   1.00
O134   O     0.38650   0.45470   0.33630   0.01267  Uiso   1.00
O135   O     0.39910   0.56790   0.34800   0.01267  Uiso   1.00
O136   O     0.74900   0.46720   0.16270   0.01267  Uiso   1.00
O137   O     0.70370   0.56170   0.14260   0.01267  Uiso   1.00
O138   O     0.26940   0.09660   0.35230   0.01267  Uiso   1.00
O139   O     0.28470   0.44840   0.41780   0.01267  Uiso   1.00
O140   O     0.32780   0.35650   0.37350   0.01267  Uiso   1.00
O141   O     0.43460   0.45630   0.39680   0.01267  Uiso   1.00
O142   O     0.15060   0.08350   0.59320   0.01267  Uiso   1.00
O143   O     0.26440   0.08690   0.60590   0.01267  Uiso   1.00
O144   O     0.16360   0.44820   0.42620   0.01267  Uiso   1.00
O145   O     0.48960   0.58380   0.10730   0.01267  Uiso   1.00
O146   O     0.63220   0.61290   0.41461   0.01267  Uiso   1.00
O147   O     0.78890   0.58590   0.41389   0.01267  Uiso   1.00
O148   O     0.80820   0.56780   0.35652   0.01267  Uiso   1.00
O149   O     0.63140   0.62940   0.34560   0.01267  Uiso   1.00
O150   O     0.56710   0.51920   0.37710   0.01267  Uiso   1.00
O151   O     0.73330   0.69740   0.37970   0.01267  Uiso   1.00
O152   O     0.29490   0.53470   0.59866   0.01267  Uiso   1.00
O153   O     0.68230   0.98280   0.15750   0.01267  Uiso   1.00
O154   O     0.61220   0.73190   0.41510   0.01267  Uiso   1.00
O155   O     0.86500   0.49240   0.40892   0.01267  Uiso   1.00
O156   O     0.90480   0.49860   0.34890   0.01267  Uiso   1.00
O157   O     0.56640   0.72890   0.35240   0.01267  Uiso   1.00
O158   O     0.23170   0.63270   0.58818   0.01267  Uiso   1.00
O159   O     0.05120   0.81000   0.59050   0.01267  Uiso   1.00
O160   O     0.10730   0.70920   0.60327   0.01267  Uiso   1.00
O161   O     0.91800   0.84250   0.15980   0.01267  Uiso   1.00
O162   O     0.01750   0.77260   0.15770   0.01267  Uiso   1.00
O163   O     0.88650   0.54530   0.16370   0.01267  Uiso   1.00
O164   O     0.89910   0.43210   0.15200   0.01267  Uiso   1.00
O165   O     0.24900   0.53280   0.33730   0.01267  Uiso   1.00
O166   O     0.20370   0.43830   0.35740   0.01267  Uiso   1.00
O167   O     0.76940   0.90340   0.14770   0.01267  Uiso   1.00
O168   O     0.78470   0.55160   0.08220   0.01267  Uiso   1.00
O169   O     0.82780   0.64350   0.12650   0.01267  Uiso   1.00
O170   O     0.93460   0.54370   0.10320   0.01267  Uiso   1.00
O171   O     0.65060   0.91650   0.90680   0.01267  Uiso   1.00
O172   O     0.76440   0.91310   0.89410   0.01267  Uiso   1.00
O173   O     0.66360   0.55180   0.07380   0.01267  Uiso   1.00
O174   O     0.98960   0.41620   0.39270   0.01267  Uiso   1.00
O175   O     0.36780   0.88710   0.91461   0.01267  Uiso   1.00
O176   O     0.21110   0.91410   0.91389   0.01267  Uiso   1.00
O177   O     0.19180   0.93220   0.85652   0.01267  Uiso   1.00
O178   O     0.36860   0.87060   0.84560   0.01267  Uiso   1.00
O179   O     0.43290   0.98080   0.87710   0.01267  Uiso   1.00
O180   O     0.26670   0.80260   0.87970   0.01267  Uiso   1.00
O181   O     0.70510   0.96530   0.09866   0.01267  Uiso   1.00
O182   O     0.31770   0.51720   0.65750   0.01267  Uiso   1.00
O183   O     0.38780   0.76810   0.91510   0.01267  Uiso   1.00
O184   O     0.13500   0.00760   0.90892   0.01267  Uiso   1.00
O185   O     0.09520   0.00140   0.84890   0.01267  Uiso   1.00
O186   O     0.43360   0.77110   0.85240   0.01267  Uiso   1.00
O187   O     0.76830   0.86730   0.08818   0.01267  Uiso   1.00
O188   O     0.94880   0.69000   0.09050   0.01267  Uiso   1.00
O189   O     0.89270   0.79080   0.10327   0.01267  Uiso   1.00
O190   O     0.08200   0.65750   0.65980   0.01267  Uiso   1.00
O191   O     0.98250   0.72740   0.65770   0.01267  Uiso   1.00
O192   O     0.11350   0.95470   0.66370   0.01267  Uiso   1.00
O193   O     0.10090   0.06790   0.65200   0.01267  Uiso   1.00
O194   O     0.75100   0.96720   0.83730   0.01267  Uiso   1.00
O195   O     0.79630   0.06170   0.85740   0.01267  Uiso   1.00
O196   O     0.23060   0.59660   0.64770   0.01267  Uiso   1.00
O197   O     0.21530   0.94840   0.58220   0.01267  Uiso   1.00
O198   O     0.17220   0.85650   0.62650   0.01267  Uiso   1.00
O199   O     0.06540   0.95630   0.60320   0.01267  Uiso   1.00
O200   O     0.34940   0.58350   0.40680   0.01267  Uiso   1.00
O201   O     0.23560   0.58690   0.39410   0.01267  Uiso   1.00
O202   O     0.33640   0.94820   0.57380   0.01267  Uiso   1.00
O203   O     0.01040   0.08380   0.89270   0.01267  Uiso   1.00
O204   O     0.86780   0.11290   0.58539   0.01267  Uiso   1.00
O205   O     0.71110   0.08590   0.58611   0.01267  Uiso   1.00
O206   O     0.69180   0.06780   0.64348   0.01267  Uiso   1.00
O207   O     0.86860   0.12940   0.65440   0.01267  Uiso   1.00
O208   O     0.93290   0.01920   0.62290   0.01267  Uiso   1.00
O209   O     0.76670   0.19740   0.62030   0.01267  Uiso   1.00
O210   O     0.20510   0.03470   0.40134   0.01267  Uiso   1.00
O211   O     0.81770   0.48280   0.84250   0.01267  Uiso   1.00
O212   O     0.88780   0.23190   0.58490   0.01267  Uiso   1.00
O213   O     0.63500   0.99240   0.59108   0.01267  Uiso   1.00
O214   O     0.59520   0.99860   0.65110   0.01267  Uiso   1.00
O215   O     0.93360   0.22890   0.64760   0.01267  Uiso   1.00
O216   O     0.26830   0.13270   0.41182   0.01267  Uiso   1.00
O217   O     0.44880   0.31000   0.40950   0.01267  Uiso   1.00
O218   O     0.39270   0.20920   0.39673   0.01267  Uiso   1.00
O219   O     0.58200   0.34250   0.84020   0.01267  Uiso   1.00
O220   O     0.48250   0.27260   0.84230   0.01267  Uiso   1.00
O221   O     0.61350   0.04530   0.83630   0.01267  Uiso   1.00
O222   O     0.60090   0.93210   0.84800   0.01267  Uiso   1.00
O223   O     0.25100   0.03280   0.66270   0.01267  Uiso   1.00
O224   O     0.29630   0.93830   0.64260   0.01267  Uiso   1.00
O225   O     0.73060   0.40340   0.85230   0.01267  Uiso   1.00
O226   O     0.71530   0.05160   0.91780   0.01267  Uiso   1.00
O227   O     0.67220   0.14350   0.87350   0.01267  Uiso   1.00
O228   O     0.56540   0.04370   0.89680   0.01267  Uiso   1.00
O229   O     0.84940   0.41650   0.09320   0.01267  Uiso   1.00
O230   O     0.73560   0.41310   0.10590   0.01267  Uiso   1.00
O231   O     0.83640   0.05180   0.92620   0.01267  Uiso   1.00
O232   O     0.51040   0.91620   0.60730   0.01267  Uiso   1.00
Cl1    Cl    0.72500   0.49410   0.99216   0.01267  Uiso   1.00
O233   O     0.65810   0.50340   0.00710   0.01267  Uiso   1.00
O234   O     0.70870   0.45420   0.96800   0.01267  Uiso   1.00
O235   O     0.75350   0.56330   0.98480   0.01267  Uiso   1.00
O236   O     0.77750   0.45500   0.00780   0.01267  Uiso   1.00
Cl2    Cl    0.70510   0.50890   0.76134   0.01267  Uiso   1.00
O237   O     0.64140   0.46960   0.75970   0.01267  Uiso   1.00
O238   O     0.70730   0.50260   0.79180   0.01267  Uiso   1.00
O239   O     0.67690   0.57590   0.74880   0.01267  Uiso   1.00
O240   O     0.76020   0.48650   0.74370   0.01267  Uiso   1.00
Cl3    Cl    0.22500   0.50590   0.50784   0.01267  Uiso   1.00
O241   O     0.15810   0.49660   0.49290   0.01267  Uiso   1.00
O242   O     0.20870   0.54580   0.53200   0.01267  Uiso   1.00
O243   O     0.25350   0.43670   0.51520   0.01267  Uiso   1.00
O244   O     0.27750   0.54500   0.49220   0.01267  Uiso   1.00
Cl4    Cl    0.20510   0.49110   0.73866   0.01267  Uiso   1.00
O245   O     0.14140   0.53040   0.74030   0.01267  Uiso   1.00
O246   O     0.20730   0.49740   0.70820   0.01267  Uiso   1.00
O247   O     0.17690   0.42410   0.75120   0.01267  Uiso   1.00
O248   O     0.26020   0.51350   0.75630   0.01267  Uiso   1.00
Cl5    Cl    0.77500   0.99410   0.00784   0.01267  Uiso   1.00
O249   O     0.84190   0.00340   0.99290   0.01267  Uiso   1.00
O250   O     0.79130   0.95420   0.03200   0.01267  Uiso   1.00
O251   O     0.74650   0.06330   0.01520   0.01267  Uiso   1.00
O252   O     0.72250   0.95500   0.99220   0.01267  Uiso   1.00
Cl6    Cl    0.79490   0.00890   0.23866   0.01267  Uiso   1.00
O253   O     0.85860   0.96960   0.24030   0.01267  Uiso   1.00
O254   O     0.79270   0.00260   0.20820   0.01267  Uiso   1.00
O255   O     0.82310   0.07590   0.25120   0.01267  Uiso   1.00
O256   O     0.73980   0.98650   0.25630   0.01267  Uiso   1.00
Cl7    Cl    0.27500   0.00590   0.49216   0.01267  Uiso   1.00
O257   O     0.34190   0.99660   0.50710   0.01267  Uiso   1.00
O258   O     0.29130   0.04580   0.46800   0.01267  Uiso   1.00
O259   O     0.24650   0.93670   0.48480   0.01267  Uiso   1.00
O260   O     0.22250   0.04500   0.50780   0.01267  Uiso   1.00
Cl8    Cl    0.29490   0.99110   0.26134   0.01267  Uiso   1.00
O261   O     0.35860   0.03040   0.25970   0.01267  Uiso   1.00
O262   O     0.29270   0.99740   0.29180   0.01267  Uiso   1.00
O263   O     0.32310   0.92410   0.24880   0.01267  Uiso   1.00
O264   O     0.23980   0.01350   0.24370   0.01267  Uiso   1.00
Cl9    Cl    0.27500   0.50590   0.00784   0.01267  Uiso   1.00
O265   O     0.34190   0.49660   0.99290   0.01267  Uiso   1.00
O266   O     0.29130   0.54580   0.03200   0.01267  Uiso   1.00
O267   O     0.24650   0.43670   0.01520   0.01267  Uiso   1.00
O268   O     0.22250   0.54500   0.99220   0.01267  Uiso   1.00
Cl10   Cl    0.29490   0.49110   0.23866   0.01267  Uiso   1.00
O269   O     0.35860   0.53040   0.24030   0.01267  Uiso   1.00
O270   O     0.29270   0.49740   0.20820   0.01267  Uiso   1.00
O271   O     0.32310   0.42410   0.25120   0.01267  Uiso   1.00
O272   O     0.23980   0.51350   0.25630   0.01267  Uiso   1.00
Cl11   Cl    0.77500   0.49410   0.49216   0.01267  Uiso   1.00
O273   O     0.84190   0.50340   0.50710   0.01267  Uiso   1.00
O274   O     0.79130   0.45420   0.46800   0.01267  Uiso   1.00
O275   O     0.74650   0.56330   0.48480   0.01267  Uiso   1.00
O276   O     0.72250   0.45500   0.50780   0.01267  Uiso   1.00
Cl12   Cl    0.79490   0.50890   0.26134   0.01267  Uiso   1.00
O277   O     0.85860   0.46960   0.25970   0.01267  Uiso   1.00
O278   O     0.79270   0.50260   0.29180   0.01267  Uiso   1.00
O279   O     0.82310   0.57590   0.24880   0.01267  Uiso   1.00
O280   O     0.73980   0.48650   0.24370   0.01267  Uiso   1.00
Cl13   Cl    0.22500   0.00590   0.99216   0.01267  Uiso   1.00
O281   O     0.15810   0.99660   0.00710   0.01267  Uiso   1.00
O282   O     0.20870   0.04580   0.96800   0.01267  Uiso   1.00
O283   O     0.25350   0.93670   0.98480   0.01267  Uiso   1.00
O284   O     0.27750   0.04500   0.00780   0.01267  Uiso   1.00
Cl14   Cl    0.20510   0.99110   0.76134   0.01267  Uiso   1.00
O285   O     0.14140   0.03040   0.75970   0.01267  Uiso   1.00
O286   O     0.20730   0.99740   0.79180   0.01267  Uiso   1.00
O287   O     0.17690   0.92410   0.74880   0.01267  Uiso   1.00
O288   O     0.26020   0.01350   0.74370   0.01267  Uiso   1.00
Cl15   Cl    0.72500   0.99410   0.50784   0.01267  Uiso   1.00
O289   O     0.65810   0.00340   0.49290   0.01267  Uiso   1.00
O290   O     0.70870   0.95420   0.53200   0.01267  Uiso   1.00
O291   O     0.75350   0.06330   0.51520   0.01267  Uiso   1.00
O292   O     0.77750   0.95500   0.49220   0.01267  Uiso   1.00
Cl16   Cl    0.70510   0.00890   0.73866   0.01267  Uiso   1.00
O293   O     0.64140   0.96960   0.74030   0.01267  Uiso   1.00
O294   O     0.70730   0.00260   0.70820   0.01267  Uiso   1.00
O295   O     0.67690   0.07590   0.75120   0.01267  Uiso   1.00
O296   O     0.76020   0.98650   0.75630   0.01267  Uiso   1.00
