data_image0
_cell_length_a       10.292
_cell_length_b       29.887
_cell_length_c       38.593
_cell_angle_alpha    90
_cell_angle_beta     90
_cell_angle_gamma    90

_symmetry_space_group_name_H-M    "P 1"
_symmetry_int_tables_number       1

loop_
  _symmetry_equiv_pos_as_xyz
  'x, y, z'

loop_
  _atom_site_label
  _atom_site_occupancy
  _atom_site_fract_x
  _atom_site_fract_y
  _atom_site_fract_z
  _atom_site_thermal_displace_type
  _atom_site_B_iso_or_equiv
  _atom_site_type_symbol
  N1       1.0000 0.96100  0.09370  0.04590  Biso   1.000  N
  C1       1.0000 0.97000  0.08420  0.07960  Biso   1.000  C
  C2       1.0000 0.86560  0.07310  0.10030  Biso   1.000  C
  C3       1.0000 0.00730  0.67870  0.08570  Biso   1.000  C
  C4       1.0000 0.01740  0.66940  0.05040  Biso   1.000  C
  C5       1.0000 0.90790  0.65820  0.03210  Biso   1.000  C
  C6       1.0000 0.12810  0.69220  0.10480  Biso   1.000  C
  N2       1.0000 0.98060  0.82810  0.02700  Biso   1.000  N
  C7       1.0000 0.09890  0.81120  0.02430  Biso   1.000  C
  C8       1.0000 0.15690  0.78460  0.04950  Biso   1.000  C
  C9       1.0000 0.09030  0.77380  0.07940  Biso   1.000  C
  C10      1.0000 0.96670  0.79110  0.08200  Biso   1.000  C
  C11      1.0000 0.91850  0.81840  0.05580  Biso   1.000  C
  C12      1.0000 0.15130  0.74480  0.10610  Biso   1.000  C
  H1       1.0000 0.05360  0.08510  0.09000  Biso   1.000  H
  H2       1.0000 0.87780  0.06690  0.12420  Biso   1.000  H
  H3       1.0000 0.09950  0.67070  0.03920  Biso   1.000  H
  H4       1.0000 0.91720  0.65150  0.00820  Biso   1.000  H
  H5       1.0000 0.20630  0.67590  0.09600  Biso   1.000  H
  H6       1.0000 0.10280  0.81750  0.24610  Biso   1.000  H
  H7       1.0000 0.00720  0.77380  0.20380  Biso   1.000  H
  H8       1.0000 0.91450  0.78430  0.10160  Biso   1.000  H
  H9       1.0000 0.83460  0.83100  0.05900  Biso   1.000  H
  H10      1.0000 0.00310  0.75070  0.14340  Biso   1.000  H
  N3       1.0000 0.96100  0.59370  0.54590  Biso   1.000  N
  C13      1.0000 0.97000  0.58420  0.57960  Biso   1.000  C
  C14      1.0000 0.86560  0.57310  0.60030  Biso   1.000  C
  C15      1.0000 0.00730  0.17870  0.58570  Biso   1.000  C
  C16      1.0000 0.01740  0.16940  0.55040  Biso   1.000  C
  C17      1.0000 0.90790  0.15820  0.53210  Biso   1.000  C
  C18      1.0000 0.12810  0.19220  0.60480  Biso   1.000  C
  N4       1.0000 0.98060  0.32810  0.52700  Biso   1.000  N
  C19      1.0000 0.09890  0.31120  0.52430  Biso   1.000  C
  C20      1.0000 0.15690  0.28460  0.54950  Biso   1.000  C
  C21      1.0000 0.09030  0.27380  0.57940  Biso   1.000  C
  C22      1.0000 0.96670  0.29110  0.58200  Biso   1.000  C
  C23      1.0000 0.91850  0.31840  0.55580  Biso   1.000  C
  C24      1.0000 0.15130  0.24480  0.60610  Biso   1.000  C
  H11      1.0000 0.05360  0.58510  0.59000  Biso   1.000  H
  H12      1.0000 0.87780  0.56690  0.62420  Biso   1.000  H
  H13      1.0000 0.09950  0.17070  0.53920  Biso   1.000  H
  H14      1.0000 0.91720  0.15150  0.50820  Biso   1.000  H
  H15      1.0000 0.20630  0.17590  0.59600  Biso   1.000  H
  H16      1.0000 0.10280  0.31750  0.74610  Biso   1.000  H
  H17      1.0000 0.00720  0.27380  0.70380  Biso   1.000  H
  H18      1.0000 0.91450  0.28430  0.60160  Biso   1.000  H
  H19      1.0000 0.83460  0.33100  0.55900  Biso   1.000  H
  H20      1.0000 0.00310  0.25070  0.64340  Biso   1.000  H
  N5       1.0000 0.46100  0.09370  0.54590  Biso   1.000  N
  C25      1.0000 0.47000  0.08420  0.57960  Biso   1.000  C
  C26      1.0000 0.36560  0.07310  0.60030  Biso   1.000  C
  C27      1.0000 0.50730  0.67870  0.58570  Biso   1.000  C
  C28      1.0000 0.51740  0.66940  0.55040  Biso   1.000  C
  C29      1.0000 0.40790  0.65820  0.53210  Biso   1.000  C
  C30      1.0000 0.62810  0.69220  0.60480  Biso   1.000  C
  N6       1.0000 0.48060  0.82810  0.52700  Biso   1.000  N
  C31      1.0000 0.59890  0.81120  0.52430  Biso   1.000  C
  C32      1.0000 0.65690  0.78460  0.54950  Biso   1.000  C
  C33      1.0000 0.59030  0.77380  0.57940  Biso   1.000  C
  C34      1.0000 0.46670  0.79110  0.58200  Biso   1.000  C
  C35      1.0000 0.41850  0.81840  0.55580  Biso   1.000  C
  C36      1.0000 0.65130  0.74480  0.60610  Biso   1.000  C
  H21      1.0000 0.55360  0.08510  0.59000  Biso   1.000  H
  H22      1.0000 0.37780  0.06690  0.62420  Biso   1.000  H
  H23      1.0000 0.59950  0.67070  0.53920  Biso   1.000  H
  H24      1.0000 0.41720  0.65150  0.50820  Biso   1.000  H
  H25      1.0000 0.70630  0.67590  0.59600  Biso   1.000  H
  H26      1.0000 0.60280  0.81750  0.74610  Biso   1.000  H
  H27      1.0000 0.50720  0.77380  0.70380  Biso   1.000  H
  H28      1.0000 0.41450  0.78430  0.60160  Biso   1.000  H
  H29      1.0000 0.33460  0.83100  0.55900  Biso   1.000  H
  H30      1.0000 0.50310  0.75070  0.64340  Biso   1.000  H
  N7       1.0000 0.46100  0.59370  0.04590  Biso   1.000  N
  C37      1.0000 0.47000  0.58420  0.07960  Biso   1.000  C
  C38      1.0000 0.36560  0.57310  0.10030  Biso   1.000  C
  C39      1.0000 0.50730  0.17870  0.08570  Biso   1.000  C
  C40      1.0000 0.51740  0.16940  0.05040  Biso   1.000  C
  C41      1.0000 0.40790  0.15820  0.03210  Biso   1.000  C
  C42      1.0000 0.62810  0.19220  0.10480  Biso   1.000  C
  N8       1.0000 0.48060  0.32810  0.02700  Biso   1.000  N
  C43      1.0000 0.59890  0.31120  0.02430  Biso   1.000  C
  C44      1.0000 0.65690  0.28460  0.04950  Biso   1.000  C
  C45      1.0000 0.59030  0.27380  0.07940  Biso   1.000  C
  C46      1.0000 0.46670  0.29110  0.08200  Biso   1.000  C
  C47      1.0000 0.41850  0.31840  0.05580  Biso   1.000  C
  C48      1.0000 0.65130  0.24480  0.10610  Biso   1.000  C
  H31      1.0000 0.55360  0.58510  0.09000  Biso   1.000  H
  H32      1.0000 0.37780  0.56690  0.12420  Biso   1.000  H
  H33      1.0000 0.59950  0.17070  0.03920  Biso   1.000  H
  H34      1.0000 0.41720  0.15150  0.00820  Biso   1.000  H
  H35      1.0000 0.70630  0.17590  0.09600  Biso   1.000  H
  H36      1.0000 0.60280  0.31750  0.24610  Biso   1.000  H
  H37      1.0000 0.50720  0.27380  0.20380  Biso   1.000  H
  H38      1.0000 0.41450  0.28430  0.10160  Biso   1.000  H
  H39      1.0000 0.33460  0.33100  0.05900  Biso   1.000  H
  H40      1.0000 0.50310  0.25070  0.14340  Biso   1.000  H
  N9       1.0000 0.78900  0.65630  0.04590  Biso   1.000  N
  C49      1.0000 0.78000  0.66580  0.07960  Biso   1.000  C
  C50      1.0000 0.88440  0.67690  0.10030  Biso   1.000  C
  C51      1.0000 0.74270  0.07130  0.08570  Biso   1.000  C
  C52      1.0000 0.73260  0.08060  0.05040  Biso   1.000  C
  C53      1.0000 0.84210  0.09180  0.03210  Biso   1.000  C
  C54      1.0000 0.62190  0.05780  0.10480  Biso   1.000  C
  N10      1.0000 0.76940  0.92190  0.02700  Biso   1.000  N
  C55      1.0000 0.65110  0.93880  0.02430  Biso   1.000  C
  C56      1.0000 0.59310  0.96540  0.04950  Biso   1.000  C
  C57      1.0000 0.65970  0.97620  0.07940  Biso   1.000  C
  C58      1.0000 0.78330  0.95890  0.08200  Biso   1.000  C
  C59      1.0000 0.83150  0.93160  0.05580  Biso   1.000  C
  C60      1.0000 0.59870  0.00520  0.10610  Biso   1.000  C
  H41      1.0000 0.69640  0.66490  0.09000  Biso   1.000  H
  H42      1.0000 0.87220  0.68310  0.12420  Biso   1.000  H
  H43      1.0000 0.65050  0.07930  0.03920  Biso   1.000  H
  H44      1.0000 0.83280  0.09850  0.00820  Biso   1.000  H
  H45      1.0000 0.54370  0.07410  0.09600  Biso   1.000  H
  H46      1.0000 0.64720  0.93250  0.24610  Biso   1.000  H
  H47      1.0000 0.74280  0.97620  0.20380  Biso   1.000  H
  H48      1.0000 0.83550  0.96570  0.10160  Biso   1.000  H
  H49      1.0000 0.91540  0.91900  0.05900  Biso   1.000  H
  H50      1.0000 0.74690  0.99930  0.14340  Biso   1.000  H
  N11      1.0000 0.78900  0.15630  0.54590  Biso   1.000  N
  C61      1.0000 0.78000  0.16580  0.57960  Biso   1.000  C
  C62      1.0000 0.88440  0.17690  0.60030  Biso   1.000  C
  C63      1.0000 0.74270  0.57130  0.58570  Biso   1.000  C
  C64      1.0000 0.73260  0.58060  0.55040  Biso   1.000  C
  C65      1.0000 0.84210  0.59180  0.53210  Biso   1.000  C
  C66      1.0000 0.62190  0.55780  0.60480  Biso   1.000  C
  N12      1.0000 0.76940  0.42190  0.52700  Biso   1.000  N
  C67      1.0000 0.65110  0.43880  0.52430  Biso   1.000  C
  C68      1.0000 0.59310  0.46540  0.54950  Biso   1.000  C
  C69      1.0000 0.65970  0.47620  0.57940  Biso   1.000  C
  C70      1.0000 0.78330  0.45890  0.58200  Biso   1.000  C
  C71      1.0000 0.83150  0.43160  0.55580  Biso   1.000  C
  C72      1.0000 0.59870  0.50520  0.60610  Biso   1.000  C
  H51      1.0000 0.69640  0.16490  0.59000  Biso   1.000  H
  H52      1.0000 0.87220  0.18310  0.62420  Biso   1.000  H
  H53      1.0000 0.65050  0.57930  0.53920  Biso   1.000  H
  H54      1.0000 0.83280  0.59850  0.50820  Biso   1.000  H
  H55      1.0000 0.54370  0.57410  0.59600  Biso   1.000  H
  H56      1.0000 0.64720  0.43250  0.74610  Biso   1.000  H
  H57      1.0000 0.74280  0.47620  0.70380  Biso   1.000  H
  H58      1.0000 0.83550  0.46570  0.60160  Biso   1.000  H
  H59      1.0000 0.91540  0.41900  0.55900  Biso   1.000  H
  H60      1.0000 0.74690  0.49930  0.64340  Biso   1.000  H
  N13      1.0000 0.28900  0.65630  0.54590  Biso   1.000  N
  C73      1.0000 0.28000  0.66580  0.57960  Biso   1.000  C
  C74      1.0000 0.38440  0.67690  0.60030  Biso   1.000  C
  C75      1.0000 0.24270  0.07130  0.58570  Biso   1.000  C
  C76      1.0000 0.23260  0.08060  0.55040  Biso   1.000  C
  C77      1.0000 0.34210  0.09180  0.53210  Biso   1.000  C
  C78      1.0000 0.12190  0.05780  0.60480  Biso   1.000  C
  N14      1.0000 0.26940  0.92190  0.52700  Biso   1.000  N
  C79      1.0000 0.15110  0.93880  0.52430  Biso   1.000  C
  C80      1.0000 0.09310  0.96540  0.54950  Biso   1.000  C
  C81      1.0000 0.15970  0.97620  0.57940  Biso   1.000  C
  C82      1.0000 0.28330  0.95890  0.58200  Biso   1.000  C
  C83      1.0000 0.33150  0.93160  0.55580  Biso   1.000  C
  C84      1.0000 0.09870  0.00520  0.60610  Biso   1.000  C
  H61      1.0000 0.19640  0.66490  0.59000  Biso   1.000  H
  H62      1.0000 0.37220  0.68310  0.62420  Biso   1.000  H
  H63      1.0000 0.15050  0.07930  0.53920  Biso   1.000  H
  H64      1.0000 0.33280  0.09850  0.50820  Biso   1.000  H
  H65      1.0000 0.04370  0.07410  0.59600  Biso   1.000  H
  H66      1.0000 0.14720  0.93250  0.74610  Biso   1.000  H
  H67      1.0000 0.24280  0.97620  0.70380  Biso   1.000  H
  H68      1.0000 0.33550  0.96570  0.60160  Biso   1.000  H
  H69      1.0000 0.41540  0.91900  0.55900  Biso   1.000  H
  H70      1.0000 0.24690  0.99930  0.64340  Biso   1.000  H
  N15      1.0000 0.28900  0.15630  0.04590  Biso   1.000  N
  C85      1.0000 0.28000  0.16580  0.07960  Biso   1.000  C
  C86      1.0000 0.38440  0.17690  0.10030  Biso   1.000  C
  C87      1.0000 0.24270  0.57130  0.08570  Biso   1.000  C
  C88      1.0000 0.23260  0.58060  0.05040  Biso   1.000  C
  C89      1.0000 0.34210  0.59180  0.03210  Biso   1.000  C
  C90      1.0000 0.12190  0.55780  0.10480  Biso   1.000  C
  N16      1.0000 0.26940  0.42190  0.02700  Biso   1.000  N
  C91      1.0000 0.15110  0.43880  0.02430  Biso   1.000  C
  C92      1.0000 0.09310  0.46540  0.04950  Biso   1.000  C
  C93      1.0000 0.15970  0.47620  0.07940  Biso   1.000  C
  C94      1.0000 0.28330  0.45890  0.08200  Biso   1.000  C
  C95      1.0000 0.33150  0.43160  0.05580  Biso   1.000  C
  C96      1.0000 0.09870  0.50520  0.10610  Biso   1.000  C
  H71      1.0000 0.19640  0.16490  0.09000  Biso   1.000  H
  H72      1.0000 0.37220  0.18310  0.12420  Biso   1.000  H
  H73      1.0000 0.15050  0.57930  0.03920  Biso   1.000  H
  H74      1.0000 0.33280  0.59850  0.00820  Biso   1.000  H
  H75      1.0000 0.04370  0.57410  0.09600  Biso   1.000  H
  H76      1.0000 0.14720  0.43250  0.24610  Biso   1.000  H
  H77      1.0000 0.24280  0.47620  0.20380  Biso   1.000  H
  H78      1.0000 0.33550  0.46570  0.10160  Biso   1.000  H
  H79      1.0000 0.41540  0.41900  0.05900  Biso   1.000  H
  H80      1.0000 0.24690  0.49930  0.14340  Biso   1.000  H
  N17      1.0000 0.78900  0.09370  0.70410  Biso   1.000  N
  C97      1.0000 0.78000  0.08420  0.67040  Biso   1.000  C
  C98      1.0000 0.88440  0.07310  0.64970  Biso   1.000  C
  C99      1.0000 0.74270  0.67870  0.66430  Biso   1.000  C
  C100     1.0000 0.73260  0.66940  0.69960  Biso   1.000  C
  C101     1.0000 0.84210  0.65820  0.71790  Biso   1.000  C
  C102     1.0000 0.62190  0.69220  0.64520  Biso   1.000  C
  N18      1.0000 0.76940  0.82810  0.72300  Biso   1.000  N
  C103     1.0000 0.65110  0.81120  0.72570  Biso   1.000  C
  C104     1.0000 0.59310  0.78460  0.70050  Biso   1.000  C
  C105     1.0000 0.65970  0.77380  0.67060  Biso   1.000  C
  C106     1.0000 0.78330  0.79110  0.66800  Biso   1.000  C
  C107     1.0000 0.83150  0.81840  0.69420  Biso   1.000  C
  C108     1.0000 0.59870  0.74480  0.64390  Biso   1.000  C
  H81      1.0000 0.69640  0.08510  0.66000  Biso   1.000  H
  H82      1.0000 0.87220  0.06690  0.62580  Biso   1.000  H
  H83      1.0000 0.65050  0.67070  0.71080  Biso   1.000  H
  H84      1.0000 0.83280  0.65150  0.74180  Biso   1.000  H
  H85      1.0000 0.54370  0.67590  0.65400  Biso   1.000  H
  H86      1.0000 0.64720  0.81750  0.50390  Biso   1.000  H
  H87      1.0000 0.74280  0.77380  0.54620  Biso   1.000  H
  H88      1.0000 0.83550  0.78430  0.64840  Biso   1.000  H
  H89      1.0000 0.91540  0.83100  0.69100  Biso   1.000  H
  H90      1.0000 0.74690  0.75070  0.60660  Biso   1.000  H
  N19      1.0000 0.78900  0.59370  0.20410  Biso   1.000  N
  C109     1.0000 0.78000  0.58420  0.17040  Biso   1.000  C
  C110     1.0000 0.88440  0.57310  0.14970  Biso   1.000  C
  C111     1.0000 0.74270  0.17870  0.16430  Biso   1.000  C
  C112     1.0000 0.73260  0.16940  0.19960  Biso   1.000  C
  C113     1.0000 0.84210  0.15820  0.21790  Biso   1.000  C
  C114     1.0000 0.62190  0.19220  0.14520  Biso   1.000  C
  N20      1.0000 0.76940  0.32810  0.22300  Biso   1.000  N
  C115     1.0000 0.65110  0.31120  0.22570  Biso   1.000  C
  C116     1.0000 0.59310  0.28460  0.20050  Biso   1.000  C
  C117     1.0000 0.65970  0.27380  0.17060  Biso   1.000  C
  C118     1.0000 0.78330  0.29110  0.16800  Biso   1.000  C
  C119     1.0000 0.83150  0.31840  0.19420  Biso   1.000  C
  C120     1.0000 0.59870  0.24480  0.14390  Biso   1.000  C
  H91      1.0000 0.69640  0.58510  0.16000  Biso   1.000  H
  H92      1.0000 0.87220  0.56690  0.12580  Biso   1.000  H
  H93      1.0000 0.65050  0.17070  0.21080  Biso   1.000  H
  H94      1.0000 0.83280  0.15150  0.24180  Biso   1.000  H
  H95      1.0000 0.54370  0.17590  0.15400  Biso   1.000  H
  H96      1.0000 0.64720  0.31750  0.00390  Biso   1.000  H
  H97      1.0000 0.74280  0.27380  0.04620  Biso   1.000  H
  H98      1.0000 0.83550  0.28430  0.14840  Biso   1.000  H
  H99      1.0000 0.91540  0.33100  0.19100  Biso   1.000  H
  H100     1.0000 0.74690  0.25070  0.10660  Biso   1.000  H
  N21      1.0000 0.28900  0.09370  0.20410  Biso   1.000  N
  C121     1.0000 0.28000  0.08420  0.17040  Biso   1.000  C
  C122     1.0000 0.38440  0.07310  0.14970  Biso   1.000  C
  C123     1.0000 0.24270  0.67870  0.16430  Biso   1.000  C
  C124     1.0000 0.23260  0.66940  0.19960  Biso   1.000  C
  C125     1.0000 0.34210  0.65820  0.21790  Biso   1.000  C
  C126     1.0000 0.12190  0.69220  0.14520  Biso   1.000  C
  N22      1.0000 0.26940  0.82810  0.22300  Biso   1.000  N
  C127     1.0000 0.15110  0.81120  0.22570  Biso   1.000  C
  C128     1.0000 0.09310  0.78460  0.20050  Biso   1.000  C
  C129     1.0000 0.15970  0.77380  0.17060  Biso   1.000  C
  C130     1.0000 0.28330  0.79110  0.16800  Biso   1.000  C
  C131     1.0000 0.33150  0.81840  0.19420  Biso   1.000  C
  C132     1.0000 0.09870  0.74480  0.14390  Biso   1.000  C
  H101     1.0000 0.19640  0.08510  0.16000  Biso   1.000  H
  H102     1.0000 0.37220  0.06690  0.12580  Biso   1.000  H
  H103     1.0000 0.15050  0.67070  0.21080  Biso   1.000  H
  H104     1.0000 0.33280  0.65150  0.24180  Biso   1.000  H
  H105     1.0000 0.04370  0.67590  0.15400  Biso   1.000  H
  H106     1.0000 0.14720  0.81750  0.00390  Biso   1.000  H
  H107     1.0000 0.24280  0.77380  0.04620  Biso   1.000  H
  H108     1.0000 0.33550  0.78430  0.14840  Biso   1.000  H
  H109     1.0000 0.41540  0.83100  0.19100  Biso   1.000  H
  H110     1.0000 0.24690  0.75070  0.10660  Biso   1.000  H
  N23      1.0000 0.28900  0.59370  0.70410  Biso   1.000  N
  C133     1.0000 0.28000  0.58420  0.67040  Biso   1.000  C
  C134     1.0000 0.38440  0.57310  0.64970  Biso   1.000  C
  C135     1.0000 0.24270  0.17870  0.66430  Biso   1.000  C
  C136     1.0000 0.23260  0.16940  0.69960  Biso   1.000  C
  C137     1.0000 0.34210  0.15820  0.71790  Biso   1.000  C
  C138     1.0000 0.12190  0.19220  0.64520  Biso   1.000  C
  N24      1.0000 0.26940  0.32810  0.72300  Biso   1.000  N
  C139     1.0000 0.15110  0.31120  0.72570  Biso   1.000  C
  C140     1.0000 0.09310  0.28460  0.70050  Biso   1.000  C
  C141     1.0000 0.15970  0.27380  0.67060  Biso   1.000  C
  C142     1.0000 0.28330  0.29110  0.66800  Biso   1.000  C
  C143     1.0000 0.33150  0.31840  0.69420  Biso   1.000  C
  C144     1.0000 0.09870  0.24480  0.64390  Biso   1.000  C
  H111     1.0000 0.19640  0.58510  0.66000  Biso   1.000  H
  H112     1.0000 0.37220  0.56690  0.62580  Biso   1.000  H
  H113     1.0000 0.15050  0.17070  0.71080  Biso   1.000  H
  H114     1.0000 0.33280  0.15150  0.74180  Biso   1.000  H
  H115     1.0000 0.04370  0.17590  0.65400  Biso   1.000  H
  H116     1.0000 0.14720  0.31750  0.50390  Biso   1.000  H
  H117     1.0000 0.24280  0.27380  0.54620  Biso   1.000  H
  H118     1.0000 0.33550  0.28430  0.64840  Biso   1.000  H
  H119     1.0000 0.41540  0.33100  0.69100  Biso   1.000  H
  H120     1.0000 0.24690  0.25070  0.60660  Biso   1.000  H
  N25      1.0000 0.96100  0.65630  0.70410  Biso   1.000  N
  C145     1.0000 0.97000  0.66580  0.67040  Biso   1.000  C
  C146     1.0000 0.86560  0.67690  0.64970  Biso   1.000  C
  C147     1.0000 0.00730  0.07130  0.66430  Biso   1.000  C
  C148     1.0000 0.01740  0.08060  0.69960  Biso   1.000  C
  C149     1.0000 0.90790  0.09180  0.71790  Biso   1.000  C
  C150     1.0000 0.12810  0.05780  0.64520  Biso   1.000  C
  N26      1.0000 0.98060  0.92190  0.72300  Biso   1.000  N
  C151     1.0000 0.09890  0.93880  0.72570  Biso   1.000  C
  C152     1.0000 0.15690  0.96540  0.70050  Biso   1.000  C
  C153     1.0000 0.09030  0.97620  0.67060  Biso   1.000  C
  C154     1.0000 0.96670  0.95890  0.66800  Biso   1.000  C
  C155     1.0000 0.91850  0.93160  0.69420  Biso   1.000  C
  C156     1.0000 0.15130  0.00520  0.64390  Biso   1.000  C
  H121     1.0000 0.05360  0.66490  0.66000  Biso   1.000  H
  H122     1.0000 0.87780  0.68310  0.62580  Biso   1.000  H
  H123     1.0000 0.09950  0.07930  0.71080  Biso   1.000  H
  H124     1.0000 0.91720  0.09850  0.74180  Biso   1.000  H
  H125     1.0000 0.20630  0.07410  0.65400  Biso   1.000  H
  H126     1.0000 0.10280  0.93250  0.50390  Biso   1.000  H
  H127     1.0000 0.00720  0.97620  0.54620  Biso   1.000  H
  H128     1.0000 0.91450  0.96570  0.64840  Biso   1.000  H
  H129     1.0000 0.83460  0.91900  0.69100  Biso   1.000  H
  H130     1.0000 0.00310  0.99930  0.60660  Biso   1.000  H
  N27      1.0000 0.96100  0.15630  0.20410  Biso   1.000  N
  C157     1.0000 0.97000  0.16580  0.17040  Biso   1.000  C
  C158     1.0000 0.86560  0.17690  0.14970  Biso   1.000  C
  C159     1.0000 0.00730  0.57130  0.16430  Biso   1.000  C
  C160     1.0000 0.01740  0.58060  0.19960  Biso   1.000  C
  C161     1.0000 0.90790  0.59180  0.21790  Biso   1.000  C
  C162     1.0000 0.12810  0.55780  0.14520  Biso   1.000  C
  N28      1.0000 0.98060  0.42190  0.22300  Biso   1.000  N
  C163     1.0000 0.09890  0.43880  0.22570  Biso   1.000  C
  C164     1.0000 0.15690  0.46540  0.20050  Biso   1.000  C
  C165     1.0000 0.09030  0.47620  0.17060  Biso   1.000  C
  C166     1.0000 0.96670  0.45890  0.16800  Biso   1.000  C
  C167     1.0000 0.91850  0.43160  0.19420  Biso   1.000  C
  C168     1.0000 0.15130  0.50520  0.14390  Biso   1.000  C
  H131     1.0000 0.05360  0.16490  0.16000  Biso   1.000  H
  H132     1.0000 0.87780  0.18310  0.12580  Biso   1.000  H
  H133     1.0000 0.09950  0.57930  0.21080  Biso   1.000  H
  H134     1.0000 0.91720  0.59850  0.24180  Biso   1.000  H
  H135     1.0000 0.20630  0.57410  0.15400  Biso   1.000  H
  H136     1.0000 0.10280  0.43250  0.00390  Biso   1.000  H
  H137     1.0000 0.00720  0.47620  0.04620  Biso   1.000  H
  H138     1.0000 0.91450  0.46570  0.14840  Biso   1.000  H
  H139     1.0000 0.83460  0.41900  0.19100  Biso   1.000  H
  H140     1.0000 0.00310  0.49930  0.10660  Biso   1.000  H
  N29      1.0000 0.46100  0.65630  0.20410  Biso   1.000  N
  C169     1.0000 0.47000  0.66580  0.17040  Biso   1.000  C
  C170     1.0000 0.36560  0.67690  0.14970  Biso   1.000  C
  C171     1.0000 0.50730  0.07130  0.16430  Biso   1.000  C
  C172     1.0000 0.51740  0.08060  0.19960  Biso   1.000  C
  C173     1.0000 0.40790  0.09180  0.21790  Biso   1.000  C
  C174     1.0000 0.62810  0.05780  0.14520  Biso   1.000  C
  N30      1.0000 0.48060  0.92190  0.22300  Biso   1.000  N
  C175     1.0000 0.59890  0.93880  0.22570  Biso   1.000  C
  C176     1.0000 0.65690  0.96540  0.20050  Biso   1.000  C
  C177     1.0000 0.59030  0.97620  0.17060  Biso   1.000  C
  C178     1.0000 0.46670  0.95890  0.16800  Biso   1.000  C
  C179     1.0000 0.41850  0.93160  0.19420  Biso   1.000  C
  C180     1.0000 0.65130  0.00520  0.14390  Biso   1.000  C
  H141     1.0000 0.55360  0.66490  0.16000  Biso   1.000  H
  H142     1.0000 0.37780  0.68310  0.12580  Biso   1.000  H
  H143     1.0000 0.59950  0.07930  0.21080  Biso   1.000  H
  H144     1.0000 0.41720  0.09850  0.24180  Biso   1.000  H
  H145     1.0000 0.70630  0.07410  0.15400  Biso   1.000  H
  H146     1.0000 0.60280  0.93250  0.00390  Biso   1.000  H
  H147     1.0000 0.50720  0.97620  0.04620  Biso   1.000  H
  H148     1.0000 0.41450  0.96570  0.14840  Biso   1.000  H
  H149     1.0000 0.33460  0.91900  0.19100  Biso   1.000  H
  H150     1.0000 0.50310  0.99930  0.10660  Biso   1.000  H
  N31      1.0000 0.46100  0.15630  0.70410  Biso   1.000  N
  C181     1.0000 0.47000  0.16580  0.67040  Biso   1.000  C
  C182     1.0000 0.36560  0.17690  0.64970  Biso   1.000  C
  C183     1.0000 0.50730  0.57130  0.66430  Biso   1.000  C
  C184     1.0000 0.51740  0.58060  0.69960  Biso   1.000  C
  C185     1.0000 0.40790  0.59180  0.71790  Biso   1.000  C
  C186     1.0000 0.62810  0.55780  0.64520  Biso   1.000  C
  N32      1.0000 0.48060  0.42190  0.72300  Biso   1.000  N
  C187     1.0000 0.59890  0.43880  0.72570  Biso   1.000  C
  C188     1.0000 0.65690  0.46540  0.70050  Biso   1.000  C
  C189     1.0000 0.59030  0.47620  0.67060  Biso   1.000  C
  C190     1.0000 0.46670  0.45890  0.66800  Biso   1.000  C
  C191     1.0000 0.41850  0.43160  0.69420  Biso   1.000  C
  C192     1.0000 0.65130  0.50520  0.64390  Biso   1.000  C
  H151     1.0000 0.55360  0.16490  0.66000  Biso   1.000  H
  H152     1.0000 0.37780  0.18310  0.62580  Biso   1.000  H
  H153     1.0000 0.59950  0.57930  0.71080  Biso   1.000  H
  H154     1.0000 0.41720  0.59850  0.74180  Biso   1.000  H
  H155     1.0000 0.70630  0.57410  0.65400  Biso   1.000  H
  H156     1.0000 0.60280  0.43250  0.50390  Biso   1.000  H
  H157     1.0000 0.50720  0.47620  0.54620  Biso   1.000  H
  H158     1.0000 0.41450  0.46570  0.64840  Biso   1.000  H
  H159     1.0000 0.33460  0.41900  0.69100  Biso   1.000  H
  H160     1.0000 0.50310  0.49930  0.60660  Biso   1.000  H
  N33      1.0000 0.03900  0.90630  0.95410  Biso   1.000  N
  C193     1.0000 0.03000  0.91580  0.92040  Biso   1.000  C
  C194     1.0000 0.13440  0.92690  0.89970  Biso   1.000  C
  C195     1.0000 0.99270  0.32130  0.91430  Biso   1.000  C
  C196     1.0000 0.98260  0.33060  0.94960  Biso   1.000  C
  C197     1.0000 0.09210  0.34180  0.96790  Biso   1.000  C
  C198     1.0000 0.87190  0.30780  0.89520  Biso   1.000  C
  N34      1.0000 0.01940  0.17190  0.97300  Biso   1.000  N
  C199     1.0000 0.90110  0.18880  0.97570  Biso   1.000  C
  C200     1.0000 0.84310  0.21540  0.95050  Biso   1.000  C
  C201     1.0000 0.90970  0.22620  0.92060  Biso   1.000  C
  C202     1.0000 0.03330  0.20890  0.91800  Biso   1.000  C
  C203     1.0000 0.08150  0.18160  0.94420  Biso   1.000  C
  C204     1.0000 0.84870  0.25520  0.89390  Biso   1.000  C
  H161     1.0000 0.94640  0.91490  0.91000  Biso   1.000  H
  H162     1.0000 0.12220  0.93310  0.87580  Biso   1.000  H
  H163     1.0000 0.90050  0.32930  0.96080  Biso   1.000  H
  H164     1.0000 0.08280  0.34850  0.99180  Biso   1.000  H
  H165     1.0000 0.79370  0.32410  0.90400  Biso   1.000  H
  H166     1.0000 0.89720  0.18250  0.75390  Biso   1.000  H
  H167     1.0000 0.99280  0.22620  0.79620  Biso   1.000  H
  H168     1.0000 0.08550  0.21570  0.89840  Biso   1.000  H
  H169     1.0000 0.16540  0.16900  0.94100  Biso   1.000  H
  H170     1.0000 0.99690  0.24930  0.85660  Biso   1.000  H
  N35      1.0000 0.03900  0.40630  0.45410  Biso   1.000  N
  C205     1.0000 0.03000  0.41580  0.42040  Biso   1.000  C
  C206     1.0000 0.13440  0.42690  0.39970  Biso   1.000  C
  C207     1.0000 0.99270  0.82130  0.41430  Biso   1.000  C
  C208     1.0000 0.98260  0.83060  0.44960  Biso   1.000  C
  C209     1.0000 0.09210  0.84180  0.46790  Biso   1.000  C
  C210     1.0000 0.87190  0.80780  0.39520  Biso   1.000  C
  N36      1.0000 0.01940  0.67190  0.47300  Biso   1.000  N
  C211     1.0000 0.90110  0.68880  0.47570  Biso   1.000  C
  C212     1.0000 0.84310  0.71540  0.45050  Biso   1.000  C
  C213     1.0000 0.90970  0.72620  0.42060  Biso   1.000  C
  C214     1.0000 0.03330  0.70890  0.41800  Biso   1.000  C
  C215     1.0000 0.08150  0.68160  0.44420  Biso   1.000  C
  C216     1.0000 0.84870  0.75520  0.39390  Biso   1.000  C
  H171     1.0000 0.94640  0.41490  0.41000  Biso   1.000  H
  H172     1.0000 0.12220  0.43310  0.37580  Biso   1.000  H
  H173     1.0000 0.90050  0.82930  0.46080  Biso   1.000  H
  H174     1.0000 0.08280  0.84850  0.49180  Biso   1.000  H
  H175     1.0000 0.79370  0.82410  0.40400  Biso   1.000  H
  H176     1.0000 0.89720  0.68250  0.25390  Biso   1.000  H
  H177     1.0000 0.99280  0.72620  0.29620  Biso   1.000  H
  H178     1.0000 0.08550  0.71570  0.39840  Biso   1.000  H
  H179     1.0000 0.16540  0.66900  0.44100  Biso   1.000  H
  H180     1.0000 0.99690  0.74930  0.35660  Biso   1.000  H
  N37      1.0000 0.53900  0.90630  0.45410  Biso   1.000  N
  C217     1.0000 0.53000  0.91580  0.42040  Biso   1.000  C
  C218     1.0000 0.63440  0.92690  0.39970  Biso   1.000  C
  C219     1.0000 0.49270  0.32130  0.41430  Biso   1.000  C
  C220     1.0000 0.48260  0.33060  0.44960  Biso   1.000  C
  C221     1.0000 0.59210  0.34180  0.46790  Biso   1.000  C
  C222     1.0000 0.37190  0.30780  0.39520  Biso   1.000  C
  N38      1.0000 0.51940  0.17190  0.47300  Biso   1.000  N
  C223     1.0000 0.40110  0.18880  0.47570  Biso   1.000  C
  C224     1.0000 0.34310  0.21540  0.45050  Biso   1.000  C
  C225     1.0000 0.40970  0.22620  0.42060  Biso   1.000  C
  C226     1.0000 0.53330  0.20890  0.41800  Biso   1.000  C
  C227     1.0000 0.58150  0.18160  0.44420  Biso   1.000  C
  C228     1.0000 0.34870  0.25520  0.39390  Biso   1.000  C
  H181     1.0000 0.44640  0.91490  0.41000  Biso   1.000  H
  H182     1.0000 0.62220  0.93310  0.37580  Biso   1.000  H
  H183     1.0000 0.40050  0.32930  0.46080  Biso   1.000  H
  H184     1.0000 0.58280  0.34850  0.49180  Biso   1.000  H
  H185     1.0000 0.29370  0.32410  0.40400  Biso   1.000  H
  H186     1.0000 0.39720  0.18250  0.25390  Biso   1.000  H
  H187     1.0000 0.49280  0.22620  0.29620  Biso   1.000  H
  H188     1.0000 0.58550  0.21570  0.39840  Biso   1.000  H
  H189     1.0000 0.66540  0.16900  0.44100  Biso   1.000  H
  H190     1.0000 0.49690  0.24930  0.35660  Biso   1.000  H
  N39      1.0000 0.53900  0.40630  0.95410  Biso   1.000  N
  C229     1.0000 0.53000  0.41580  0.92040  Biso   1.000  C
  C230     1.0000 0.63440  0.42690  0.89970  Biso   1.000  C
  C231     1.0000 0.49270  0.82130  0.91430  Biso   1.000  C
  C232     1.0000 0.48260  0.83060  0.94960  Biso   1.000  C
  C233     1.0000 0.59210  0.84180  0.96790  Biso   1.000  C
  C234     1.0000 0.37190  0.80780  0.89520  Biso   1.000  C
  N40      1.0000 0.51940  0.67190  0.97300  Biso   1.000  N
  C235     1.0000 0.40110  0.68880  0.97570  Biso   1.000  C
  C236     1.0000 0.34310  0.71540  0.95050  Biso   1.000  C
  C237     1.0000 0.40970  0.72620  0.92060  Biso   1.000  C
  C238     1.0000 0.53330  0.70890  0.91800  Biso   1.000  C
  C239     1.0000 0.58150  0.68160  0.94420  Biso   1.000  C
  C240     1.0000 0.34870  0.75520  0.89390  Biso   1.000  C
  H191     1.0000 0.44640  0.41490  0.91000  Biso   1.000  H
  H192     1.0000 0.62220  0.43310  0.87580  Biso   1.000  H
  H193     1.0000 0.40050  0.82930  0.96080  Biso   1.000  H
  H194     1.0000 0.58280  0.84850  0.99180  Biso   1.000  H
  H195     1.0000 0.29370  0.82410  0.90400  Biso   1.000  H
  H196     1.0000 0.39720  0.68250  0.75390  Biso   1.000  H
  H197     1.0000 0.49280  0.72620  0.79620  Biso   1.000  H
  H198     1.0000 0.58550  0.71570  0.89840  Biso   1.000  H
  H199     1.0000 0.66540  0.66900  0.94100  Biso   1.000  H
  H200     1.0000 0.49690  0.74930  0.85660  Biso   1.000  H
  N41      1.0000 0.21100  0.34370  0.95410  Biso   1.000  N
  C241     1.0000 0.22000  0.33420  0.92040  Biso   1.000  C
  C242     1.0000 0.11560  0.32310  0.89970  Biso   1.000  C
  C243     1.0000 0.25730  0.92870  0.91430  Biso   1.000  C
  C244     1.0000 0.26740  0.91940  0.94960  Biso   1.000  C
  C245     1.0000 0.15790  0.90820  0.96790  Biso   1.000  C
  C246     1.0000 0.37810  0.94220  0.89520  Biso   1.000  C
  N42      1.0000 0.23060  0.07810  0.97300  Biso   1.000  N
  C247     1.0000 0.34890  0.06120  0.97570  Biso   1.000  C
  C248     1.0000 0.40690  0.03460  0.95050  Biso   1.000  C
  C249     1.0000 0.34030  0.02380  0.92060  Biso   1.000  C
  C250     1.0000 0.21670  0.04110  0.91800  Biso   1.000  C
  C251     1.0000 0.16850  0.06840  0.94420  Biso   1.000  C
  C252     1.0000 0.40130  0.99480  0.89390  Biso   1.000  C
  H201     1.0000 0.30360  0.33510  0.91000  Biso   1.000  H
  H202     1.0000 0.12780  0.31690  0.87580  Biso   1.000  H
  H203     1.0000 0.34950  0.92070  0.96080  Biso   1.000  H
  H204     1.0000 0.16720  0.90150  0.99180  Biso   1.000  H
  H205     1.0000 0.45630  0.92590  0.90400  Biso   1.000  H
  H206     1.0000 0.35280  0.06750  0.75390  Biso   1.000  H
  H207     1.0000 0.25720  0.02380  0.79620  Biso   1.000  H
  H208     1.0000 0.16450  0.03430  0.89840  Biso   1.000  H
  H209     1.0000 0.08460  0.08100  0.94100  Biso   1.000  H
  H210     1.0000 0.25310  0.00070  0.85660  Biso   1.000  H
  N43      1.0000 0.21100  0.84370  0.45410  Biso   1.000  N
  C253     1.0000 0.22000  0.83420  0.42040  Biso   1.000  C
  C254     1.0000 0.11560  0.82310  0.39970  Biso   1.000  C
  C255     1.0000 0.25730  0.42870  0.41430  Biso   1.000  C
  C256     1.0000 0.26740  0.41940  0.44960  Biso   1.000  C
  C257     1.0000 0.15790  0.40820  0.46790  Biso   1.000  C
  C258     1.0000 0.37810  0.44220  0.39520  Biso   1.000  C
  N44      1.0000 0.23060  0.57810  0.47300  Biso   1.000  N
  C259     1.0000 0.34890  0.56120  0.47570  Biso   1.000  C
  C260     1.0000 0.40690  0.53460  0.45050  Biso   1.000  C
  C261     1.0000 0.34030  0.52380  0.42060  Biso   1.000  C
  C262     1.0000 0.21670  0.54110  0.41800  Biso   1.000  C
  C263     1.0000 0.16850  0.56840  0.44420  Biso   1.000  C
  C264     1.0000 0.40130  0.49480  0.39390  Biso   1.000  C
  H211     1.0000 0.30360  0.83510  0.41000  Biso   1.000  H
  H212     1.0000 0.12780  0.81690  0.37580  Biso   1.000  H
  H213     1.0000 0.34950  0.42070  0.46080  Biso   1.000  H
  H214     1.0000 0.16720  0.40150  0.49180  Biso   1.000  H
  H215     1.0000 0.45630  0.42590  0.40400  Biso   1.000  H
  H216     1.0000 0.35280  0.56750  0.25390  Biso   1.000  H
  H217     1.0000 0.25720  0.52380  0.29620  Biso   1.000  H
  H218     1.0000 0.16450  0.53430  0.39840  Biso   1.000  H
  H219     1.0000 0.08460  0.58100  0.44100  Biso   1.000  H
  H220     1.0000 0.25310  0.50070  0.35660  Biso   1.000  H
  N45      1.0000 0.71100  0.34370  0.45410  Biso   1.000  N
  C265     1.0000 0.72000  0.33420  0.42040  Biso   1.000  C
  C266     1.0000 0.61560  0.32310  0.39970  Biso   1.000  C
  C267     1.0000 0.75730  0.92870  0.41430  Biso   1.000  C
  C268     1.0000 0.76740  0.91940  0.44960  Biso   1.000  C
  C269     1.0000 0.65790  0.90820  0.46790  Biso   1.000  C
  C270     1.0000 0.87810  0.94220  0.39520  Biso   1.000  C
  N46      1.0000 0.73060  0.07810  0.47300  Biso   1.000  N
  C271     1.0000 0.84890  0.06120  0.47570  Biso   1.000  C
  C272     1.0000 0.90690  0.03460  0.45050  Biso   1.000  C
  C273     1.0000 0.84030  0.02380  0.42060  Biso   1.000  C
  C274     1.0000 0.71670  0.04110  0.41800  Biso   1.000  C
  C275     1.0000 0.66850  0.06840  0.44420  Biso   1.000  C
  C276     1.0000 0.90130  0.99480  0.39390  Biso   1.000  C
  H221     1.0000 0.80360  0.33510  0.41000  Biso   1.000  H
  H222     1.0000 0.62780  0.31690  0.37580  Biso   1.000  H
  H223     1.0000 0.84950  0.92070  0.46080  Biso   1.000  H
  H224     1.0000 0.66720  0.90150  0.49180  Biso   1.000  H
  H225     1.0000 0.95630  0.92590  0.40400  Biso   1.000  H
  H226     1.0000 0.85280  0.06750  0.25390  Biso   1.000  H
  H227     1.0000 0.75720  0.02380  0.29620  Biso   1.000  H
  H228     1.0000 0.66450  0.03430  0.39840  Biso   1.000  H
  H229     1.0000 0.58460  0.08100  0.44100  Biso   1.000  H
  H230     1.0000 0.75310  0.00070  0.35660  Biso   1.000  H
  N47      1.0000 0.71100  0.84370  0.95410  Biso   1.000  N
  C277     1.0000 0.72000  0.83420  0.92040  Biso   1.000  C
  C278     1.0000 0.61560  0.82310  0.89970  Biso   1.000  C
  C279     1.0000 0.75730  0.42870  0.91430  Biso   1.000  C
  C280     1.0000 0.76740  0.41940  0.94960  Biso   1.000  C
  C281     1.0000 0.65790  0.40820  0.96790  Biso   1.000  C
  C282     1.0000 0.87810  0.44220  0.89520  Biso   1.000  C
  N48      1.0000 0.73060  0.57810  0.97300  Biso   1.000  N
  C283     1.0000 0.84890  0.56120  0.97570  Biso   1.000  C
  C284     1.0000 0.90690  0.53460  0.95050  Biso   1.000  C
  C285     1.0000 0.84030  0.52380  0.92060  Biso   1.000  C
  C286     1.0000 0.71670  0.54110  0.91800  Biso   1.000  C
  C287     1.0000 0.66850  0.56840  0.94420  Biso   1.000  C
  C288     1.0000 0.90130  0.49480  0.89390  Biso   1.000  C
  H231     1.0000 0.80360  0.83510  0.91000  Biso   1.000  H
  H232     1.0000 0.62780  0.81690  0.87580  Biso   1.000  H
  H233     1.0000 0.84950  0.42070  0.96080  Biso   1.000  H
  H234     1.0000 0.66720  0.40150  0.99180  Biso   1.000  H
  H235     1.0000 0.95630  0.42590  0.90400  Biso   1.000  H
  H236     1.0000 0.85280  0.56750  0.75390  Biso   1.000  H
  H237     1.0000 0.75720  0.52380  0.79620  Biso   1.000  H
  H238     1.0000 0.66450  0.53430  0.89840  Biso   1.000  H
  H239     1.0000 0.58460  0.58100  0.94100  Biso   1.000  H
  H240     1.0000 0.75310  0.50070  0.85660  Biso   1.000  H
  N49      1.0000 0.21100  0.90630  0.29590  Biso   1.000  N
  C289     1.0000 0.22000  0.91580  0.32960  Biso   1.000  C
  C290     1.0000 0.11560  0.92690  0.35030  Biso   1.000  C
  C291     1.0000 0.25730  0.32130  0.33570  Biso   1.000  C
  C292     1.0000 0.26740  0.33060  0.30040  Biso   1.000  C
  C293     1.0000 0.15790  0.34180  0.28210  Biso   1.000  C
  C294     1.0000 0.37810  0.30780  0.35480  Biso   1.000  C
  N50      1.0000 0.23060  0.17190  0.27700  Biso   1.000  N
  C295     1.0000 0.34890  0.18880  0.27430  Biso   1.000  C
  C296     1.0000 0.40690  0.21540  0.29950  Biso   1.000  C
  C297     1.0000 0.34030  0.22620  0.32940  Biso   1.000  C
  C298     1.0000 0.21670  0.20890  0.33200  Biso   1.000  C
  C299     1.0000 0.16850  0.18160  0.30580  Biso   1.000  C
  C300     1.0000 0.40130  0.25520  0.35610  Biso   1.000  C
  H241     1.0000 0.30360  0.91490  0.34000  Biso   1.000  H
  H242     1.0000 0.12780  0.93310  0.37420  Biso   1.000  H
  H243     1.0000 0.34950  0.32930  0.28920  Biso   1.000  H
  H244     1.0000 0.16720  0.34850  0.25820  Biso   1.000  H
  H245     1.0000 0.45630  0.32410  0.34600  Biso   1.000  H
  H246     1.0000 0.35280  0.18250  0.49610  Biso   1.000  H
  H247     1.0000 0.25720  0.22620  0.45380  Biso   1.000  H
  H248     1.0000 0.16450  0.21570  0.35160  Biso   1.000  H
  H249     1.0000 0.08460  0.16900  0.30900  Biso   1.000  H
  H250     1.0000 0.25310  0.24930  0.39340  Biso   1.000  H
  N51      1.0000 0.21100  0.40630  0.79590  Biso   1.000  N
  C301     1.0000 0.22000  0.41580  0.82960  Biso   1.000  C
  C302     1.0000 0.11560  0.42690  0.85030  Biso   1.000  C
  C303     1.0000 0.25730  0.82130  0.83570  Biso   1.000  C
  C304     1.0000 0.26740  0.83060  0.80040  Biso   1.000  C
  C305     1.0000 0.15790  0.84180  0.78210  Biso   1.000  C
  C306     1.0000 0.37810  0.80780  0.85480  Biso   1.000  C
  N52      1.0000 0.23060  0.67190  0.77700  Biso   1.000  N
  C307     1.0000 0.34890  0.68880  0.77430  Biso   1.000  C
  C308     1.0000 0.40690  0.71540  0.79950  Biso   1.000  C
  C309     1.0000 0.34030  0.72620  0.82940  Biso   1.000  C
  C310     1.0000 0.21670  0.70890  0.83200  Biso   1.000  C
  C311     1.0000 0.16850  0.68160  0.80580  Biso   1.000  C
  C312     1.0000 0.40130  0.75520  0.85610  Biso   1.000  C
  H251     1.0000 0.30360  0.41490  0.84000  Biso   1.000  H
  H252     1.0000 0.12780  0.43310  0.87420  Biso   1.000  H
  H253     1.0000 0.34950  0.82930  0.78920  Biso   1.000  H
  H254     1.0000 0.16720  0.84850  0.75820  Biso   1.000  H
  H255     1.0000 0.45630  0.82410  0.84600  Biso   1.000  H
  H256     1.0000 0.35280  0.68250  0.99610  Biso   1.000  H
  H257     1.0000 0.25720  0.72620  0.95380  Biso   1.000  H
  H258     1.0000 0.16450  0.71570  0.85160  Biso   1.000  H
  H259     1.0000 0.08460  0.66900  0.80900  Biso   1.000  H
  H260     1.0000 0.25310  0.74930  0.89340  Biso   1.000  H
  N53      1.0000 0.71100  0.90630  0.79590  Biso   1.000  N
  C313     1.0000 0.72000  0.91580  0.82960  Biso   1.000  C
  C314     1.0000 0.61560  0.92690  0.85030  Biso   1.000  C
  C315     1.0000 0.75730  0.32130  0.83570  Biso   1.000  C
  C316     1.0000 0.76740  0.33060  0.80040  Biso   1.000  C
  C317     1.0000 0.65790  0.34180  0.78210  Biso   1.000  C
  C318     1.0000 0.87810  0.30780  0.85480  Biso   1.000  C
  N54      1.0000 0.73060  0.17190  0.77700  Biso   1.000  N
  C319     1.0000 0.84890  0.18880  0.77430  Biso   1.000  C
  C320     1.0000 0.90690  0.21540  0.79950  Biso   1.000  C
  C321     1.0000 0.84030  0.22620  0.82940  Biso   1.000  C
  C322     1.0000 0.71670  0.20890  0.83200  Biso   1.000  C
  C323     1.0000 0.66850  0.18160  0.80580  Biso   1.000  C
  C324     1.0000 0.90130  0.25520  0.85610  Biso   1.000  C
  H261     1.0000 0.80360  0.91490  0.84000  Biso   1.000  H
  H262     1.0000 0.62780  0.93310  0.87420  Biso   1.000  H
  H263     1.0000 0.84950  0.32930  0.78920  Biso   1.000  H
  H264     1.0000 0.66720  0.34850  0.75820  Biso   1.000  H
  H265     1.0000 0.95630  0.32410  0.84600  Biso   1.000  H
  H266     1.0000 0.85280  0.18250  0.99610  Biso   1.000  H
  H267     1.0000 0.75720  0.22620  0.95380  Biso   1.000  H
  H268     1.0000 0.66450  0.21570  0.85160  Biso   1.000  H
  H269     1.0000 0.58460  0.16900  0.80900  Biso   1.000  H
  H270     1.0000 0.75310  0.24930  0.89340  Biso   1.000  H
  N55      1.0000 0.71100  0.40630  0.29590  Biso   1.000  N
  C325     1.0000 0.72000  0.41580  0.32960  Biso   1.000  C
  C326     1.0000 0.61560  0.42690  0.35030  Biso   1.000  C
  C327     1.0000 0.75730  0.82130  0.33570  Biso   1.000  C
  C328     1.0000 0.76740  0.83060  0.30040  Biso   1.000  C
  C329     1.0000 0.65790  0.84180  0.28210  Biso   1.000  C
  C330     1.0000 0.87810  0.80780  0.35480  Biso   1.000  C
  N56      1.0000 0.73060  0.67190  0.27700  Biso   1.000  N
  C331     1.0000 0.84890  0.68880  0.27430  Biso   1.000  C
  C332     1.0000 0.90690  0.71540  0.29950  Biso   1.000  C
  C333     1.0000 0.84030  0.72620  0.32940  Biso   1.000  C
  C334     1.0000 0.71670  0.70890  0.33200  Biso   1.000  C
  C335     1.0000 0.66850  0.68160  0.30580  Biso   1.000  C
  C336     1.0000 0.90130  0.75520  0.35610  Biso   1.000  C
  H271     1.0000 0.80360  0.41490  0.34000  Biso   1.000  H
  H272     1.0000 0.62780  0.43310  0.37420  Biso   1.000  H
  H273     1.0000 0.84950  0.82930  0.28920  Biso   1.000  H
  H274     1.0000 0.66720  0.84850  0.25820  Biso   1.000  H
  H275     1.0000 0.95630  0.82410  0.34600  Biso   1.000  H
  H276     1.0000 0.85280  0.68250  0.49610  Biso   1.000  H
  H277     1.0000 0.75720  0.72620  0.45380  Biso   1.000  H
  H278     1.0000 0.66450  0.71570  0.35160  Biso   1.000  H
  H279     1.0000 0.58460  0.66900  0.30900  Biso   1.000  H
  H280     1.0000 0.75310  0.74930  0.39340  Biso   1.000  H
  N57      1.0000 0.03900  0.34370  0.29590  Biso   1.000  N
  C337     1.0000 0.03000  0.33420  0.32960  Biso   1.000  C
  C338     1.0000 0.13440  0.32310  0.35030  Biso   1.000  C
  C339     1.0000 0.99270  0.92870  0.33570  Biso   1.000  C
  C340     1.0000 0.98260  0.91940  0.30040  Biso   1.000  C
  C341     1.0000 0.09210  0.90820  0.28210  Biso   1.000  C
  C342     1.0000 0.87190  0.94220  0.35480  Biso   1.000  C
  N58      1.0000 0.01940  0.07810  0.27700  Biso   1.000  N
  C343     1.0000 0.90110  0.06120  0.27430  Biso   1.000  C
  C344     1.0000 0.84310  0.03460  0.29950  Biso   1.000  C
  C345     1.0000 0.90970  0.02380  0.32940  Biso   1.000  C
  C346     1.0000 0.03330  0.04110  0.33200  Biso   1.000  C
  C347     1.0000 0.08150  0.06840  0.30580  Biso   1.000  C
  C348     1.0000 0.84870  0.99480  0.35610  Biso   1.000  C
  H281     1.0000 0.94640  0.33510  0.34000  Biso   1.000  H
  H282     1.0000 0.12220  0.31690  0.37420  Biso   1.000  H
  H283     1.0000 0.90050  0.92070  0.28920  Biso   1.000  H
  H284     1.0000 0.08280  0.90150  0.25820  Biso   1.000  H
  H285     1.0000 0.79370  0.92590  0.34600  Biso   1.000  H
  H286     1.0000 0.89720  0.06750  0.49610  Biso   1.000  H
  H287     1.0000 0.99280  0.02380  0.45380  Biso   1.000  H
  H288     1.0000 0.08550  0.03430  0.35160  Biso   1.000  H
  H289     1.0000 0.16540  0.08100  0.30900  Biso   1.000  H
  H290     1.0000 0.99690  0.00070  0.39340  Biso   1.000  H
  N59      1.0000 0.03900  0.84370  0.79590  Biso   1.000  N
  C349     1.0000 0.03000  0.83420  0.82960  Biso   1.000  C
  C350     1.0000 0.13440  0.82310  0.85030  Biso   1.000  C
  C351     1.0000 0.99270  0.42870  0.83570  Biso   1.000  C
  C352     1.0000 0.98260  0.41940  0.80040  Biso   1.000  C
  C353     1.0000 0.09210  0.40820  0.78210  Biso   1.000  C
  C354     1.0000 0.87190  0.44220  0.85480  Biso   1.000  C
  N60      1.0000 0.01940  0.57810  0.77700  Biso   1.000  N
  C355     1.0000 0.90110  0.56120  0.77430  Biso   1.000  C
  C356     1.0000 0.84310  0.53460  0.79950  Biso   1.000  C
  C357     1.0000 0.90970  0.52380  0.82940  Biso   1.000  C
  C358     1.0000 0.03330  0.54110  0.83200  Biso   1.000  C
  C359     1.0000 0.08150  0.56840  0.80580  Biso   1.000  C
  C360     1.0000 0.84870  0.49480  0.85610  Biso   1.000  C
  H291     1.0000 0.94640  0.83510  0.84000  Biso   1.000  H
  H292     1.0000 0.12220  0.81690  0.87420  Biso   1.000  H
  H293     1.0000 0.90050  0.42070  0.78920  Biso   1.000  H
  H294     1.0000 0.08280  0.40150  0.75820  Biso   1.000  H
  H295     1.0000 0.79370  0.42590  0.84600  Biso   1.000  H
  H296     1.0000 0.89720  0.56750  0.99610  Biso   1.000  H
  H297     1.0000 0.99280  0.52380  0.95380  Biso   1.000  H
  H298     1.0000 0.08550  0.53430  0.85160  Biso   1.000  H
  H299     1.0000 0.16540  0.58100  0.80900  Biso   1.000  H
  H300     1.0000 0.99690  0.50070  0.89340  Biso   1.000  H
  N61      1.0000 0.53900  0.34370  0.79590  Biso   1.000  N
  C361     1.0000 0.53000  0.33420  0.82960  Biso   1.000  C
  C362     1.0000 0.63440  0.32310  0.85030  Biso   1.000  C
  C363     1.0000 0.49270  0.92870  0.83570  Biso   1.000  C
  C364     1.0000 0.48260  0.91940  0.80040  Biso   1.000  C
  C365     1.0000 0.59210  0.90820  0.78210  Biso   1.000  C
  C366     1.0000 0.37190  0.94220  0.85480  Biso   1.000  C
  N62      1.0000 0.51940  0.07810  0.77700  Biso   1.000  N
  C367     1.0000 0.40110  0.06120  0.77430  Biso   1.000  C
  C368     1.0000 0.34310  0.03460  0.79950  Biso   1.000  C
  C369     1.0000 0.40970  0.02380  0.82940  Biso   1.000  C
  C370     1.0000 0.53330  0.04110  0.83200  Biso   1.000  C
  C371     1.0000 0.58150  0.06840  0.80580  Biso   1.000  C
  C372     1.0000 0.34870  0.99480  0.85610  Biso   1.000  C
  H301     1.0000 0.44640  0.33510  0.84000  Biso   1.000  H
  H302     1.0000 0.62220  0.31690  0.87420  Biso   1.000  H
  H303     1.0000 0.40050  0.92070  0.78920  Biso   1.000  H
  H304     1.0000 0.58280  0.90150  0.75820  Biso   1.000  H
  H305     1.0000 0.29370  0.92590  0.84600  Biso   1.000  H
  H306     1.0000 0.39720  0.06750  0.99610  Biso   1.000  H
  H307     1.0000 0.49280  0.02380  0.95380  Biso   1.000  H
  H308     1.0000 0.58550  0.03430  0.85160  Biso   1.000  H
  H309     1.0000 0.66540  0.08100  0.80900  Biso   1.000  H
  H310     1.0000 0.49690  0.00070  0.89340  Biso   1.000  H
  N63      1.0000 0.53900  0.84370  0.29590  Biso   1.000  N
  C373     1.0000 0.53000  0.83420  0.32960  Biso   1.000  C
  C374     1.0000 0.63440  0.82310  0.35030  Biso   1.000  C
  C375     1.0000 0.49270  0.42870  0.33570  Biso   1.000  C
  C376     1.0000 0.48260  0.41940  0.30040  Biso   1.000  C
  C377     1.0000 0.59210  0.40820  0.28210  Biso   1.000  C
  C378     1.0000 0.37190  0.44220  0.35480  Biso   1.000  C
  N64      1.0000 0.51940  0.57810  0.27700  Biso   1.000  N
  C379     1.0000 0.40110  0.56120  0.27430  Biso   1.000  C
  C380     1.0000 0.34310  0.53460  0.29950  Biso   1.000  C
  C381     1.0000 0.40970  0.52380  0.32940  Biso   1.000  C
  C382     1.0000 0.53330  0.54110  0.33200  Biso   1.000  C
  C383     1.0000 0.58150  0.56840  0.30580  Biso   1.000  C
  C384     1.0000 0.34870  0.49480  0.35610  Biso   1.000  C
  H311     1.0000 0.44640  0.83510  0.34000  Biso   1.000  H
  H312     1.0000 0.62220  0.81690  0.37420  Biso   1.000  H
  H313     1.0000 0.40050  0.42070  0.28920  Biso   1.000  H
  H314     1.0000 0.58280  0.40150  0.25820  Biso   1.000  H
  H315     1.0000 0.29370  0.42590  0.34600  Biso   1.000  H
  H316     1.0000 0.39720  0.56750  0.49610  Biso   1.000  H
  H317     1.0000 0.49280  0.52380  0.45380  Biso   1.000  H
  H318     1.0000 0.58550  0.53430  0.35160  Biso   1.000  H
  H319     1.0000 0.66540  0.58100  0.30900  Biso   1.000  H
  H320     1.0000 0.49690  0.50070  0.39340  Biso   1.000  H
  Ag1      1.0000 0.87500  0.87500  0.98660  Biso   1.000  Ag
  Ag2      1.0000 0.87500  0.37500  0.48660  Biso   1.000  Ag
  Ag3      1.0000 0.37500  0.87500  0.48660  Biso   1.000  Ag
  Ag4      1.0000 0.37500  0.37500  0.98660  Biso   1.000  Ag
  Ag5      1.0000 0.87500  0.87500  0.76340  Biso   1.000  Ag
  Ag6      1.0000 0.87500  0.37500  0.26340  Biso   1.000  Ag
  Ag7      1.0000 0.37500  0.87500  0.26340  Biso   1.000  Ag
  Ag8      1.0000 0.37500  0.37500  0.76340  Biso   1.000  Ag
  Ag9      1.0000 0.12500  0.12500  0.01340  Biso   1.000  Ag
  Ag10     1.0000 0.12500  0.62500  0.51340  Biso   1.000  Ag
  Ag11     1.0000 0.62500  0.12500  0.51340  Biso   1.000  Ag
  Ag12     1.0000 0.62500  0.62500  0.01340  Biso   1.000  Ag
  Ag13     1.0000 0.12500  0.12500  0.23660  Biso   1.000  Ag
  Ag14     1.0000 0.12500  0.62500  0.73660  Biso   1.000  Ag
  Ag15     1.0000 0.62500  0.12500  0.73660  Biso   1.000  Ag
  Ag16     1.0000 0.62500  0.62500  0.23660  Biso   1.000  Ag
