data_image0
_cell_length_a       13.839
_cell_length_b       27.91
_cell_length_c       44.93
_cell_angle_alpha    90
_cell_angle_beta     90
_cell_angle_gamma    90

_symmetry_space_group_name_H-M    P 1
_symmetry_int_tables_number       1

loop_
  _symmetry_equiv_pos_as_xyz
  'x, y, z'

loop_
  _atom_site_label
  _atom_site_occupancy
  _atom_site_fract_x
  _atom_site_fract_y
  _atom_site_fract_z
  _atom_site_thermal_displace_type
  _atom_site_B_iso_or_equiv
  _atom_site_type_symbol
  Zn1      1.0000 0.83798  0.25818  0.81660  Biso   1.000  Zn
  Zn2      1.0000 0.62580  0.47757  0.91411  Biso   1.000  Zn
  Zn3      1.0000 0.85332  0.44819  0.08001  Biso   1.000  Zn
  Zn4      1.0000 0.16202  0.24182  0.31660  Biso   1.000  Zn
  Zn5      1.0000 0.37420  0.02243  0.41411  Biso   1.000  Zn
  Zn6      1.0000 0.14668  0.05181  0.58001  Biso   1.000  Zn
  Zn7      1.0000 0.33798  0.74182  0.68340  Biso   1.000  Zn
  Zn8      1.0000 0.12580  0.52243  0.58589  Biso   1.000  Zn
  Zn9      1.0000 0.35332  0.55181  0.41999  Biso   1.000  Zn
  Zn10     1.0000 0.66202  0.75818  0.18340  Biso   1.000  Zn
  Zn11     1.0000 0.87420  0.97757  0.08589  Biso   1.000  Zn
  Zn12     1.0000 0.64668  0.94819  0.91999  Biso   1.000  Zn
  H1       1.0000 0.04610  0.27760  0.83260  Biso   1.000  H
  H2       1.0000 0.13450  0.31890  0.86890  Biso   1.000  H
  H3       1.0000 0.88400  0.35320  0.90800  Biso   1.000  H
  H4       1.0000 0.80180  0.31630  0.87020  Biso   1.000  H
  H5       1.0000 0.47600  0.42210  0.88140  Biso   1.000  H
  H6       1.0000 0.31860  0.39530  0.88710  Biso   1.000  H
  H7       1.0000 0.32920  0.43600  0.97310  Biso   1.000  H
  H8       1.0000 0.48460  0.46530  0.96470  Biso   1.000  H
  H9       1.0000 0.04650  0.46550  0.05220  Biso   1.000  H
  H10      1.0000 0.12950  0.44430  0.00970  Biso   1.000  H
  H11      1.0000 0.88190  0.40030  0.97330  Biso   1.000  H
  H12      1.0000 0.80190  0.42230  0.01690  Biso   1.000  H
  H13      1.0000 0.07940  0.48480  0.64750  Biso   1.000  H
  H14      1.0000 0.05750  0.41240  0.67190  Biso   1.000  H
  H15      1.0000 0.07650  0.34610  0.59270  Biso   1.000  H
  H16      1.0000 0.09560  0.41970  0.57050  Biso   1.000  H
  H17      1.0000 0.89930  0.33640  0.77670  Biso   1.000  H
  H18      1.0000 0.95810  0.34720  0.72860  Biso   1.000  H
  H19      1.0000 0.00780  0.20450  0.72470  Biso   1.000  H
  H20      1.0000 0.95100  0.19830  0.77300  Biso   1.000  H
  H21      1.0000 0.13020  0.15720  0.56560  Biso   1.000  H
  H22      1.0000 0.10540  0.22920  0.58990  Biso   1.000  H
  H23      1.0000 0.03680  0.15480  0.66410  Biso   1.000  H
  H24      1.0000 0.06880  0.08510  0.63790  Biso   1.000  H
  H25      1.0000 0.95390  0.22240  0.33260  Biso   1.000  H
  H26      1.0000 0.86550  0.18110  0.36890  Biso   1.000  H
  H27      1.0000 0.11600  0.14680  0.40800  Biso   1.000  H
  H28      1.0000 0.19820  0.18370  0.37020  Biso   1.000  H
  H29      1.0000 0.52400  0.07790  0.38140  Biso   1.000  H
  H30      1.0000 0.68140  0.10470  0.38710  Biso   1.000  H
  H31      1.0000 0.67080  0.06400  0.47310  Biso   1.000  H
  H32      1.0000 0.51540  0.03470  0.46470  Biso   1.000  H
  H33      1.0000 0.95350  0.03450  0.55220  Biso   1.000  H
  H34      1.0000 0.87050  0.05570  0.50970  Biso   1.000  H
  H35      1.0000 0.11810  0.09970  0.47330  Biso   1.000  H
  H36      1.0000 0.19810  0.07770  0.51690  Biso   1.000  H
  H37      1.0000 0.92060  0.01520  0.14750  Biso   1.000  H
  H38      1.0000 0.94250  0.08760  0.17190  Biso   1.000  H
  H39      1.0000 0.92350  0.15390  0.09270  Biso   1.000  H
  H40      1.0000 0.90440  0.08030  0.07050  Biso   1.000  H
  H41      1.0000 0.10070  0.16360  0.27670  Biso   1.000  H
  H42      1.0000 0.04190  0.15280  0.22860  Biso   1.000  H
  H43      1.0000 0.99220  0.29550  0.22470  Biso   1.000  H
  H44      1.0000 0.04900  0.30170  0.27300  Biso   1.000  H
  H45      1.0000 0.86980  0.34280  0.06560  Biso   1.000  H
  H46      1.0000 0.89460  0.27080  0.08990  Biso   1.000  H
  H47      1.0000 0.96320  0.34520  0.16410  Biso   1.000  H
  H48      1.0000 0.93120  0.41490  0.13790  Biso   1.000  H
  H49      1.0000 0.54610  0.72240  0.66740  Biso   1.000  H
  H50      1.0000 0.63450  0.68110  0.63110  Biso   1.000  H
  H51      1.0000 0.38400  0.64680  0.59200  Biso   1.000  H
  H52      1.0000 0.30180  0.68370  0.62980  Biso   1.000  H
  H53      1.0000 0.97600  0.57790  0.61860  Biso   1.000  H
  H54      1.0000 0.81860  0.60470  0.61290  Biso   1.000  H
  H55      1.0000 0.82920  0.56400  0.52690  Biso   1.000  H
  H56      1.0000 0.98460  0.53470  0.53530  Biso   1.000  H
  H57      1.0000 0.54650  0.53450  0.44780  Biso   1.000  H
  H58      1.0000 0.62950  0.55570  0.49030  Biso   1.000  H
  H59      1.0000 0.38190  0.59970  0.52670  Biso   1.000  H
  H60      1.0000 0.30190  0.57770  0.48310  Biso   1.000  H
  H61      1.0000 0.57940  0.51520  0.85250  Biso   1.000  H
  H62      1.0000 0.55750  0.58760  0.82810  Biso   1.000  H
  H63      1.0000 0.57650  0.65390  0.90730  Biso   1.000  H
  H64      1.0000 0.59560  0.58030  0.92950  Biso   1.000  H
  H65      1.0000 0.39930  0.66360  0.72330  Biso   1.000  H
  H66      1.0000 0.45810  0.65280  0.77140  Biso   1.000  H
  H67      1.0000 0.50780  0.79550  0.77530  Biso   1.000  H
  H68      1.0000 0.45100  0.80170  0.72700  Biso   1.000  H
  H69      1.0000 0.63020  0.84280  0.93440  Biso   1.000  H
  H70      1.0000 0.60540  0.77080  0.91010  Biso   1.000  H
  H71      1.0000 0.53680  0.84520  0.83590  Biso   1.000  H
  H72      1.0000 0.56880  0.91490  0.86210  Biso   1.000  H
  H73      1.0000 0.45390  0.77760  0.16740  Biso   1.000  H
  H74      1.0000 0.36550  0.81890  0.13110  Biso   1.000  H
  H75      1.0000 0.61600  0.85320  0.09200  Biso   1.000  H
  H76      1.0000 0.69820  0.81630  0.12980  Biso   1.000  H
  H77      1.0000 0.02400  0.92210  0.11860  Biso   1.000  H
  H78      1.0000 0.18140  0.89530  0.11290  Biso   1.000  H
  H79      1.0000 0.17080  0.93600  0.02690  Biso   1.000  H
  H80      1.0000 0.01540  0.96530  0.03530  Biso   1.000  H
  H81      1.0000 0.45350  0.96550  0.94780  Biso   1.000  H
  H82      1.0000 0.37050  0.94430  0.99030  Biso   1.000  H
  H83      1.0000 0.61810  0.90030  0.02670  Biso   1.000  H
  H84      1.0000 0.69810  0.92230  0.98310  Biso   1.000  H
  H85      1.0000 0.42060  0.98480  0.35250  Biso   1.000  H
  H86      1.0000 0.44250  0.91240  0.32810  Biso   1.000  H
  H87      1.0000 0.42350  0.84610  0.40730  Biso   1.000  H
  H88      1.0000 0.40440  0.91970  0.42950  Biso   1.000  H
  H89      1.0000 0.60070  0.83640  0.22330  Biso   1.000  H
  H90      1.0000 0.54190  0.84720  0.27140  Biso   1.000  H
  H91      1.0000 0.49220  0.70450  0.27530  Biso   1.000  H
  H92      1.0000 0.54900  0.69830  0.22700  Biso   1.000  H
  H93      1.0000 0.36980  0.65720  0.43440  Biso   1.000  H
  H94      1.0000 0.39460  0.72920  0.41010  Biso   1.000  H
  H95      1.0000 0.46320  0.65480  0.33590  Biso   1.000  H
  H96      1.0000 0.43120  0.58510  0.36210  Biso   1.000  H
  C1       1.0000 0.01260  0.29400  0.84800  Biso   1.000  C
  C2       1.0000 0.06600  0.31770  0.86990  Biso   1.000  C
  C3       1.0000 0.01800  0.33920  0.89294  Biso   1.000  C
  C4       1.0000 0.91920  0.33820  0.89240  Biso   1.000  C
  C5       1.0000 0.87050  0.31600  0.87000  Biso   1.000  C
  C6       1.0000 0.07060  0.36460  0.91661  Biso   1.000  C
  C7       1.0000 0.20570  0.39870  0.93499  Biso   1.000  C
  C8       1.0000 0.06870  0.40270  0.96064  Biso   1.000  C
  C9       1.0000 0.44500  0.42600  0.90010  Biso   1.000  C
  C10      1.0000 0.35180  0.40930  0.90340  Biso   1.000  C
  C11      1.0000 0.30750  0.41330  0.93080  Biso   1.000  C
  C12      1.0000 0.35750  0.43360  0.95390  Biso   1.000  C
  C13      1.0000 0.45050  0.45070  0.94870  Biso   1.000  C
  C14      1.0000 0.01270  0.45050  0.03630  Biso   1.000  C
  C15      1.0000 0.06200  0.43860  0.01100  Biso   1.000  C
  C16      1.0000 0.01440  0.41830  0.98725  Biso   1.000  C
  C17      1.0000 0.91770  0.41280  0.98950  Biso   1.000  C
  C18      1.0000 0.87020  0.42540  0.01590  Biso   1.000  C
  C19      1.0000 0.07970  0.45600  0.63620  Biso   1.000  C
  C20      1.0000 0.06610  0.41310  0.65100  Biso   1.000  C
  C21      1.0000 0.06530  0.37240  0.63491  Biso   1.000  C
  C22      1.0000 0.07700  0.37440  0.60440  Biso   1.000  C
  C23      1.0000 0.08940  0.41830  0.59150  Biso   1.000  C
  C24      1.0000 0.05390  0.32420  0.64980  Biso   1.000  C
  C25      1.0000 0.01910  0.28040  0.68999  Biso   1.000  C
  C26      1.0000 0.05550  0.24460  0.64685  Biso   1.000  C
  C27      1.0000 0.92060  0.30930  0.76560  Biso   1.000  C
  C28      1.0000 0.95580  0.31600  0.73710  Biso   1.000  C
  C29      1.0000 0.98770  0.27650  0.72099  Biso   1.000  C
  C30      1.0000 0.98540  0.23220  0.73485  Biso   1.000  C
  C31      1.0000 0.95060  0.22860  0.76336  Biso   1.000  C
  C32      1.0000 0.11250  0.15670  0.58600  Biso   1.000  C
  C33      1.0000 0.09730  0.19980  0.60028  Biso   1.000  C
  C34      1.0000 0.07000  0.19950  0.62990  Biso   1.000  C
  C35      1.0000 0.05760  0.15620  0.64394  Biso   1.000  C
  C36      1.0000 0.07600  0.11500  0.62811  Biso   1.000  C
  C37      1.0000 0.98740  0.20600  0.34800  Biso   1.000  C
  C38      1.0000 0.93400  0.18230  0.36990  Biso   1.000  C
  C39      1.0000 0.98200  0.16080  0.39294  Biso   1.000  C
  C40      1.0000 0.08080  0.16180  0.39240  Biso   1.000  C
  C41      1.0000 0.12950  0.18400  0.37000  Biso   1.000  C
  C42      1.0000 0.92940  0.13540  0.41661  Biso   1.000  C
  C43      1.0000 0.79430  0.10130  0.43499  Biso   1.000  C
  C44      1.0000 0.93130  0.09730  0.46064  Biso   1.000  C
  C45      1.0000 0.55500  0.07400  0.40010  Biso   1.000  C
  C46      1.0000 0.64820  0.09070  0.40340  Biso   1.000  C
  C47      1.0000 0.69250  0.08670  0.43080  Biso   1.000  C
  C48      1.0000 0.64250  0.06640  0.45390  Biso   1.000  C
  C49      1.0000 0.54950  0.04930  0.44870  Biso   1.000  C
  C50      1.0000 0.98730  0.04950  0.53630  Biso   1.000  C
  C51      1.0000 0.93800  0.06140  0.51100  Biso   1.000  C
  C52      1.0000 0.98560  0.08170  0.48725  Biso   1.000  C
  C53      1.0000 0.08230  0.08720  0.48950  Biso   1.000  C
  C54      1.0000 0.12980  0.07460  0.51590  Biso   1.000  C
  C55      1.0000 0.92030  0.04400  0.13620  Biso   1.000  C
  C56      1.0000 0.93390  0.08690  0.15100  Biso   1.000  C
  C57      1.0000 0.93470  0.12760  0.13491  Biso   1.000  C
  C58      1.0000 0.92300  0.12560  0.10440  Biso   1.000  C
  C59      1.0000 0.91060  0.08170  0.09150  Biso   1.000  C
  C60      1.0000 0.94610  0.17580  0.14980  Biso   1.000  C
  C61      1.0000 0.98090  0.21960  0.18999  Biso   1.000  C
  C62      1.0000 0.94450  0.25540  0.14685  Biso   1.000  C
  C63      1.0000 0.07940  0.19070  0.26560  Biso   1.000  C
  C64      1.0000 0.04420  0.18400  0.23710  Biso   1.000  C
  C65      1.0000 0.01230  0.22350  0.22099  Biso   1.000  C
  C66      1.0000 0.01460  0.26780  0.23485  Biso   1.000  C
  C67      1.0000 0.04940  0.27140  0.26336  Biso   1.000  C
  C68      1.0000 0.88750  0.34330  0.08600  Biso   1.000  C
  C69      1.0000 0.90270  0.30020  0.10028  Biso   1.000  C
  C70      1.0000 0.93000  0.30050  0.12990  Biso   1.000  C
  C71      1.0000 0.94240  0.34380  0.14394  Biso   1.000  C
  C72      1.0000 0.92400  0.38500  0.12811  Biso   1.000  C
  C73      1.0000 0.51260  0.70600  0.65200  Biso   1.000  C
  C74      1.0000 0.56600  0.68230  0.63010  Biso   1.000  C
  C75      1.0000 0.51800  0.66080  0.60706  Biso   1.000  C
  C76      1.0000 0.41920  0.66180  0.60760  Biso   1.000  C
  C77      1.0000 0.37050  0.68400  0.63000  Biso   1.000  C
  C78      1.0000 0.57060  0.63540  0.58339  Biso   1.000  C
  C79      1.0000 0.70570  0.60130  0.56501  Biso   1.000  C
  C80      1.0000 0.56870  0.59730  0.53936  Biso   1.000  C
  C81      1.0000 0.94500  0.57400  0.59990  Biso   1.000  C
  C82      1.0000 0.85180  0.59070  0.59660  Biso   1.000  C
  C83      1.0000 0.80750  0.58670  0.56920  Biso   1.000  C
  C84      1.0000 0.85750  0.56640  0.54610  Biso   1.000  C
  C85      1.0000 0.95050  0.54930  0.55130  Biso   1.000  C
  C86      1.0000 0.51270  0.54950  0.46370  Biso   1.000  C
  C87      1.0000 0.56200  0.56140  0.48900  Biso   1.000  C
  C88      1.0000 0.51440  0.58170  0.51275  Biso   1.000  C
  C89      1.0000 0.41770  0.58720  0.51050  Biso   1.000  C
  C90      1.0000 0.37020  0.57460  0.48410  Biso   1.000  C
  C91      1.0000 0.57970  0.54400  0.86380  Biso   1.000  C
  C92      1.0000 0.56610  0.58690  0.84900  Biso   1.000  C
  C93      1.0000 0.56530  0.62760  0.86509  Biso   1.000  C
  C94      1.0000 0.57700  0.62560  0.89560  Biso   1.000  C
  C95      1.0000 0.58940  0.58170  0.90850  Biso   1.000  C
  C96      1.0000 0.55390  0.67580  0.85020  Biso   1.000  C
  C97      1.0000 0.51910  0.71960  0.81001  Biso   1.000  C
  C98      1.0000 0.55550  0.75540  0.85315  Biso   1.000  C
  C99      1.0000 0.42060  0.69070  0.73440  Biso   1.000  C
  C100     1.0000 0.45580  0.68400  0.76290  Biso   1.000  C
  C101     1.0000 0.48770  0.72350  0.77901  Biso   1.000  C
  C102     1.0000 0.48540  0.76780  0.76515  Biso   1.000  C
  C103     1.0000 0.45060  0.77140  0.73664  Biso   1.000  C
  C104     1.0000 0.61250  0.84330  0.91400  Biso   1.000  C
  C105     1.0000 0.59730  0.80020  0.89972  Biso   1.000  C
  C106     1.0000 0.57000  0.80050  0.87010  Biso   1.000  C
  C107     1.0000 0.55760  0.84380  0.85606  Biso   1.000  C
  C108     1.0000 0.57600  0.88500  0.87189  Biso   1.000  C
  C109     1.0000 0.48740  0.79400  0.15200  Biso   1.000  C
  C110     1.0000 0.43400  0.81770  0.13010  Biso   1.000  C
  C111     1.0000 0.48200  0.83920  0.10706  Biso   1.000  C
  C112     1.0000 0.58080  0.83820  0.10760  Biso   1.000  C
  C113     1.0000 0.62950  0.81600  0.13000  Biso   1.000  C
  C114     1.0000 0.42940  0.86460  0.08339  Biso   1.000  C
  C115     1.0000 0.29430  0.89870  0.06501  Biso   1.000  C
  C116     1.0000 0.43130  0.90270  0.03936  Biso   1.000  C
  C117     1.0000 0.05500  0.92600  0.09990  Biso   1.000  C
  C118     1.0000 0.14820  0.90930  0.09660  Biso   1.000  C
  C119     1.0000 0.19250  0.91330  0.06920  Biso   1.000  C
  C120     1.0000 0.14250  0.93360  0.04610  Biso   1.000  C
  C121     1.0000 0.04950  0.95070  0.05130  Biso   1.000  C
  C122     1.0000 0.48730  0.95050  0.96370  Biso   1.000  C
  C123     1.0000 0.43800  0.93860  0.98900  Biso   1.000  C
  C124     1.0000 0.48560  0.91830  0.01275  Biso   1.000  C
  C125     1.0000 0.58230  0.91280  0.01050  Biso   1.000  C
  C126     1.0000 0.62980  0.92540  0.98410  Biso   1.000  C
  C127     1.0000 0.42030  0.95600  0.36380  Biso   1.000  C
  C128     1.0000 0.43390  0.91310  0.34900  Biso   1.000  C
  C129     1.0000 0.43470  0.87240  0.36509  Biso   1.000  C
  C130     1.0000 0.42300  0.87440  0.39560  Biso   1.000  C
  C131     1.0000 0.41060  0.91830  0.40850  Biso   1.000  C
  C132     1.0000 0.44610  0.82420  0.35020  Biso   1.000  C
  C133     1.0000 0.48090  0.78040  0.31001  Biso   1.000  C
  C134     1.0000 0.44450  0.74460  0.35315  Biso   1.000  C
  C135     1.0000 0.57940  0.80930  0.23440  Biso   1.000  C
  C136     1.0000 0.54420  0.81600  0.26290  Biso   1.000  C
  C137     1.0000 0.51230  0.77650  0.27901  Biso   1.000  C
  C138     1.0000 0.51460  0.73220  0.26515  Biso   1.000  C
  C139     1.0000 0.54940  0.72860  0.23664  Biso   1.000  C
  C140     1.0000 0.38750  0.65670  0.41400  Biso   1.000  C
  C141     1.0000 0.40270  0.69980  0.39972  Biso   1.000  C
  C142     1.0000 0.43000  0.69950  0.37010  Biso   1.000  C
  C143     1.0000 0.44240  0.65620  0.35606  Biso   1.000  C
  C144     1.0000 0.42400  0.61500  0.37189  Biso   1.000  C
  I1       1.0000 0.82891  0.16951  0.82937  Biso   1.000  I
  I2       1.0000 0.67967  0.30387  0.81044  Biso   1.000  I
  I3       1.0000 0.70976  0.42496  0.87643  Biso   1.000  I
  I4       1.0000 0.70093  0.49731  0.96449  Biso   1.000  I
  I5       1.0000 0.67228  0.44006  0.07336  Biso   1.000  I
  I6       1.0000 0.93964  0.51364  0.10851  Biso   1.000  I
  I7       1.0000 0.17109  0.33049  0.32937  Biso   1.000  I
  I8       1.0000 0.32033  0.19613  0.31044  Biso   1.000  I
  I9       1.0000 0.29024  0.07504  0.37643  Biso   1.000  I
  I10      1.0000 0.29907  0.00269  0.46449  Biso   1.000  I
  I11      1.0000 0.32772  0.05994  0.57336  Biso   1.000  I
  I12      1.0000 0.06036  0.98636  0.60851  Biso   1.000  I
  I13      1.0000 0.32891  0.83049  0.67063  Biso   1.000  I
  I14      1.0000 0.17967  0.69613  0.68956  Biso   1.000  I
  I15      1.0000 0.20976  0.57504  0.62357  Biso   1.000  I
  I16      1.0000 0.20093  0.50269  0.53551  Biso   1.000  I
  I17      1.0000 0.17228  0.55994  0.42664  Biso   1.000  I
  I18      1.0000 0.43964  0.48636  0.39149  Biso   1.000  I
  I19      1.0000 0.67109  0.66951  0.17063  Biso   1.000  I
  I20      1.0000 0.82033  0.80387  0.18956  Biso   1.000  I
  I21      1.0000 0.79024  0.92496  0.12357  Biso   1.000  I
  I22      1.0000 0.79907  0.99731  0.03551  Biso   1.000  I
  I23      1.0000 0.82772  0.94006  0.92664  Biso   1.000  I
  I24      1.0000 0.56036  0.01364  0.89149  Biso   1.000  I
  N1       1.0000 0.91670  0.29380  0.84783  Biso   1.000  N
  N2       1.0000 0.16440  0.37240  0.91286  Biso   1.000  N
  N3       1.0000 0.16170  0.41410  0.95916  Biso   1.000  N
  N4       1.0000 0.01850  0.37870  0.94024  Biso   1.000  N
  N5       1.0000 0.49360  0.44750  0.92214  Biso   1.000  N
  N6       1.0000 0.91690  0.44150  0.03935  Biso   1.000  N
  N7       1.0000 0.09320  0.45920  0.60664  Biso   1.000  N
  N8       1.0000 0.03020  0.32440  0.67825  Biso   1.000  N
  N9       1.0000 0.03110  0.24030  0.67563  Biso   1.000  N
  N10      1.0000 0.06630  0.28600  0.63283  Biso   1.000  N
  N11      1.0000 0.91600  0.26670  0.77795  Biso   1.000  N
  N12      1.0000 0.10370  0.11500  0.59930  Biso   1.000  N
  N13      1.0000 0.08330  0.20620  0.34783  Biso   1.000  N
  N14      1.0000 0.83560  0.12760  0.41286  Biso   1.000  N
  N15      1.0000 0.83830  0.08590  0.45916  Biso   1.000  N
  N16      1.0000 0.98150  0.12130  0.44024  Biso   1.000  N
  N17      1.0000 0.50640  0.05250  0.42214  Biso   1.000  N
  N18      1.0000 0.08310  0.05850  0.53935  Biso   1.000  N
  N19      1.0000 0.90680  0.04080  0.10664  Biso   1.000  N
  N20      1.0000 0.96980  0.17560  0.17825  Biso   1.000  N
  N21      1.0000 0.96890  0.25970  0.17563  Biso   1.000  N
  N22      1.0000 0.93370  0.21400  0.13283  Biso   1.000  N
  N23      1.0000 0.08400  0.23330  0.27795  Biso   1.000  N
  N24      1.0000 0.89630  0.38500  0.09930  Biso   1.000  N
  N25      1.0000 0.41670  0.70620  0.65217  Biso   1.000  N
  N26      1.0000 0.66440  0.62760  0.58714  Biso   1.000  N
  N27      1.0000 0.66170  0.58590  0.54084  Biso   1.000  N
  N28      1.0000 0.51850  0.62130  0.55976  Biso   1.000  N
  N29      1.0000 0.99360  0.55250  0.57786  Biso   1.000  N
  N30      1.0000 0.41690  0.55850  0.46065  Biso   1.000  N
  N31      1.0000 0.59320  0.54080  0.89336  Biso   1.000  N
  N32      1.0000 0.53020  0.67560  0.82175  Biso   1.000  N
  N33      1.0000 0.53110  0.75970  0.82437  Biso   1.000  N
  N34      1.0000 0.56630  0.71400  0.86717  Biso   1.000  N
  N35      1.0000 0.41600  0.73330  0.72205  Biso   1.000  N
  N36      1.0000 0.60370  0.88500  0.90070  Biso   1.000  N
  N37      1.0000 0.58330  0.79380  0.15217  Biso   1.000  N
  N38      1.0000 0.33560  0.87240  0.08714  Biso   1.000  N
  N39      1.0000 0.33830  0.91410  0.04084  Biso   1.000  N
  N40      1.0000 0.48150  0.87870  0.05976  Biso   1.000  N
  N41      1.0000 0.00640  0.94750  0.07786  Biso   1.000  N
  N42      1.0000 0.58310  0.94150  0.96065  Biso   1.000  N
  N43      1.0000 0.40680  0.95920  0.39336  Biso   1.000  N
  N44      1.0000 0.46980  0.82440  0.32175  Biso   1.000  N
  N45      1.0000 0.46890  0.74030  0.32437  Biso   1.000  N
  N46      1.0000 0.43370  0.78600  0.36717  Biso   1.000  N
  N47      1.0000 0.58400  0.76670  0.22205  Biso   1.000  N
  N48      1.0000 0.39630  0.61500  0.40070  Biso   1.000  N
  Zn13     1.0000 0.16202  0.74182  0.18340  Biso   1.000  Zn
  Zn14     1.0000 0.37420  0.52243  0.08589  Biso   1.000  Zn
  Zn15     1.0000 0.14668  0.55181  0.91999  Biso   1.000  Zn
  Zn16     1.0000 0.83798  0.75818  0.68340  Biso   1.000  Zn
  Zn17     1.0000 0.62580  0.97757  0.58589  Biso   1.000  Zn
  Zn18     1.0000 0.85332  0.94819  0.41999  Biso   1.000  Zn
  Zn19     1.0000 0.66202  0.25818  0.31660  Biso   1.000  Zn
  Zn20     1.0000 0.87420  0.47757  0.41411  Biso   1.000  Zn
  Zn21     1.0000 0.64668  0.44819  0.58001  Biso   1.000  Zn
  Zn22     1.0000 0.33798  0.24182  0.81660  Biso   1.000  Zn
  Zn23     1.0000 0.12580  0.02243  0.91411  Biso   1.000  Zn
  Zn24     1.0000 0.35332  0.05181  0.08001  Biso   1.000  Zn
  H97      1.0000 0.95390  0.72240  0.16740  Biso   1.000  H
  H98      1.0000 0.86550  0.68110  0.13110  Biso   1.000  H
  H99      1.0000 0.11600  0.64680  0.09200  Biso   1.000  H
  H100     1.0000 0.19820  0.68370  0.12980  Biso   1.000  H
  H101     1.0000 0.52400  0.57790  0.11860  Biso   1.000  H
  H102     1.0000 0.68140  0.60470  0.11290  Biso   1.000  H
  H103     1.0000 0.67080  0.56400  0.02690  Biso   1.000  H
  H104     1.0000 0.51540  0.53470  0.03530  Biso   1.000  H
  H105     1.0000 0.95350  0.53450  0.94780  Biso   1.000  H
  H106     1.0000 0.87050  0.55570  0.99030  Biso   1.000  H
  H107     1.0000 0.11810  0.59970  0.02670  Biso   1.000  H
  H108     1.0000 0.19810  0.57770  0.98310  Biso   1.000  H
  H109     1.0000 0.92060  0.51520  0.35250  Biso   1.000  H
  H110     1.0000 0.94250  0.58760  0.32810  Biso   1.000  H
  H111     1.0000 0.92350  0.65390  0.40730  Biso   1.000  H
  H112     1.0000 0.90440  0.58030  0.42950  Biso   1.000  H
  H113     1.0000 0.10070  0.66360  0.22330  Biso   1.000  H
  H114     1.0000 0.04190  0.65280  0.27140  Biso   1.000  H
  H115     1.0000 0.99220  0.79550  0.27530  Biso   1.000  H
  H116     1.0000 0.04900  0.80170  0.22700  Biso   1.000  H
  H117     1.0000 0.86980  0.84280  0.43440  Biso   1.000  H
  H118     1.0000 0.89460  0.77080  0.41010  Biso   1.000  H
  H119     1.0000 0.96320  0.84520  0.33590  Biso   1.000  H
  H120     1.0000 0.93120  0.91490  0.36210  Biso   1.000  H
  H121     1.0000 0.04610  0.77760  0.66740  Biso   1.000  H
  H122     1.0000 0.13450  0.81890  0.63110  Biso   1.000  H
  H123     1.0000 0.88400  0.85320  0.59200  Biso   1.000  H
  H124     1.0000 0.80180  0.81630  0.62980  Biso   1.000  H
  H125     1.0000 0.47600  0.92210  0.61860  Biso   1.000  H
  H126     1.0000 0.31860  0.89530  0.61290  Biso   1.000  H
  H127     1.0000 0.32920  0.93600  0.52690  Biso   1.000  H
  H128     1.0000 0.48460  0.96530  0.53530  Biso   1.000  H
  H129     1.0000 0.04650  0.96550  0.44780  Biso   1.000  H
  H130     1.0000 0.12950  0.94430  0.49030  Biso   1.000  H
  H131     1.0000 0.88190  0.90030  0.52670  Biso   1.000  H
  H132     1.0000 0.80190  0.92230  0.48310  Biso   1.000  H
  H133     1.0000 0.07940  0.98480  0.85250  Biso   1.000  H
  H134     1.0000 0.05750  0.91240  0.82810  Biso   1.000  H
  H135     1.0000 0.07650  0.84610  0.90730  Biso   1.000  H
  H136     1.0000 0.09560  0.91970  0.92950  Biso   1.000  H
  H137     1.0000 0.89930  0.83640  0.72330  Biso   1.000  H
  H138     1.0000 0.95810  0.84720  0.77140  Biso   1.000  H
  H139     1.0000 0.00780  0.70450  0.77530  Biso   1.000  H
  H140     1.0000 0.95100  0.69830  0.72700  Biso   1.000  H
  H141     1.0000 0.13020  0.65720  0.93440  Biso   1.000  H
  H142     1.0000 0.10540  0.72920  0.91010  Biso   1.000  H
  H143     1.0000 0.03680  0.65480  0.83590  Biso   1.000  H
  H144     1.0000 0.06880  0.58510  0.86210  Biso   1.000  H
  H145     1.0000 0.45390  0.27760  0.33260  Biso   1.000  H
  H146     1.0000 0.36550  0.31890  0.36890  Biso   1.000  H
  H147     1.0000 0.61600  0.35320  0.40800  Biso   1.000  H
  H148     1.0000 0.69820  0.31630  0.37020  Biso   1.000  H
  H149     1.0000 0.02400  0.42210  0.38140  Biso   1.000  H
  H150     1.0000 0.18140  0.39530  0.38710  Biso   1.000  H
  H151     1.0000 0.17080  0.43600  0.47310  Biso   1.000  H
  H152     1.0000 0.01540  0.46530  0.46470  Biso   1.000  H
  H153     1.0000 0.45350  0.46550  0.55220  Biso   1.000  H
  H154     1.0000 0.37050  0.44430  0.50970  Biso   1.000  H
  H155     1.0000 0.61810  0.40030  0.47330  Biso   1.000  H
  H156     1.0000 0.69810  0.42230  0.51690  Biso   1.000  H
  H157     1.0000 0.42060  0.48480  0.14750  Biso   1.000  H
  H158     1.0000 0.44250  0.41240  0.17190  Biso   1.000  H
  H159     1.0000 0.42350  0.34610  0.09270  Biso   1.000  H
  H160     1.0000 0.40440  0.41970  0.07050  Biso   1.000  H
  H161     1.0000 0.60070  0.33640  0.27670  Biso   1.000  H
  H162     1.0000 0.54190  0.34720  0.22860  Biso   1.000  H
  H163     1.0000 0.49220  0.20450  0.22470  Biso   1.000  H
  H164     1.0000 0.54900  0.19830  0.27300  Biso   1.000  H
  H165     1.0000 0.36980  0.15720  0.06560  Biso   1.000  H
  H166     1.0000 0.39460  0.22920  0.08990  Biso   1.000  H
  H167     1.0000 0.46320  0.15480  0.16410  Biso   1.000  H
  H168     1.0000 0.43120  0.08510  0.13790  Biso   1.000  H
  H169     1.0000 0.54610  0.22240  0.83260  Biso   1.000  H
  H170     1.0000 0.63450  0.18110  0.86890  Biso   1.000  H
  H171     1.0000 0.38400  0.14680  0.90800  Biso   1.000  H
  H172     1.0000 0.30180  0.18370  0.87020  Biso   1.000  H
  H173     1.0000 0.97600  0.07790  0.88140  Biso   1.000  H
  H174     1.0000 0.81860  0.10470  0.88710  Biso   1.000  H
  H175     1.0000 0.82920  0.06400  0.97310  Biso   1.000  H
  H176     1.0000 0.98460  0.03470  0.96470  Biso   1.000  H
  H177     1.0000 0.54650  0.03450  0.05220  Biso   1.000  H
  H178     1.0000 0.62950  0.05570  0.00970  Biso   1.000  H
  H179     1.0000 0.38190  0.09970  0.97330  Biso   1.000  H
  H180     1.0000 0.30190  0.07770  0.01690  Biso   1.000  H
  H181     1.0000 0.57940  0.01520  0.64750  Biso   1.000  H
  H182     1.0000 0.55750  0.08760  0.67190  Biso   1.000  H
  H183     1.0000 0.57650  0.15390  0.59270  Biso   1.000  H
  H184     1.0000 0.59560  0.08030  0.57050  Biso   1.000  H
  H185     1.0000 0.39930  0.16360  0.77670  Biso   1.000  H
  H186     1.0000 0.45810  0.15280  0.72860  Biso   1.000  H
  H187     1.0000 0.50780  0.29550  0.72470  Biso   1.000  H
  H188     1.0000 0.45100  0.30170  0.77300  Biso   1.000  H
  H189     1.0000 0.63020  0.34280  0.56560  Biso   1.000  H
  H190     1.0000 0.60540  0.27080  0.58990  Biso   1.000  H
  H191     1.0000 0.53680  0.34520  0.66410  Biso   1.000  H
  H192     1.0000 0.56880  0.41490  0.63790  Biso   1.000  H
  C145     1.0000 0.98740  0.70600  0.15200  Biso   1.000  C
  C146     1.0000 0.93400  0.68230  0.13010  Biso   1.000  C
  C147     1.0000 0.98200  0.66080  0.10706  Biso   1.000  C
  C148     1.0000 0.08080  0.66180  0.10760  Biso   1.000  C
  C149     1.0000 0.12950  0.68400  0.13000  Biso   1.000  C
  C150     1.0000 0.92940  0.63540  0.08339  Biso   1.000  C
  C151     1.0000 0.79430  0.60130  0.06501  Biso   1.000  C
  C152     1.0000 0.93130  0.59730  0.03936  Biso   1.000  C
  C153     1.0000 0.55500  0.57400  0.09990  Biso   1.000  C
  C154     1.0000 0.64820  0.59070  0.09660  Biso   1.000  C
  C155     1.0000 0.69250  0.58670  0.06920  Biso   1.000  C
  C156     1.0000 0.64250  0.56640  0.04610  Biso   1.000  C
  C157     1.0000 0.54950  0.54930  0.05130  Biso   1.000  C
  C158     1.0000 0.98730  0.54950  0.96370  Biso   1.000  C
  C159     1.0000 0.93800  0.56140  0.98900  Biso   1.000  C
  C160     1.0000 0.98560  0.58170  0.01275  Biso   1.000  C
  C161     1.0000 0.08230  0.58720  0.01050  Biso   1.000  C
  C162     1.0000 0.12980  0.57460  0.98410  Biso   1.000  C
  C163     1.0000 0.92030  0.54400  0.36380  Biso   1.000  C
  C164     1.0000 0.93390  0.58690  0.34900  Biso   1.000  C
  C165     1.0000 0.93470  0.62760  0.36509  Biso   1.000  C
  C166     1.0000 0.92300  0.62560  0.39560  Biso   1.000  C
  C167     1.0000 0.91060  0.58170  0.40850  Biso   1.000  C
  C168     1.0000 0.94610  0.67580  0.35020  Biso   1.000  C
  C169     1.0000 0.98090  0.71960  0.31001  Biso   1.000  C
  C170     1.0000 0.94450  0.75540  0.35315  Biso   1.000  C
  C171     1.0000 0.07940  0.69070  0.23440  Biso   1.000  C
  C172     1.0000 0.04420  0.68400  0.26290  Biso   1.000  C
  C173     1.0000 0.01230  0.72350  0.27901  Biso   1.000  C
  C174     1.0000 0.01460  0.76780  0.26515  Biso   1.000  C
  C175     1.0000 0.04940  0.77140  0.23664  Biso   1.000  C
  C176     1.0000 0.88750  0.84330  0.41400  Biso   1.000  C
  C177     1.0000 0.90270  0.80020  0.39972  Biso   1.000  C
  C178     1.0000 0.93000  0.80050  0.37010  Biso   1.000  C
  C179     1.0000 0.94240  0.84380  0.35606  Biso   1.000  C
  C180     1.0000 0.92400  0.88500  0.37189  Biso   1.000  C
  C181     1.0000 0.01260  0.79400  0.65200  Biso   1.000  C
  C182     1.0000 0.06600  0.81770  0.63010  Biso   1.000  C
  C183     1.0000 0.01800  0.83920  0.60706  Biso   1.000  C
  C184     1.0000 0.91920  0.83820  0.60760  Biso   1.000  C
  C185     1.0000 0.87050  0.81600  0.63000  Biso   1.000  C
  C186     1.0000 0.07060  0.86460  0.58339  Biso   1.000  C
  C187     1.0000 0.20570  0.89870  0.56501  Biso   1.000  C
  C188     1.0000 0.06870  0.90270  0.53936  Biso   1.000  C
  C189     1.0000 0.44500  0.92600  0.59990  Biso   1.000  C
  C190     1.0000 0.35180  0.90930  0.59660  Biso   1.000  C
  C191     1.0000 0.30750  0.91330  0.56920  Biso   1.000  C
  C192     1.0000 0.35750  0.93360  0.54610  Biso   1.000  C
  C193     1.0000 0.45050  0.95070  0.55130  Biso   1.000  C
  C194     1.0000 0.01270  0.95050  0.46370  Biso   1.000  C
  C195     1.0000 0.06200  0.93860  0.48900  Biso   1.000  C
  C196     1.0000 0.01440  0.91830  0.51275  Biso   1.000  C
  C197     1.0000 0.91770  0.91280  0.51050  Biso   1.000  C
  C198     1.0000 0.87020  0.92540  0.48410  Biso   1.000  C
  C199     1.0000 0.07970  0.95600  0.86380  Biso   1.000  C
  C200     1.0000 0.06610  0.91310  0.84900  Biso   1.000  C
  C201     1.0000 0.06530  0.87240  0.86509  Biso   1.000  C
  C202     1.0000 0.07700  0.87440  0.89560  Biso   1.000  C
  C203     1.0000 0.08940  0.91830  0.90850  Biso   1.000  C
  C204     1.0000 0.05390  0.82420  0.85020  Biso   1.000  C
  C205     1.0000 0.01910  0.78040  0.81001  Biso   1.000  C
  C206     1.0000 0.05550  0.74460  0.85315  Biso   1.000  C
  C207     1.0000 0.92060  0.80930  0.73440  Biso   1.000  C
  C208     1.0000 0.95580  0.81600  0.76290  Biso   1.000  C
  C209     1.0000 0.98770  0.77650  0.77901  Biso   1.000  C
  C210     1.0000 0.98540  0.73220  0.76515  Biso   1.000  C
  C211     1.0000 0.95060  0.72860  0.73664  Biso   1.000  C
  C212     1.0000 0.11250  0.65670  0.91400  Biso   1.000  C
  C213     1.0000 0.09730  0.69980  0.89972  Biso   1.000  C
  C214     1.0000 0.07000  0.69950  0.87010  Biso   1.000  C
  C215     1.0000 0.05760  0.65620  0.85606  Biso   1.000  C
  C216     1.0000 0.07600  0.61500  0.87189  Biso   1.000  C
  C217     1.0000 0.48740  0.29400  0.34800  Biso   1.000  C
  C218     1.0000 0.43400  0.31770  0.36990  Biso   1.000  C
  C219     1.0000 0.48200  0.33920  0.39294  Biso   1.000  C
  C220     1.0000 0.58080  0.33820  0.39240  Biso   1.000  C
  C221     1.0000 0.62950  0.31600  0.37000  Biso   1.000  C
  C222     1.0000 0.42940  0.36460  0.41661  Biso   1.000  C
  C223     1.0000 0.29430  0.39870  0.43499  Biso   1.000  C
  C224     1.0000 0.43130  0.40270  0.46064  Biso   1.000  C
  C225     1.0000 0.05500  0.42600  0.40010  Biso   1.000  C
  C226     1.0000 0.14820  0.40930  0.40340  Biso   1.000  C
  C227     1.0000 0.19250  0.41330  0.43080  Biso   1.000  C
  C228     1.0000 0.14250  0.43360  0.45390  Biso   1.000  C
  C229     1.0000 0.04950  0.45070  0.44870  Biso   1.000  C
  C230     1.0000 0.48730  0.45050  0.53630  Biso   1.000  C
  C231     1.0000 0.43800  0.43860  0.51100  Biso   1.000  C
  C232     1.0000 0.48560  0.41830  0.48725  Biso   1.000  C
  C233     1.0000 0.58230  0.41280  0.48950  Biso   1.000  C
  C234     1.0000 0.62980  0.42540  0.51590  Biso   1.000  C
  C235     1.0000 0.42030  0.45600  0.13620  Biso   1.000  C
  C236     1.0000 0.43390  0.41310  0.15100  Biso   1.000  C
  C237     1.0000 0.43470  0.37240  0.13491  Biso   1.000  C
  C238     1.0000 0.42300  0.37440  0.10440  Biso   1.000  C
  C239     1.0000 0.41060  0.41830  0.09150  Biso   1.000  C
  C240     1.0000 0.44610  0.32420  0.14980  Biso   1.000  C
  C241     1.0000 0.48090  0.28040  0.18999  Biso   1.000  C
  C242     1.0000 0.44450  0.24460  0.14685  Biso   1.000  C
  C243     1.0000 0.57940  0.30930  0.26560  Biso   1.000  C
  C244     1.0000 0.54420  0.31600  0.23710  Biso   1.000  C
  C245     1.0000 0.51230  0.27650  0.22099  Biso   1.000  C
  C246     1.0000 0.51460  0.23220  0.23485  Biso   1.000  C
  C247     1.0000 0.54940  0.22860  0.26336  Biso   1.000  C
  C248     1.0000 0.38750  0.15670  0.08600  Biso   1.000  C
  C249     1.0000 0.40270  0.19980  0.10028  Biso   1.000  C
  C250     1.0000 0.43000  0.19950  0.12990  Biso   1.000  C
  C251     1.0000 0.44240  0.15620  0.14394  Biso   1.000  C
  C252     1.0000 0.42400  0.11500  0.12811  Biso   1.000  C
  C253     1.0000 0.51260  0.20600  0.84800  Biso   1.000  C
  C254     1.0000 0.56600  0.18230  0.86990  Biso   1.000  C
  C255     1.0000 0.51800  0.16080  0.89294  Biso   1.000  C
  C256     1.0000 0.41920  0.16180  0.89240  Biso   1.000  C
  C257     1.0000 0.37050  0.18400  0.87000  Biso   1.000  C
  C258     1.0000 0.57060  0.13540  0.91661  Biso   1.000  C
  C259     1.0000 0.70570  0.10130  0.93499  Biso   1.000  C
  C260     1.0000 0.56870  0.09730  0.96064  Biso   1.000  C
  C261     1.0000 0.94500  0.07400  0.90010  Biso   1.000  C
  C262     1.0000 0.85180  0.09070  0.90340  Biso   1.000  C
  C263     1.0000 0.80750  0.08670  0.93080  Biso   1.000  C
  C264     1.0000 0.85750  0.06640  0.95390  Biso   1.000  C
  C265     1.0000 0.95050  0.04930  0.94870  Biso   1.000  C
  C266     1.0000 0.51270  0.04950  0.03630  Biso   1.000  C
  C267     1.0000 0.56200  0.06140  0.01100  Biso   1.000  C
  C268     1.0000 0.51440  0.08170  0.98725  Biso   1.000  C
  C269     1.0000 0.41770  0.08720  0.98950  Biso   1.000  C
  C270     1.0000 0.37020  0.07460  0.01590  Biso   1.000  C
  C271     1.0000 0.57970  0.04400  0.63620  Biso   1.000  C
  C272     1.0000 0.56610  0.08690  0.65100  Biso   1.000  C
  C273     1.0000 0.56530  0.12760  0.63491  Biso   1.000  C
  C274     1.0000 0.57700  0.12560  0.60440  Biso   1.000  C
  C275     1.0000 0.58940  0.08170  0.59150  Biso   1.000  C
  C276     1.0000 0.55390  0.17580  0.64980  Biso   1.000  C
  C277     1.0000 0.51910  0.21960  0.68999  Biso   1.000  C
  C278     1.0000 0.55550  0.25540  0.64685  Biso   1.000  C
  C279     1.0000 0.42060  0.19070  0.76560  Biso   1.000  C
  C280     1.0000 0.45580  0.18400  0.73710  Biso   1.000  C
  C281     1.0000 0.48770  0.22350  0.72099  Biso   1.000  C
  C282     1.0000 0.48540  0.26780  0.73485  Biso   1.000  C
  C283     1.0000 0.45060  0.27140  0.76336  Biso   1.000  C
  C284     1.0000 0.61250  0.34330  0.58600  Biso   1.000  C
  C285     1.0000 0.59730  0.30020  0.60028  Biso   1.000  C
  C286     1.0000 0.57000  0.30050  0.62990  Biso   1.000  C
  C287     1.0000 0.55760  0.34380  0.64394  Biso   1.000  C
  C288     1.0000 0.57600  0.38500  0.62811  Biso   1.000  C
  I25      1.0000 0.17109  0.83049  0.17063  Biso   1.000  I
  I26      1.0000 0.32033  0.69613  0.18956  Biso   1.000  I
  I27      1.0000 0.29024  0.57504  0.12357  Biso   1.000  I
  I28      1.0000 0.29907  0.50269  0.03551  Biso   1.000  I
  I29      1.0000 0.32772  0.55994  0.92664  Biso   1.000  I
  I30      1.0000 0.06036  0.48636  0.89149  Biso   1.000  I
  I31      1.0000 0.82891  0.66951  0.67063  Biso   1.000  I
  I32      1.0000 0.67967  0.80387  0.68956  Biso   1.000  I
  I33      1.0000 0.70976  0.92496  0.62357  Biso   1.000  I
  I34      1.0000 0.70093  0.99731  0.53551  Biso   1.000  I
  I35      1.0000 0.67228  0.94006  0.42664  Biso   1.000  I
  I36      1.0000 0.93964  0.01364  0.39149  Biso   1.000  I
  I37      1.0000 0.67109  0.16951  0.32937  Biso   1.000  I
  I38      1.0000 0.82033  0.30387  0.31044  Biso   1.000  I
  I39      1.0000 0.79024  0.42496  0.37643  Biso   1.000  I
  I40      1.0000 0.79907  0.49731  0.46449  Biso   1.000  I
  I41      1.0000 0.82772  0.44006  0.57336  Biso   1.000  I
  I42      1.0000 0.56036  0.51364  0.60851  Biso   1.000  I
  I43      1.0000 0.32891  0.33049  0.82937  Biso   1.000  I
  I44      1.0000 0.17967  0.19613  0.81044  Biso   1.000  I
  I45      1.0000 0.20976  0.07504  0.87643  Biso   1.000  I
  I46      1.0000 0.20093  0.00269  0.96449  Biso   1.000  I
  I47      1.0000 0.17228  0.05994  0.07336  Biso   1.000  I
  I48      1.0000 0.43964  0.98636  0.10851  Biso   1.000  I
  N49      1.0000 0.08330  0.70620  0.15217  Biso   1.000  N
  N50      1.0000 0.83560  0.62760  0.08714  Biso   1.000  N
  N51      1.0000 0.83830  0.58590  0.04084  Biso   1.000  N
  N52      1.0000 0.98150  0.62130  0.05976  Biso   1.000  N
  N53      1.0000 0.50640  0.55250  0.07786  Biso   1.000  N
  N54      1.0000 0.08310  0.55850  0.96065  Biso   1.000  N
  N55      1.0000 0.90680  0.54080  0.39336  Biso   1.000  N
  N56      1.0000 0.96980  0.67560  0.32175  Biso   1.000  N
  N57      1.0000 0.96890  0.75970  0.32437  Biso   1.000  N
  N58      1.0000 0.93370  0.71400  0.36717  Biso   1.000  N
  N59      1.0000 0.08400  0.73330  0.22205  Biso   1.000  N
  N60      1.0000 0.89630  0.88500  0.40070  Biso   1.000  N
  N61      1.0000 0.91670  0.79380  0.65217  Biso   1.000  N
  N62      1.0000 0.16440  0.87240  0.58714  Biso   1.000  N
  N63      1.0000 0.16170  0.91410  0.54084  Biso   1.000  N
  N64      1.0000 0.01850  0.87870  0.55976  Biso   1.000  N
  N65      1.0000 0.49360  0.94750  0.57786  Biso   1.000  N
  N66      1.0000 0.91690  0.94150  0.46065  Biso   1.000  N
  N67      1.0000 0.09320  0.95920  0.89336  Biso   1.000  N
  N68      1.0000 0.03020  0.82440  0.82175  Biso   1.000  N
  N69      1.0000 0.03110  0.74030  0.82437  Biso   1.000  N
  N70      1.0000 0.06630  0.78600  0.86717  Biso   1.000  N
  N71      1.0000 0.91600  0.76670  0.72205  Biso   1.000  N
  N72      1.0000 0.10370  0.61500  0.90070  Biso   1.000  N
  N73      1.0000 0.58330  0.29380  0.34783  Biso   1.000  N
  N74      1.0000 0.33560  0.37240  0.41286  Biso   1.000  N
  N75      1.0000 0.33830  0.41410  0.45916  Biso   1.000  N
  N76      1.0000 0.48150  0.37870  0.44024  Biso   1.000  N
  N77      1.0000 0.00640  0.44750  0.42214  Biso   1.000  N
  N78      1.0000 0.58310  0.44150  0.53935  Biso   1.000  N
  N79      1.0000 0.40680  0.45920  0.10664  Biso   1.000  N
  N80      1.0000 0.46980  0.32440  0.17825  Biso   1.000  N
  N81      1.0000 0.46890  0.24030  0.17563  Biso   1.000  N
  N82      1.0000 0.43370  0.28600  0.13283  Biso   1.000  N
  N83      1.0000 0.58400  0.26670  0.27795  Biso   1.000  N
  N84      1.0000 0.39630  0.11500  0.09930  Biso   1.000  N
  N85      1.0000 0.41670  0.20620  0.84783  Biso   1.000  N
  N86      1.0000 0.66440  0.12760  0.91286  Biso   1.000  N
  N87      1.0000 0.66170  0.08590  0.95916  Biso   1.000  N
  N88      1.0000 0.51850  0.12130  0.94024  Biso   1.000  N
  N89      1.0000 0.99360  0.05250  0.92214  Biso   1.000  N
  N90      1.0000 0.41690  0.05850  0.03935  Biso   1.000  N
  N91      1.0000 0.59320  0.04080  0.60664  Biso   1.000  N
  N92      1.0000 0.53020  0.17560  0.67825  Biso   1.000  N
  N93      1.0000 0.53110  0.25970  0.67563  Biso   1.000  N
  N94      1.0000 0.56630  0.21400  0.63283  Biso   1.000  N
  N95      1.0000 0.41600  0.23330  0.77795  Biso   1.000  N
  N96      1.0000 0.60370  0.38500  0.59930  Biso   1.000  N
