data_image0
_cell_length_a       14.022
_cell_length_b       28.14
_cell_length_c       44.48
_cell_angle_alpha    90
_cell_angle_beta     90
_cell_angle_gamma    90

_symmetry_space_group_name_H-M    P 1
_symmetry_int_tables_number       1

loop_
  _symmetry_equiv_pos_as_xyz
  'x, y, z'

loop_
  _atom_site_label
  _atom_site_occupancy
  _atom_site_fract_x
  _atom_site_fract_y
  _atom_site_fract_z
  _atom_site_thermal_displace_type
  _atom_site_B_iso_or_equiv
  _atom_site_type_symbol
  Zn1      1.0000 0.14194  0.05027  0.58635  Biso   1.000  Zn
  Zn2      1.0000 0.38293  0.02323  0.41502  Biso   1.000  Zn
  Zn3      1.0000 0.16955  0.23924  0.31945  Biso   1.000  Zn
  Zn4      1.0000 0.85806  0.44973  0.08635  Biso   1.000  Zn
  Zn5      1.0000 0.61707  0.47677  0.91502  Biso   1.000  Zn
  Zn6      1.0000 0.83045  0.26076  0.81945  Biso   1.000  Zn
  Zn7      1.0000 0.64194  0.94973  0.91365  Biso   1.000  Zn
  Zn8      1.0000 0.88293  0.97677  0.08498  Biso   1.000  Zn
  Zn9      1.0000 0.66955  0.76076  0.18055  Biso   1.000  Zn
  Zn10     1.0000 0.35806  0.55027  0.41365  Biso   1.000  Zn
  Zn11     1.0000 0.11707  0.52323  0.58498  Biso   1.000  Zn
  Zn12     1.0000 0.33045  0.73924  0.68055  Biso   1.000  Zn
  H1       1.0000 0.95380  0.02990  0.55610  Biso   1.000  H
  H2       1.0000 0.87580  0.04860  0.51220  Biso   1.000  H
  H3       1.0000 0.12420  0.09740  0.47760  Biso   1.000  H
  H4       1.0000 0.19630  0.08010  0.52310  Biso   1.000  H
  H5       1.0000 0.52190  0.03340  0.46580  Biso   1.000  H
  H6       1.0000 0.67910  0.05970  0.47500  Biso   1.000  H
  H7       1.0000 0.69040  0.10170  0.38820  Biso   1.000  H
  H8       1.0000 0.53610  0.07580  0.38190  Biso   1.000  H
  H9       1.0000 0.96590  0.21390  0.33360  Biso   1.000  H
  H10      1.0000 0.87620  0.17370  0.36950  Biso   1.000  H
  H11      1.0000 0.12400  0.14270  0.41050  Biso   1.000  H
  H12      1.0000 0.20450  0.17790  0.37180  Biso   1.000  H
  H13      1.0000 0.05570  0.08800  0.64270  Biso   1.000  H
  H14      1.0000 0.03090  0.15890  0.66720  Biso   1.000  H
  H15      1.0000 0.10050  0.22840  0.59050  Biso   1.000  H
  H16      1.0000 0.13230  0.15410  0.56900  Biso   1.000  H
  H17      1.0000 0.94400  0.20320  0.77510  Biso   1.000  H
  H18      1.0000 0.99740  0.20960  0.72620  Biso   1.000  H
  H19      1.0000 0.94140  0.34990  0.72940  Biso   1.000  H
  H20      1.0000 0.87550  0.33900  0.77690  Biso   1.000  H
  H21      1.0000 0.11130  0.41910  0.56950  Biso   1.000  H
  H22      1.0000 0.08490  0.34700  0.59260  Biso   1.000  H
  H23      1.0000 0.03490  0.41450  0.67010  Biso   1.000  H
  H24      1.0000 0.06090  0.48620  0.64500  Biso   1.000  H
  H25      1.0000 0.04620  0.47010  0.05610  Biso   1.000  H
  H26      1.0000 0.12420  0.45140  0.01220  Biso   1.000  H
  H27      1.0000 0.87580  0.40260  0.97760  Biso   1.000  H
  H28      1.0000 0.80370  0.41990  0.02310  Biso   1.000  H
  H29      1.0000 0.47810  0.46660  0.96580  Biso   1.000  H
  H30      1.0000 0.32090  0.44030  0.97500  Biso   1.000  H
  H31      1.0000 0.30960  0.39830  0.88820  Biso   1.000  H
  H32      1.0000 0.46390  0.42420  0.88190  Biso   1.000  H
  H33      1.0000 0.03410  0.28610  0.83360  Biso   1.000  H
  H34      1.0000 0.12380  0.32630  0.86950  Biso   1.000  H
  H35      1.0000 0.87600  0.35730  0.91050  Biso   1.000  H
  H36      1.0000 0.79550  0.32210  0.87180  Biso   1.000  H
  H37      1.0000 0.94430  0.41200  0.14270  Biso   1.000  H
  H38      1.0000 0.96910  0.34110  0.16720  Biso   1.000  H
  H39      1.0000 0.89950  0.27160  0.09050  Biso   1.000  H
  H40      1.0000 0.86770  0.34590  0.06900  Biso   1.000  H
  H41      1.0000 0.05600  0.29680  0.27510  Biso   1.000  H
  H42      1.0000 0.00260  0.29040  0.22620  Biso   1.000  H
  H43      1.0000 0.05860  0.15010  0.22940  Biso   1.000  H
  H44      1.0000 0.12450  0.16100  0.27690  Biso   1.000  H
  H45      1.0000 0.88870  0.08090  0.06950  Biso   1.000  H
  H46      1.0000 0.91510  0.15300  0.09260  Biso   1.000  H
  H47      1.0000 0.96510  0.08550  0.17010  Biso   1.000  H
  H48      1.0000 0.93910  0.01380  0.14500  Biso   1.000  H
  H49      1.0000 0.45380  0.97010  0.94390  Biso   1.000  H
  H50      1.0000 0.37580  0.95140  0.98780  Biso   1.000  H
  H51      1.0000 0.62420  0.90260  0.02240  Biso   1.000  H
  H52      1.0000 0.69630  0.91990  0.97690  Biso   1.000  H
  H53      1.0000 0.02190  0.96660  0.03420  Biso   1.000  H
  H54      1.0000 0.17910  0.94030  0.02500  Biso   1.000  H
  H55      1.0000 0.19040  0.89830  0.11180  Biso   1.000  H
  H56      1.0000 0.03610  0.92420  0.11810  Biso   1.000  H
  H57      1.0000 0.46590  0.78610  0.16640  Biso   1.000  H
  H58      1.0000 0.37620  0.82630  0.13050  Biso   1.000  H
  H59      1.0000 0.62400  0.85730  0.08950  Biso   1.000  H
  H60      1.0000 0.70450  0.82210  0.12820  Biso   1.000  H
  H61      1.0000 0.55570  0.91200  0.85730  Biso   1.000  H
  H62      1.0000 0.53090  0.84110  0.83280  Biso   1.000  H
  H63      1.0000 0.60050  0.77160  0.90950  Biso   1.000  H
  H64      1.0000 0.63230  0.84590  0.93100  Biso   1.000  H
  H65      1.0000 0.44400  0.79680  0.72490  Biso   1.000  H
  H66      1.0000 0.49740  0.79040  0.77380  Biso   1.000  H
  H67      1.0000 0.44140  0.65010  0.77060  Biso   1.000  H
  H68      1.0000 0.37550  0.66100  0.72310  Biso   1.000  H
  H69      1.0000 0.61130  0.58090  0.93050  Biso   1.000  H
  H70      1.0000 0.58490  0.65300  0.90740  Biso   1.000  H
  H71      1.0000 0.53490  0.58550  0.82990  Biso   1.000  H
  H72      1.0000 0.56090  0.51380  0.85500  Biso   1.000  H
  H73      1.0000 0.54620  0.52990  0.44390  Biso   1.000  H
  H74      1.0000 0.62420  0.54860  0.48780  Biso   1.000  H
  H75      1.0000 0.37580  0.59740  0.52240  Biso   1.000  H
  H76      1.0000 0.30370  0.58010  0.47690  Biso   1.000  H
  H77      1.0000 0.97810  0.53340  0.53420  Biso   1.000  H
  H78      1.0000 0.82090  0.55970  0.52500  Biso   1.000  H
  H79      1.0000 0.80960  0.60170  0.61180  Biso   1.000  H
  H80      1.0000 0.96390  0.57580  0.61810  Biso   1.000  H
  H81      1.0000 0.53410  0.71390  0.66640  Biso   1.000  H
  H82      1.0000 0.62380  0.67370  0.63050  Biso   1.000  H
  H83      1.0000 0.37600  0.64270  0.58950  Biso   1.000  H
  H84      1.0000 0.29550  0.67790  0.62820  Biso   1.000  H
  H85      1.0000 0.44430  0.58800  0.35730  Biso   1.000  H
  H86      1.0000 0.46910  0.65890  0.33280  Biso   1.000  H
  H87      1.0000 0.39950  0.72840  0.40950  Biso   1.000  H
  H88      1.0000 0.36770  0.65410  0.43100  Biso   1.000  H
  H89      1.0000 0.55600  0.70320  0.22490  Biso   1.000  H
  H90      1.0000 0.50260  0.70960  0.27380  Biso   1.000  H
  H91      1.0000 0.55860  0.84990  0.27060  Biso   1.000  H
  H92      1.0000 0.62450  0.83900  0.22310  Biso   1.000  H
  H93      1.0000 0.38870  0.91910  0.43050  Biso   1.000  H
  H94      1.0000 0.41510  0.84700  0.40740  Biso   1.000  H
  H95      1.0000 0.46510  0.91450  0.32990  Biso   1.000  H
  H96      1.0000 0.43910  0.98620  0.35500  Biso   1.000  H
  C1       1.0000 0.98820  0.04470  0.54030  Biso   1.000  C
  C2       1.0000 0.94190  0.05540  0.51420  Biso   1.000  C
  C3       1.0000 0.99030  0.07600  0.49070  Biso   1.000  C
  C4       1.0000 0.08800  0.08450  0.49380  Biso   1.000  C
  C5       1.0000 0.13010  0.07380  0.52080  Biso   1.000  C
  C6       1.0000 0.93940  0.09070  0.46310  Biso   1.000  C
  C7       1.0000 0.80440  0.09560  0.43660  Biso   1.000  C
  C8       1.0000 0.93790  0.12810  0.41850  Biso   1.000  C
  C9       1.0000 0.55700  0.04770  0.44990  Biso   1.000  C
  C10      1.0000 0.65130  0.06280  0.45560  Biso   1.000  C
  C11      1.0000 0.70230  0.08270  0.43170  Biso   1.000  C
  C12      1.0000 0.65750  0.08760  0.40460  Biso   1.000  C
  C13      1.0000 0.56560  0.07230  0.40100  Biso   1.000  C
  C14      1.0000 0.99800  0.19770  0.34940  Biso   1.000  C
  C15      1.0000 0.94380  0.17450  0.37090  Biso   1.000  C
  C16      1.0000 0.99000  0.15300  0.39380  Biso   1.000  C
  C17      1.0000 0.08940  0.15610  0.39420  Biso   1.000  C
  C18      1.0000 0.13670  0.17780  0.37160  Biso   1.000  C
  C19      1.0000 0.06680  0.11690  0.63220  Biso   1.000  C
  C20      1.0000 0.05080  0.15890  0.64680  Biso   1.000  C
  C21      1.0000 0.06360  0.20110  0.63180  Biso   1.000  C
  C22      1.0000 0.09280  0.20000  0.60180  Biso   1.000  C
  C23      1.0000 0.11010  0.15540  0.58920  Biso   1.000  C
  C24      1.0000 0.04740  0.24650  0.64780  Biso   1.000  C
  C25      1.0000 0.00640  0.28410  0.69030  Biso   1.000  C
  C26      1.0000 0.04520  0.32630  0.64930  Biso   1.000  C
  C27      1.0000 0.94020  0.23310  0.76520  Biso   1.000  C
  C28      1.0000 0.97370  0.23690  0.73630  Biso   1.000  C
  C29      1.0000 0.97320  0.28070  0.72170  Biso   1.000  C
  C30      1.0000 0.93920  0.31900  0.73790  Biso   1.000  C
  C31      1.0000 0.90190  0.31260  0.76650  Biso   1.000  C
  C32      1.0000 0.09500  0.41840  0.59030  Biso   1.000  C
  C33      1.0000 0.07980  0.37540  0.60410  Biso   1.000  C
  C34      1.0000 0.05760  0.37270  0.63400  Biso   1.000  C
  C35      1.0000 0.05030  0.41450  0.64940  Biso   1.000  C
  C36      1.0000 0.06590  0.45720  0.63420  Biso   1.000  C
  C37      1.0000 0.01180  0.45530  0.04030  Biso   1.000  C
  C38      1.0000 0.05810  0.44460  0.01420  Biso   1.000  C
  C39      1.0000 0.00970  0.42400  0.99070  Biso   1.000  C
  C40      1.0000 0.91200  0.41550  0.99380  Biso   1.000  C
  C41      1.0000 0.86990  0.42620  0.02080  Biso   1.000  C
  C42      1.0000 0.06060  0.40930  0.96310  Biso   1.000  C
  C43      1.0000 0.19560  0.40440  0.93660  Biso   1.000  C
  C44      1.0000 0.06210  0.37190  0.91850  Biso   1.000  C
  C45      1.0000 0.44300  0.45230  0.94990  Biso   1.000  C
  C46      1.0000 0.34870  0.43720  0.95560  Biso   1.000  C
  C47      1.0000 0.29770  0.41730  0.93170  Biso   1.000  C
  C48      1.0000 0.34250  0.41240  0.90460  Biso   1.000  C
  C49      1.0000 0.43440  0.42770  0.90100  Biso   1.000  C
  C50      1.0000 0.00200  0.30230  0.84940  Biso   1.000  C
  C51      1.0000 0.05620  0.32550  0.87090  Biso   1.000  C
  C52      1.0000 0.01000  0.34700  0.89380  Biso   1.000  C
  C53      1.0000 0.91060  0.34390  0.89420  Biso   1.000  C
  C54      1.0000 0.86330  0.32220  0.87160  Biso   1.000  C
  C55      1.0000 0.93320  0.38310  0.13220  Biso   1.000  C
  C56      1.0000 0.94920  0.34110  0.14680  Biso   1.000  C
  C57      1.0000 0.93640  0.29890  0.13180  Biso   1.000  C
  C58      1.0000 0.90720  0.30000  0.10180  Biso   1.000  C
  C59      1.0000 0.88990  0.34460  0.08920  Biso   1.000  C
  C60      1.0000 0.95260  0.25350  0.14780  Biso   1.000  C
  C61      1.0000 0.99360  0.21590  0.19030  Biso   1.000  C
  C62      1.0000 0.95480  0.17370  0.14930  Biso   1.000  C
  C63      1.0000 0.05980  0.26690  0.26520  Biso   1.000  C
  C64      1.0000 0.02630  0.26310  0.23630  Biso   1.000  C
  C65      1.0000 0.02680  0.21930  0.22170  Biso   1.000  C
  C66      1.0000 0.06080  0.18100  0.23790  Biso   1.000  C
  C67      1.0000 0.09810  0.18740  0.26650  Biso   1.000  C
  C68      1.0000 0.90500  0.08160  0.09030  Biso   1.000  C
  C69      1.0000 0.92020  0.12460  0.10410  Biso   1.000  C
  C70      1.0000 0.94240  0.12730  0.13400  Biso   1.000  C
  C71      1.0000 0.94970  0.08550  0.14940  Biso   1.000  C
  C72      1.0000 0.93410  0.04280  0.13420  Biso   1.000  C
  C73      1.0000 0.48820  0.95530  0.95970  Biso   1.000  C
  C74      1.0000 0.44190  0.94460  0.98580  Biso   1.000  C
  C75      1.0000 0.49030  0.92400  0.00930  Biso   1.000  C
  C76      1.0000 0.58800  0.91550  0.00620  Biso   1.000  C
  C77      1.0000 0.63010  0.92620  0.97920  Biso   1.000  C
  C78      1.0000 0.43940  0.90930  0.03690  Biso   1.000  C
  C79      1.0000 0.30440  0.90440  0.06340  Biso   1.000  C
  C80      1.0000 0.43790  0.87190  0.08150  Biso   1.000  C
  C81      1.0000 0.05700  0.95230  0.05010  Biso   1.000  C
  C82      1.0000 0.15130  0.93720  0.04440  Biso   1.000  C
  C83      1.0000 0.20230  0.91730  0.06830  Biso   1.000  C
  C84      1.0000 0.15750  0.91240  0.09540  Biso   1.000  C
  C85      1.0000 0.06560  0.92770  0.09900  Biso   1.000  C
  C86      1.0000 0.49800  0.80230  0.15060  Biso   1.000  C
  C87      1.0000 0.44380  0.82550  0.12910  Biso   1.000  C
  C88      1.0000 0.49000  0.84700  0.10620  Biso   1.000  C
  C89      1.0000 0.58940  0.84390  0.10580  Biso   1.000  C
  C90      1.0000 0.63670  0.82220  0.12840  Biso   1.000  C
  C91      1.0000 0.56680  0.88310  0.86780  Biso   1.000  C
  C92      1.0000 0.55080  0.84110  0.85320  Biso   1.000  C
  C93      1.0000 0.56360  0.79890  0.86820  Biso   1.000  C
  C94      1.0000 0.59280  0.80000  0.89820  Biso   1.000  C
  C95      1.0000 0.61010  0.84460  0.91080  Biso   1.000  C
  C96      1.0000 0.54740  0.75350  0.85220  Biso   1.000  C
  C97      1.0000 0.50640  0.71590  0.80970  Biso   1.000  C
  C98      1.0000 0.54520  0.67370  0.85070  Biso   1.000  C
  C99      1.0000 0.44020  0.76690  0.73480  Biso   1.000  C
  C100     1.0000 0.47370  0.76310  0.76370  Biso   1.000  C
  C101     1.0000 0.47320  0.71930  0.77830  Biso   1.000  C
  C102     1.0000 0.43920  0.68100  0.76210  Biso   1.000  C
  C103     1.0000 0.40190  0.68740  0.73350  Biso   1.000  C
  C104     1.0000 0.59500  0.58160  0.90970  Biso   1.000  C
  C105     1.0000 0.57980  0.62460  0.89590  Biso   1.000  C
  C106     1.0000 0.55760  0.62730  0.86600  Biso   1.000  C
  C107     1.0000 0.55030  0.58550  0.85060  Biso   1.000  C
  C108     1.0000 0.56590  0.54280  0.86580  Biso   1.000  C
  C109     1.0000 0.51180  0.54470  0.45970  Biso   1.000  C
  C110     1.0000 0.55810  0.55540  0.48580  Biso   1.000  C
  C111     1.0000 0.50970  0.57600  0.50930  Biso   1.000  C
  C112     1.0000 0.41200  0.58450  0.50620  Biso   1.000  C
  C113     1.0000 0.36990  0.57380  0.47920  Biso   1.000  C
  C114     1.0000 0.56060  0.59070  0.53690  Biso   1.000  C
  C115     1.0000 0.69560  0.59560  0.56340  Biso   1.000  C
  C116     1.0000 0.56210  0.62810  0.58150  Biso   1.000  C
  C117     1.0000 0.94300  0.54770  0.55010  Biso   1.000  C
  C118     1.0000 0.84870  0.56280  0.54440  Biso   1.000  C
  C119     1.0000 0.79770  0.58270  0.56830  Biso   1.000  C
  C120     1.0000 0.84250  0.58760  0.59540  Biso   1.000  C
  C121     1.0000 0.93440  0.57230  0.59900  Biso   1.000  C
  C122     1.0000 0.50200  0.69770  0.65060  Biso   1.000  C
  C123     1.0000 0.55620  0.67450  0.62910  Biso   1.000  C
  C124     1.0000 0.51000  0.65300  0.60620  Biso   1.000  C
  C125     1.0000 0.41060  0.65610  0.60580  Biso   1.000  C
  C126     1.0000 0.36330  0.67780  0.62840  Biso   1.000  C
  C127     1.0000 0.43320  0.61690  0.36780  Biso   1.000  C
  C128     1.0000 0.44920  0.65890  0.35320  Biso   1.000  C
  C129     1.0000 0.43640  0.70110  0.36820  Biso   1.000  C
  C130     1.0000 0.40720  0.70000  0.39820  Biso   1.000  C
  C131     1.0000 0.38990  0.65540  0.41080  Biso   1.000  C
  C132     1.0000 0.45260  0.74650  0.35220  Biso   1.000  C
  C133     1.0000 0.49360  0.78410  0.30970  Biso   1.000  C
  C134     1.0000 0.45480  0.82630  0.35070  Biso   1.000  C
  C135     1.0000 0.55980  0.73310  0.23480  Biso   1.000  C
  C136     1.0000 0.52630  0.73690  0.26370  Biso   1.000  C
  C137     1.0000 0.52680  0.78070  0.27830  Biso   1.000  C
  C138     1.0000 0.56080  0.81900  0.26210  Biso   1.000  C
  C139     1.0000 0.59810  0.81260  0.23350  Biso   1.000  C
  C140     1.0000 0.40500  0.91840  0.40970  Biso   1.000  C
  C141     1.0000 0.42020  0.87540  0.39590  Biso   1.000  C
  C142     1.0000 0.44240  0.87270  0.36600  Biso   1.000  C
  C143     1.0000 0.44970  0.91450  0.35060  Biso   1.000  C
  C144     1.0000 0.43410  0.95720  0.36580  Biso   1.000  C
  I1       1.0000 0.32229  0.05735  0.58301  Biso   1.000  I
  I2       1.0000 0.05651  0.98634  0.61649  Biso   1.000  I
  I3       1.0000 0.30463  0.00601  0.46588  Biso   1.000  I
  I4       1.0000 0.30401  0.07478  0.37583  Biso   1.000  I
  I5       1.0000 0.15761  0.32590  0.33572  Biso   1.000  I
  I6       1.0000 0.33406  0.20196  0.31290  Biso   1.000  I
  I7       1.0000 0.67771  0.44265  0.08301  Biso   1.000  I
  I8       1.0000 0.94349  0.51366  0.11649  Biso   1.000  I
  I9       1.0000 0.69537  0.49399  0.96588  Biso   1.000  I
  I10      1.0000 0.69599  0.42522  0.87583  Biso   1.000  I
  I11      1.0000 0.84239  0.17410  0.83572  Biso   1.000  I
  I12      1.0000 0.66594  0.29804  0.81290  Biso   1.000  I
  I13      1.0000 0.82229  0.94265  0.91699  Biso   1.000  I
  I14      1.0000 0.55651  0.01366  0.88351  Biso   1.000  I
  I15      1.0000 0.80463  0.99399  0.03412  Biso   1.000  I
  I16      1.0000 0.80401  0.92522  0.12417  Biso   1.000  I
  I17      1.0000 0.65761  0.67410  0.16428  Biso   1.000  I
  I18      1.0000 0.83406  0.79804  0.18710  Biso   1.000  I
  I19      1.0000 0.17771  0.55735  0.41699  Biso   1.000  I
  I20      1.0000 0.44349  0.48634  0.38351  Biso   1.000  I
  I21      1.0000 0.19537  0.50601  0.53412  Biso   1.000  I
  I22      1.0000 0.19599  0.57478  0.62417  Biso   1.000  I
  I23      1.0000 0.34239  0.82590  0.66428  Biso   1.000  I
  I24      1.0000 0.16594  0.70196  0.68710  Biso   1.000  I
  N1       1.0000 0.08260  0.05480  0.54440  Biso   1.000  N
  N2       1.0000 0.84650  0.07930  0.46100  Biso   1.000  N
  N3       1.0000 0.84440  0.12140  0.41450  Biso   1.000  N
  N4       1.0000 0.99030  0.11330  0.44220  Biso   1.000  N
  N5       1.0000 0.51580  0.05240  0.42360  Biso   1.000  N
  N6       1.0000 0.09220  0.19850  0.34970  Biso   1.000  N
  N7       1.0000 0.09720  0.11450  0.60372  Biso   1.000  N
  N8       1.0000 0.02130  0.24330  0.67636  Biso   1.000  N
  N9       1.0000 0.06120  0.28730  0.63300  Biso   1.000  N
  N10      1.0000 0.01670  0.32730  0.67830  Biso   1.000  N
  N11      1.0000 0.90250  0.26990  0.77976  Biso   1.000  N
  N12      1.0000 0.08760  0.45880  0.60510  Biso   1.000  N
  N13      1.0000 0.91740  0.44520  0.04440  Biso   1.000  N
  N14      1.0000 0.15350  0.42070  0.96100  Biso   1.000  N
  N15      1.0000 0.15560  0.37860  0.91450  Biso   1.000  N
  N16      1.0000 0.00970  0.38670  0.94220  Biso   1.000  N
  N17      1.0000 0.48420  0.44760  0.92360  Biso   1.000  N
  N18      1.0000 0.90780  0.30150  0.84970  Biso   1.000  N
  N19      1.0000 0.90280  0.38550  0.10372  Biso   1.000  N
  N20      1.0000 0.97870  0.25670  0.17636  Biso   1.000  N
  N21      1.0000 0.93880  0.21270  0.13300  Biso   1.000  N
  N22      1.0000 0.98330  0.17270  0.17830  Biso   1.000  N
  N23      1.0000 0.09750  0.23010  0.27976  Biso   1.000  N
  N24      1.0000 0.91240  0.04120  0.10510  Biso   1.000  N
  N25      1.0000 0.58260  0.94520  0.95560  Biso   1.000  N
  N26      1.0000 0.34650  0.92070  0.03900  Biso   1.000  N
  N27      1.0000 0.34440  0.87860  0.08550  Biso   1.000  N
  N28      1.0000 0.49030  0.88670  0.05780  Biso   1.000  N
  N29      1.0000 0.01580  0.94760  0.07640  Biso   1.000  N
  N30      1.0000 0.59220  0.80150  0.15030  Biso   1.000  N
  N31      1.0000 0.59720  0.88550  0.89628  Biso   1.000  N
  N32      1.0000 0.52130  0.75670  0.82364  Biso   1.000  N
  N33      1.0000 0.56120  0.71270  0.86700  Biso   1.000  N
  N34      1.0000 0.51670  0.67270  0.82170  Biso   1.000  N
  N35      1.0000 0.40250  0.73010  0.72024  Biso   1.000  N
  N36      1.0000 0.58760  0.54120  0.89490  Biso   1.000  N
  N37      1.0000 0.41740  0.55480  0.45560  Biso   1.000  N
  N38      1.0000 0.65350  0.57930  0.53900  Biso   1.000  N
  N39      1.0000 0.65560  0.62140  0.58550  Biso   1.000  N
  N40      1.0000 0.50970  0.61330  0.55780  Biso   1.000  N
  N41      1.0000 0.98420  0.55240  0.57640  Biso   1.000  N
  N42      1.0000 0.40780  0.69850  0.65030  Biso   1.000  N
  N43      1.0000 0.40280  0.61450  0.39628  Biso   1.000  N
  N44      1.0000 0.47870  0.74330  0.32364  Biso   1.000  N
  N45      1.0000 0.43880  0.78730  0.36700  Biso   1.000  N
  N46      1.0000 0.48330  0.82730  0.32170  Biso   1.000  N
  N47      1.0000 0.59750  0.76990  0.22024  Biso   1.000  N
  N48      1.0000 0.41240  0.95880  0.39490  Biso   1.000  N
  Zn13     1.0000 0.85806  0.94973  0.41365  Biso   1.000  Zn
  Zn14     1.0000 0.61707  0.97677  0.58498  Biso   1.000  Zn
  Zn15     1.0000 0.83045  0.76076  0.68055  Biso   1.000  Zn
  Zn16     1.0000 0.14194  0.55027  0.91365  Biso   1.000  Zn
  Zn17     1.0000 0.38293  0.52323  0.08498  Biso   1.000  Zn
  Zn18     1.0000 0.16955  0.73924  0.18055  Biso   1.000  Zn
  Zn19     1.0000 0.35806  0.05027  0.08635  Biso   1.000  Zn
  Zn20     1.0000 0.11707  0.02323  0.91502  Biso   1.000  Zn
  Zn21     1.0000 0.33045  0.23924  0.81945  Biso   1.000  Zn
  Zn22     1.0000 0.64194  0.44973  0.58635  Biso   1.000  Zn
  Zn23     1.0000 0.88293  0.47677  0.41502  Biso   1.000  Zn
  Zn24     1.0000 0.66955  0.26076  0.31945  Biso   1.000  Zn
  H97      1.0000 0.04620  0.97010  0.44390  Biso   1.000  H
  H98      1.0000 0.12420  0.95140  0.48780  Biso   1.000  H
  H99      1.0000 0.87580  0.90260  0.52240  Biso   1.000  H
  H100     1.0000 0.80370  0.91990  0.47690  Biso   1.000  H
  H101     1.0000 0.47810  0.96660  0.53420  Biso   1.000  H
  H102     1.0000 0.32090  0.94030  0.52500  Biso   1.000  H
  H103     1.0000 0.30960  0.89830  0.61180  Biso   1.000  H
  H104     1.0000 0.46390  0.92420  0.61810  Biso   1.000  H
  H105     1.0000 0.03410  0.78610  0.66640  Biso   1.000  H
  H106     1.0000 0.12380  0.82630  0.63050  Biso   1.000  H
  H107     1.0000 0.87600  0.85730  0.58950  Biso   1.000  H
  H108     1.0000 0.79550  0.82210  0.62820  Biso   1.000  H
  H109     1.0000 0.94430  0.91200  0.35730  Biso   1.000  H
  H110     1.0000 0.96910  0.84110  0.33280  Biso   1.000  H
  H111     1.0000 0.89950  0.77160  0.40950  Biso   1.000  H
  H112     1.0000 0.86770  0.84590  0.43100  Biso   1.000  H
  H113     1.0000 0.05600  0.79680  0.22490  Biso   1.000  H
  H114     1.0000 0.00260  0.79040  0.27380  Biso   1.000  H
  H115     1.0000 0.05860  0.65010  0.27060  Biso   1.000  H
  H116     1.0000 0.12450  0.66100  0.22310  Biso   1.000  H
  H117     1.0000 0.88870  0.58090  0.43050  Biso   1.000  H
  H118     1.0000 0.91510  0.65300  0.40740  Biso   1.000  H
  H119     1.0000 0.96510  0.58550  0.32990  Biso   1.000  H
  H120     1.0000 0.93910  0.51380  0.35500  Biso   1.000  H
  H121     1.0000 0.95380  0.52990  0.94390  Biso   1.000  H
  H122     1.0000 0.87580  0.54860  0.98780  Biso   1.000  H
  H123     1.0000 0.12420  0.59740  0.02240  Biso   1.000  H
  H124     1.0000 0.19630  0.58010  0.97690  Biso   1.000  H
  H125     1.0000 0.52190  0.53340  0.03420  Biso   1.000  H
  H126     1.0000 0.67910  0.55970  0.02500  Biso   1.000  H
  H127     1.0000 0.69040  0.60170  0.11180  Biso   1.000  H
  H128     1.0000 0.53610  0.57580  0.11810  Biso   1.000  H
  H129     1.0000 0.96590  0.71390  0.16640  Biso   1.000  H
  H130     1.0000 0.87620  0.67370  0.13050  Biso   1.000  H
  H131     1.0000 0.12400  0.64270  0.08950  Biso   1.000  H
  H132     1.0000 0.20450  0.67790  0.12820  Biso   1.000  H
  H133     1.0000 0.05570  0.58800  0.85730  Biso   1.000  H
  H134     1.0000 0.03090  0.65890  0.83280  Biso   1.000  H
  H135     1.0000 0.10050  0.72840  0.90950  Biso   1.000  H
  H136     1.0000 0.13230  0.65410  0.93100  Biso   1.000  H
  H137     1.0000 0.94400  0.70320  0.72490  Biso   1.000  H
  H138     1.0000 0.99740  0.70960  0.77380  Biso   1.000  H
  H139     1.0000 0.94140  0.84990  0.77060  Biso   1.000  H
  H140     1.0000 0.87550  0.83900  0.72310  Biso   1.000  H
  H141     1.0000 0.11130  0.91910  0.93050  Biso   1.000  H
  H142     1.0000 0.08490  0.84700  0.90740  Biso   1.000  H
  H143     1.0000 0.03490  0.91450  0.82990  Biso   1.000  H
  H144     1.0000 0.06090  0.98620  0.85500  Biso   1.000  H
  H145     1.0000 0.54620  0.02990  0.05610  Biso   1.000  H
  H146     1.0000 0.62420  0.04860  0.01220  Biso   1.000  H
  H147     1.0000 0.37580  0.09740  0.97760  Biso   1.000  H
  H148     1.0000 0.30370  0.08010  0.02310  Biso   1.000  H
  H149     1.0000 0.97810  0.03340  0.96580  Biso   1.000  H
  H150     1.0000 0.82090  0.05970  0.97500  Biso   1.000  H
  H151     1.0000 0.80960  0.10170  0.88820  Biso   1.000  H
  H152     1.0000 0.96390  0.07580  0.88190  Biso   1.000  H
  H153     1.0000 0.53410  0.21390  0.83360  Biso   1.000  H
  H154     1.0000 0.62380  0.17370  0.86950  Biso   1.000  H
  H155     1.0000 0.37600  0.14270  0.91050  Biso   1.000  H
  H156     1.0000 0.29550  0.17790  0.87180  Biso   1.000  H
  H157     1.0000 0.44430  0.08800  0.14270  Biso   1.000  H
  H158     1.0000 0.46910  0.15890  0.16720  Biso   1.000  H
  H159     1.0000 0.39950  0.22840  0.09050  Biso   1.000  H
  H160     1.0000 0.36770  0.15410  0.06900  Biso   1.000  H
  H161     1.0000 0.55600  0.20320  0.27510  Biso   1.000  H
  H162     1.0000 0.50260  0.20960  0.22620  Biso   1.000  H
  H163     1.0000 0.55860  0.34990  0.22940  Biso   1.000  H
  H164     1.0000 0.62450  0.33900  0.27690  Biso   1.000  H
  H165     1.0000 0.38870  0.41910  0.06950  Biso   1.000  H
  H166     1.0000 0.41510  0.34700  0.09260  Biso   1.000  H
  H167     1.0000 0.46510  0.41450  0.17010  Biso   1.000  H
  H168     1.0000 0.43910  0.48620  0.14500  Biso   1.000  H
  H169     1.0000 0.45380  0.47010  0.55610  Biso   1.000  H
  H170     1.0000 0.37580  0.45140  0.51220  Biso   1.000  H
  H171     1.0000 0.62420  0.40260  0.47760  Biso   1.000  H
  H172     1.0000 0.69630  0.41990  0.52310  Biso   1.000  H
  H173     1.0000 0.02190  0.46660  0.46580  Biso   1.000  H
  H174     1.0000 0.17910  0.44030  0.47500  Biso   1.000  H
  H175     1.0000 0.19040  0.39830  0.38820  Biso   1.000  H
  H176     1.0000 0.03610  0.42420  0.38190  Biso   1.000  H
  H177     1.0000 0.46590  0.28610  0.33360  Biso   1.000  H
  H178     1.0000 0.37620  0.32630  0.36950  Biso   1.000  H
  H179     1.0000 0.62400  0.35730  0.41050  Biso   1.000  H
  H180     1.0000 0.70450  0.32210  0.37180  Biso   1.000  H
  H181     1.0000 0.55570  0.41200  0.64270  Biso   1.000  H
  H182     1.0000 0.53090  0.34110  0.66720  Biso   1.000  H
  H183     1.0000 0.60050  0.27160  0.59050  Biso   1.000  H
  H184     1.0000 0.63230  0.34590  0.56900  Biso   1.000  H
  H185     1.0000 0.44400  0.29680  0.77510  Biso   1.000  H
  H186     1.0000 0.49740  0.29040  0.72620  Biso   1.000  H
  H187     1.0000 0.44140  0.15010  0.72940  Biso   1.000  H
  H188     1.0000 0.37550  0.16100  0.77690  Biso   1.000  H
  H189     1.0000 0.61130  0.08090  0.56950  Biso   1.000  H
  H190     1.0000 0.58490  0.15300  0.59260  Biso   1.000  H
  H191     1.0000 0.53490  0.08550  0.67010  Biso   1.000  H
  H192     1.0000 0.56090  0.01380  0.64500  Biso   1.000  H
  C145     1.0000 0.01180  0.95530  0.45970  Biso   1.000  C
  C146     1.0000 0.05810  0.94460  0.48580  Biso   1.000  C
  C147     1.0000 0.00970  0.92400  0.50930  Biso   1.000  C
  C148     1.0000 0.91200  0.91550  0.50620  Biso   1.000  C
  C149     1.0000 0.86990  0.92620  0.47920  Biso   1.000  C
  C150     1.0000 0.06060  0.90930  0.53690  Biso   1.000  C
  C151     1.0000 0.19560  0.90440  0.56340  Biso   1.000  C
  C152     1.0000 0.06210  0.87190  0.58150  Biso   1.000  C
  C153     1.0000 0.44300  0.95230  0.55010  Biso   1.000  C
  C154     1.0000 0.34870  0.93720  0.54440  Biso   1.000  C
  C155     1.0000 0.29770  0.91730  0.56830  Biso   1.000  C
  C156     1.0000 0.34250  0.91240  0.59540  Biso   1.000  C
  C157     1.0000 0.43440  0.92770  0.59900  Biso   1.000  C
  C158     1.0000 0.00200  0.80230  0.65060  Biso   1.000  C
  C159     1.0000 0.05620  0.82550  0.62910  Biso   1.000  C
  C160     1.0000 0.01000  0.84700  0.60620  Biso   1.000  C
  C161     1.0000 0.91060  0.84390  0.60580  Biso   1.000  C
  C162     1.0000 0.86330  0.82220  0.62840  Biso   1.000  C
  C163     1.0000 0.93320  0.88310  0.36780  Biso   1.000  C
  C164     1.0000 0.94920  0.84110  0.35320  Biso   1.000  C
  C165     1.0000 0.93640  0.79890  0.36820  Biso   1.000  C
  C166     1.0000 0.90720  0.80000  0.39820  Biso   1.000  C
  C167     1.0000 0.88990  0.84460  0.41080  Biso   1.000  C
  C168     1.0000 0.95260  0.75350  0.35220  Biso   1.000  C
  C169     1.0000 0.99360  0.71590  0.30970  Biso   1.000  C
  C170     1.0000 0.95480  0.67370  0.35070  Biso   1.000  C
  C171     1.0000 0.05980  0.76690  0.23480  Biso   1.000  C
  C172     1.0000 0.02630  0.76310  0.26370  Biso   1.000  C
  C173     1.0000 0.02680  0.71930  0.27830  Biso   1.000  C
  C174     1.0000 0.06080  0.68100  0.26210  Biso   1.000  C
  C175     1.0000 0.09810  0.68740  0.23350  Biso   1.000  C
  C176     1.0000 0.90500  0.58160  0.40970  Biso   1.000  C
  C177     1.0000 0.92020  0.62460  0.39590  Biso   1.000  C
  C178     1.0000 0.94240  0.62730  0.36600  Biso   1.000  C
  C179     1.0000 0.94970  0.58550  0.35060  Biso   1.000  C
  C180     1.0000 0.93410  0.54280  0.36580  Biso   1.000  C
  C181     1.0000 0.98820  0.54470  0.95970  Biso   1.000  C
  C182     1.0000 0.94190  0.55540  0.98580  Biso   1.000  C
  C183     1.0000 0.99030  0.57600  0.00930  Biso   1.000  C
  C184     1.0000 0.08800  0.58450  0.00620  Biso   1.000  C
  C185     1.0000 0.13010  0.57380  0.97920  Biso   1.000  C
  C186     1.0000 0.93940  0.59070  0.03690  Biso   1.000  C
  C187     1.0000 0.80440  0.59560  0.06340  Biso   1.000  C
  C188     1.0000 0.93790  0.62810  0.08150  Biso   1.000  C
  C189     1.0000 0.55700  0.54770  0.05010  Biso   1.000  C
  C190     1.0000 0.65130  0.56280  0.04440  Biso   1.000  C
  C191     1.0000 0.70230  0.58270  0.06830  Biso   1.000  C
  C192     1.0000 0.65750  0.58760  0.09540  Biso   1.000  C
  C193     1.0000 0.56560  0.57230  0.09900  Biso   1.000  C
  C194     1.0000 0.99800  0.69770  0.15060  Biso   1.000  C
  C195     1.0000 0.94380  0.67450  0.12910  Biso   1.000  C
  C196     1.0000 0.99000  0.65300  0.10620  Biso   1.000  C
  C197     1.0000 0.08940  0.65610  0.10580  Biso   1.000  C
  C198     1.0000 0.13670  0.67780  0.12840  Biso   1.000  C
  C199     1.0000 0.06680  0.61690  0.86780  Biso   1.000  C
  C200     1.0000 0.05080  0.65890  0.85320  Biso   1.000  C
  C201     1.0000 0.06360  0.70110  0.86820  Biso   1.000  C
  C202     1.0000 0.09280  0.70000  0.89820  Biso   1.000  C
  C203     1.0000 0.11010  0.65540  0.91080  Biso   1.000  C
  C204     1.0000 0.04740  0.74650  0.85220  Biso   1.000  C
  C205     1.0000 0.00640  0.78410  0.80970  Biso   1.000  C
  C206     1.0000 0.04520  0.82630  0.85070  Biso   1.000  C
  C207     1.0000 0.94020  0.73310  0.73480  Biso   1.000  C
  C208     1.0000 0.97370  0.73690  0.76370  Biso   1.000  C
  C209     1.0000 0.97320  0.78070  0.77830  Biso   1.000  C
  C210     1.0000 0.93920  0.81900  0.76210  Biso   1.000  C
  C211     1.0000 0.90190  0.81260  0.73350  Biso   1.000  C
  C212     1.0000 0.09500  0.91840  0.90970  Biso   1.000  C
  C213     1.0000 0.07980  0.87540  0.89590  Biso   1.000  C
  C214     1.0000 0.05760  0.87270  0.86600  Biso   1.000  C
  C215     1.0000 0.05030  0.91450  0.85060  Biso   1.000  C
  C216     1.0000 0.06590  0.95720  0.86580  Biso   1.000  C
  C217     1.0000 0.51180  0.04470  0.04030  Biso   1.000  C
  C218     1.0000 0.55810  0.05540  0.01420  Biso   1.000  C
  C219     1.0000 0.50970  0.07600  0.99070  Biso   1.000  C
  C220     1.0000 0.41200  0.08450  0.99380  Biso   1.000  C
  C221     1.0000 0.36990  0.07380  0.02080  Biso   1.000  C
  C222     1.0000 0.56060  0.09070  0.96310  Biso   1.000  C
  C223     1.0000 0.69560  0.09560  0.93660  Biso   1.000  C
  C224     1.0000 0.56210  0.12810  0.91850  Biso   1.000  C
  C225     1.0000 0.94300  0.04770  0.94990  Biso   1.000  C
  C226     1.0000 0.84870  0.06280  0.95560  Biso   1.000  C
  C227     1.0000 0.79770  0.08270  0.93170  Biso   1.000  C
  C228     1.0000 0.84250  0.08760  0.90460  Biso   1.000  C
  C229     1.0000 0.93440  0.07230  0.90100  Biso   1.000  C
  C230     1.0000 0.50200  0.19770  0.84940  Biso   1.000  C
  C231     1.0000 0.55620  0.17450  0.87090  Biso   1.000  C
  C232     1.0000 0.51000  0.15300  0.89380  Biso   1.000  C
  C233     1.0000 0.41060  0.15610  0.89420  Biso   1.000  C
  C234     1.0000 0.36330  0.17780  0.87160  Biso   1.000  C
  C235     1.0000 0.43320  0.11690  0.13220  Biso   1.000  C
  C236     1.0000 0.44920  0.15890  0.14680  Biso   1.000  C
  C237     1.0000 0.43640  0.20110  0.13180  Biso   1.000  C
  C238     1.0000 0.40720  0.20000  0.10180  Biso   1.000  C
  C239     1.0000 0.38990  0.15540  0.08920  Biso   1.000  C
  C240     1.0000 0.45260  0.24650  0.14780  Biso   1.000  C
  C241     1.0000 0.49360  0.28410  0.19030  Biso   1.000  C
  C242     1.0000 0.45480  0.32630  0.14930  Biso   1.000  C
  C243     1.0000 0.55980  0.23310  0.26520  Biso   1.000  C
  C244     1.0000 0.52630  0.23690  0.23630  Biso   1.000  C
  C245     1.0000 0.52680  0.28070  0.22170  Biso   1.000  C
  C246     1.0000 0.56080  0.31900  0.23790  Biso   1.000  C
  C247     1.0000 0.59810  0.31260  0.26650  Biso   1.000  C
  C248     1.0000 0.40500  0.41840  0.09030  Biso   1.000  C
  C249     1.0000 0.42020  0.37540  0.10410  Biso   1.000  C
  C250     1.0000 0.44240  0.37270  0.13400  Biso   1.000  C
  C251     1.0000 0.44970  0.41450  0.14940  Biso   1.000  C
  C252     1.0000 0.43410  0.45720  0.13420  Biso   1.000  C
  C253     1.0000 0.48820  0.45530  0.54030  Biso   1.000  C
  C254     1.0000 0.44190  0.44460  0.51420  Biso   1.000  C
  C255     1.0000 0.49030  0.42400  0.49070  Biso   1.000  C
  C256     1.0000 0.58800  0.41550  0.49380  Biso   1.000  C
  C257     1.0000 0.63010  0.42620  0.52080  Biso   1.000  C
  C258     1.0000 0.43940  0.40930  0.46310  Biso   1.000  C
  C259     1.0000 0.30440  0.40440  0.43660  Biso   1.000  C
  C260     1.0000 0.43790  0.37190  0.41850  Biso   1.000  C
  C261     1.0000 0.05700  0.45230  0.44990  Biso   1.000  C
  C262     1.0000 0.15130  0.43720  0.45560  Biso   1.000  C
  C263     1.0000 0.20230  0.41730  0.43170  Biso   1.000  C
  C264     1.0000 0.15750  0.41240  0.40460  Biso   1.000  C
  C265     1.0000 0.06560  0.42770  0.40100  Biso   1.000  C
  C266     1.0000 0.49800  0.30230  0.34940  Biso   1.000  C
  C267     1.0000 0.44380  0.32550  0.37090  Biso   1.000  C
  C268     1.0000 0.49000  0.34700  0.39380  Biso   1.000  C
  C269     1.0000 0.58940  0.34390  0.39420  Biso   1.000  C
  C270     1.0000 0.63670  0.32220  0.37160  Biso   1.000  C
  C271     1.0000 0.56680  0.38310  0.63220  Biso   1.000  C
  C272     1.0000 0.55080  0.34110  0.64680  Biso   1.000  C
  C273     1.0000 0.56360  0.29890  0.63180  Biso   1.000  C
  C274     1.0000 0.59280  0.30000  0.60180  Biso   1.000  C
  C275     1.0000 0.61010  0.34460  0.58920  Biso   1.000  C
  C276     1.0000 0.54740  0.25350  0.64780  Biso   1.000  C
  C277     1.0000 0.50640  0.21590  0.69030  Biso   1.000  C
  C278     1.0000 0.54520  0.17370  0.64930  Biso   1.000  C
  C279     1.0000 0.44020  0.26690  0.76520  Biso   1.000  C
  C280     1.0000 0.47370  0.26310  0.73630  Biso   1.000  C
  C281     1.0000 0.47320  0.21930  0.72170  Biso   1.000  C
  C282     1.0000 0.43920  0.18100  0.73790  Biso   1.000  C
  C283     1.0000 0.40190  0.18740  0.76650  Biso   1.000  C
  C284     1.0000 0.59500  0.08160  0.59030  Biso   1.000  C
  C285     1.0000 0.57980  0.12460  0.60410  Biso   1.000  C
  C286     1.0000 0.55760  0.12730  0.63400  Biso   1.000  C
  C287     1.0000 0.55030  0.08550  0.64940  Biso   1.000  C
  C288     1.0000 0.56590  0.04280  0.63420  Biso   1.000  C
  I25      1.0000 0.67771  0.94265  0.41699  Biso   1.000  I
  I26      1.0000 0.94349  0.01366  0.38351  Biso   1.000  I
  I27      1.0000 0.69537  0.99399  0.53412  Biso   1.000  I
  I28      1.0000 0.69599  0.92522  0.62417  Biso   1.000  I
  I29      1.0000 0.84239  0.67410  0.66428  Biso   1.000  I
  I30      1.0000 0.66594  0.79804  0.68710  Biso   1.000  I
  I31      1.0000 0.32229  0.55735  0.91699  Biso   1.000  I
  I32      1.0000 0.05651  0.48634  0.88351  Biso   1.000  I
  I33      1.0000 0.30463  0.50601  0.03412  Biso   1.000  I
  I34      1.0000 0.30401  0.57478  0.12417  Biso   1.000  I
  I35      1.0000 0.15761  0.82590  0.16428  Biso   1.000  I
  I36      1.0000 0.33406  0.70196  0.18710  Biso   1.000  I
  I37      1.0000 0.17771  0.05735  0.08301  Biso   1.000  I
  I38      1.0000 0.44349  0.98634  0.11649  Biso   1.000  I
  I39      1.0000 0.19537  0.00601  0.96588  Biso   1.000  I
  I40      1.0000 0.19599  0.07478  0.87583  Biso   1.000  I
  I41      1.0000 0.34239  0.32590  0.83572  Biso   1.000  I
  I42      1.0000 0.16594  0.20196  0.81290  Biso   1.000  I
  I43      1.0000 0.82229  0.44265  0.58301  Biso   1.000  I
  I44      1.0000 0.55651  0.51366  0.61649  Biso   1.000  I
  I45      1.0000 0.80463  0.49399  0.46588  Biso   1.000  I
  I46      1.0000 0.80401  0.42522  0.37583  Biso   1.000  I
  I47      1.0000 0.65761  0.17410  0.33572  Biso   1.000  I
  I48      1.0000 0.83406  0.29804  0.31290  Biso   1.000  I
  N49      1.0000 0.91740  0.94520  0.45560  Biso   1.000  N
  N50      1.0000 0.15350  0.92070  0.53900  Biso   1.000  N
  N51      1.0000 0.15560  0.87860  0.58550  Biso   1.000  N
  N52      1.0000 0.00970  0.88670  0.55780  Biso   1.000  N
  N53      1.0000 0.48420  0.94760  0.57640  Biso   1.000  N
  N54      1.0000 0.90780  0.80150  0.65030  Biso   1.000  N
  N55      1.0000 0.90280  0.88550  0.39628  Biso   1.000  N
  N56      1.0000 0.97870  0.75670  0.32364  Biso   1.000  N
  N57      1.0000 0.93880  0.71270  0.36700  Biso   1.000  N
  N58      1.0000 0.98330  0.67270  0.32170  Biso   1.000  N
  N59      1.0000 0.09750  0.73010  0.22024  Biso   1.000  N
  N60      1.0000 0.91240  0.54120  0.39490  Biso   1.000  N
  N61      1.0000 0.08260  0.55480  0.95560  Biso   1.000  N
  N62      1.0000 0.84650  0.57930  0.03900  Biso   1.000  N
  N63      1.0000 0.84440  0.62140  0.08550  Biso   1.000  N
  N64      1.0000 0.99030  0.61330  0.05780  Biso   1.000  N
  N65      1.0000 0.51580  0.55240  0.07640  Biso   1.000  N
  N66      1.0000 0.09220  0.69850  0.15030  Biso   1.000  N
  N67      1.0000 0.09720  0.61450  0.89628  Biso   1.000  N
  N68      1.0000 0.02130  0.74330  0.82364  Biso   1.000  N
  N69      1.0000 0.06120  0.78730  0.86700  Biso   1.000  N
  N70      1.0000 0.01670  0.82730  0.82170  Biso   1.000  N
  N71      1.0000 0.90250  0.76990  0.72024  Biso   1.000  N
  N72      1.0000 0.08760  0.95880  0.89490  Biso   1.000  N
  N73      1.0000 0.41740  0.05480  0.04440  Biso   1.000  N
  N74      1.0000 0.65350  0.07930  0.96100  Biso   1.000  N
  N75      1.0000 0.65560  0.12140  0.91450  Biso   1.000  N
  N76      1.0000 0.50970  0.11330  0.94220  Biso   1.000  N
  N77      1.0000 0.98420  0.05240  0.92360  Biso   1.000  N
  N78      1.0000 0.40780  0.19850  0.84970  Biso   1.000  N
  N79      1.0000 0.40280  0.11450  0.10372  Biso   1.000  N
  N80      1.0000 0.47870  0.24330  0.17636  Biso   1.000  N
  N81      1.0000 0.43880  0.28730  0.13300  Biso   1.000  N
  N82      1.0000 0.48330  0.32730  0.17830  Biso   1.000  N
  N83      1.0000 0.59750  0.26990  0.27976  Biso   1.000  N
  N84      1.0000 0.41240  0.45880  0.10510  Biso   1.000  N
  N85      1.0000 0.58260  0.44520  0.54440  Biso   1.000  N
  N86      1.0000 0.34650  0.42070  0.46100  Biso   1.000  N
  N87      1.0000 0.34440  0.37860  0.41450  Biso   1.000  N
  N88      1.0000 0.49030  0.38670  0.44220  Biso   1.000  N
  N89      1.0000 0.01580  0.44760  0.42360  Biso   1.000  N
  N90      1.0000 0.59220  0.30150  0.34970  Biso   1.000  N
  N91      1.0000 0.59720  0.38550  0.60372  Biso   1.000  N
  N92      1.0000 0.52130  0.25670  0.67636  Biso   1.000  N
  N93      1.0000 0.56120  0.21270  0.63300  Biso   1.000  N
  N94      1.0000 0.51670  0.17270  0.67830  Biso   1.000  N
  N95      1.0000 0.40250  0.23010  0.77976  Biso   1.000  N
  N96      1.0000 0.58760  0.04120  0.60510  Biso   1.000  N
