data_image0
_cell_length_a       13.872
_cell_length_b       28.4
_cell_length_c       44.18
_cell_angle_alpha    90
_cell_angle_beta     90
_cell_angle_gamma    90

_symmetry_space_group_name_H-M    P 1
_symmetry_int_tables_number       1

loop_
  _symmetry_equiv_pos_as_xyz
  'x, y, z'

loop_
  _atom_site_label
  _atom_site_occupancy
  _atom_site_fract_x
  _atom_site_fract_y
  _atom_site_fract_z
  _atom_site_thermal_displace_type
  _atom_site_B_iso_or_equiv
  _atom_site_type_symbol
  Zn1      1.0000 0.11592  0.98005  0.08612  Biso   1.000  Zn
  Zn2      1.0000 0.13849  0.44930  0.08682  Biso   1.000  Zn
  Zn3      1.0000 0.81836  0.23643  0.31972  Biso   1.000  Zn
  Zn4      1.0000 0.88408  0.51995  0.58612  Biso   1.000  Zn
  Zn5      1.0000 0.86151  0.05070  0.58682  Biso   1.000  Zn
  Zn6      1.0000 0.18164  0.26357  0.81972  Biso   1.000  Zn
  Zn7      1.0000 0.61592  0.01995  0.41388  Biso   1.000  Zn
  Zn8      1.0000 0.63849  0.55070  0.41318  Biso   1.000  Zn
  Zn9      1.0000 0.31836  0.76357  0.18028  Biso   1.000  Zn
  Zn10     1.0000 0.38408  0.48005  0.91388  Biso   1.000  Zn
  Zn11     1.0000 0.36151  0.94930  0.91318  Biso   1.000  Zn
  Zn12     1.0000 0.68164  0.73643  0.68028  Biso   1.000  Zn
  H1       1.0000 0.06060  0.01760  0.14630  Biso   1.000  H
  H2       1.0000 0.03760  0.08830  0.17160  Biso   1.000  H
  H3       1.0000 0.07650  0.15520  0.09230  Biso   1.000  H
  H4       1.0000 0.09760  0.08270  0.06920  Biso   1.000  H
  H5       1.0000 0.86420  0.16090  0.27570  Biso   1.000  H
  H6       1.0000 0.93060  0.15110  0.22720  Biso   1.000  H
  H7       1.0000 0.99860  0.29010  0.22840  Biso   1.000  H
  H8       1.0000 0.93690  0.29490  0.27720  Biso   1.000  H
  H9       1.0000 0.04510  0.41230  0.14230  Biso   1.000  H
  H10      1.0000 0.01680  0.34160  0.16700  Biso   1.000  H
  H11      1.0000 0.10000  0.27280  0.09150  Biso   1.000  H
  H12      1.0000 0.12800  0.34580  0.06890  Biso   1.000  H
  H13      1.0000 0.30220  0.92680  0.97770  Biso   1.000  H
  H14      1.0000 0.37200  0.91100  0.02350  Biso   1.000  H
  H15      1.0000 0.62890  0.94930  0.98790  Biso   1.000  H
  H16      1.0000 0.54900  0.96750  0.94340  Biso   1.000  H
  H17      1.0000 0.28830  0.82930  0.12980  Biso   1.000  H
  H18      1.0000 0.37210  0.86910  0.09250  Biso   1.000  H
  H19      1.0000 0.61960  0.82320  0.13010  Biso   1.000  H
  H20      1.0000 0.52730  0.78320  0.16520  Biso   1.000  H
  H21      1.0000 0.97560  0.96680  0.03490  Biso   1.000  H
  H22      1.0000 0.82120  0.94240  0.02660  Biso   1.000  H
  H23      1.0000 0.80830  0.90070  0.11380  Biso   1.000  H
  H24      1.0000 0.96530  0.92530  0.11960  Biso   1.000  H
  H25      1.0000 0.93940  0.48240  0.64630  Biso   1.000  H
  H26      1.0000 0.96240  0.41170  0.67160  Biso   1.000  H
  H27      1.0000 0.92350  0.34480  0.59230  Biso   1.000  H
  H28      1.0000 0.90240  0.41730  0.56920  Biso   1.000  H
  H29      1.0000 0.13580  0.33910  0.77570  Biso   1.000  H
  H30      1.0000 0.06940  0.34890  0.72720  Biso   1.000  H
  H31      1.0000 0.00140  0.20990  0.72840  Biso   1.000  H
  H32      1.0000 0.06310  0.20510  0.77720  Biso   1.000  H
  H33      1.0000 0.95490  0.08770  0.64230  Biso   1.000  H
  H34      1.0000 0.98320  0.15840  0.66700  Biso   1.000  H
  H35      1.0000 0.90000  0.22720  0.59150  Biso   1.000  H
  H36      1.0000 0.87200  0.15420  0.56890  Biso   1.000  H
  H37      1.0000 0.69780  0.57320  0.47770  Biso   1.000  H
  H38      1.0000 0.62800  0.58900  0.52350  Biso   1.000  H
  H39      1.0000 0.37110  0.55070  0.48790  Biso   1.000  H
  H40      1.0000 0.45100  0.53250  0.44340  Biso   1.000  H
  H41      1.0000 0.71170  0.67070  0.62980  Biso   1.000  H
  H42      1.0000 0.62790  0.63090  0.59250  Biso   1.000  H
  H43      1.0000 0.38040  0.67680  0.63010  Biso   1.000  H
  H44      1.0000 0.47270  0.71680  0.66520  Biso   1.000  H
  H45      1.0000 0.02440  0.53320  0.53490  Biso   1.000  H
  H46      1.0000 0.17880  0.55760  0.52660  Biso   1.000  H
  H47      1.0000 0.19170  0.59930  0.61380  Biso   1.000  H
  H48      1.0000 0.03470  0.57470  0.61960  Biso   1.000  H
  H49      1.0000 0.56060  0.98240  0.35370  Biso   1.000  H
  H50      1.0000 0.53760  0.91170  0.32840  Biso   1.000  H
  H51      1.0000 0.57650  0.84480  0.40770  Biso   1.000  H
  H52      1.0000 0.59760  0.91730  0.43080  Biso   1.000  H
  H53      1.0000 0.36420  0.83910  0.22430  Biso   1.000  H
  H54      1.0000 0.43060  0.84890  0.27280  Biso   1.000  H
  H55      1.0000 0.49860  0.70990  0.27160  Biso   1.000  H
  H56      1.0000 0.43690  0.70510  0.22280  Biso   1.000  H
  H57      1.0000 0.54510  0.58770  0.35770  Biso   1.000  H
  H58      1.0000 0.51680  0.65840  0.33300  Biso   1.000  H
  H59      1.0000 0.60000  0.72720  0.40850  Biso   1.000  H
  H60      1.0000 0.62800  0.65420  0.43110  Biso   1.000  H
  H61      1.0000 0.80220  0.07320  0.52230  Biso   1.000  H
  H62      1.0000 0.87200  0.08900  0.47650  Biso   1.000  H
  H63      1.0000 0.12890  0.05070  0.51210  Biso   1.000  H
  H64      1.0000 0.04900  0.03250  0.55660  Biso   1.000  H
  H65      1.0000 0.78830  0.17070  0.37020  Biso   1.000  H
  H66      1.0000 0.87210  0.13090  0.40750  Biso   1.000  H
  H67      1.0000 0.11960  0.17680  0.36990  Biso   1.000  H
  H68      1.0000 0.02730  0.21680  0.33480  Biso   1.000  H
  H69      1.0000 0.47560  0.03320  0.46510  Biso   1.000  H
  H70      1.0000 0.32120  0.05760  0.47340  Biso   1.000  H
  H71      1.0000 0.30830  0.09930  0.38620  Biso   1.000  H
  H72      1.0000 0.46530  0.07470  0.38040  Biso   1.000  H
  H73      1.0000 0.43940  0.51760  0.85370  Biso   1.000  H
  H74      1.0000 0.46240  0.58830  0.82840  Biso   1.000  H
  H75      1.0000 0.42350  0.65520  0.90770  Biso   1.000  H
  H76      1.0000 0.40240  0.58270  0.93080  Biso   1.000  H
  H77      1.0000 0.63580  0.66090  0.72430  Biso   1.000  H
  H78      1.0000 0.56940  0.65110  0.77280  Biso   1.000  H
  H79      1.0000 0.50140  0.79010  0.77160  Biso   1.000  H
  H80      1.0000 0.56310  0.79490  0.72280  Biso   1.000  H
  H81      1.0000 0.45490  0.91230  0.85770  Biso   1.000  H
  H82      1.0000 0.48320  0.84160  0.83300  Biso   1.000  H
  H83      1.0000 0.40000  0.77280  0.90850  Biso   1.000  H
  H84      1.0000 0.37200  0.84580  0.93110  Biso   1.000  H
  H85      1.0000 0.19780  0.42680  0.02230  Biso   1.000  H
  H86      1.0000 0.12800  0.41100  0.97650  Biso   1.000  H
  H87      1.0000 0.87110  0.44930  0.01210  Biso   1.000  H
  H88      1.0000 0.95100  0.46750  0.05660  Biso   1.000  H
  H89      1.0000 0.21170  0.32930  0.87020  Biso   1.000  H
  H90      1.0000 0.12790  0.36910  0.90750  Biso   1.000  H
  H91      1.0000 0.88040  0.32320  0.86990  Biso   1.000  H
  H92      1.0000 0.97270  0.28320  0.83480  Biso   1.000  H
  H93      1.0000 0.52440  0.46680  0.96510  Biso   1.000  H
  H94      1.0000 0.67880  0.44240  0.97340  Biso   1.000  H
  H95      1.0000 0.69170  0.40070  0.88620  Biso   1.000  H
  H96      1.0000 0.53470  0.42530  0.88040  Biso   1.000  H
  C1       1.0000 0.06460  0.04610  0.13516  Biso   1.000  C
  C2       1.0000 0.05060  0.08820  0.15046  Biso   1.000  C
  C3       1.0000 0.05570  0.12970  0.13463  Biso   1.000  C
  C4       1.0000 0.07330  0.12720  0.10402  Biso   1.000  C
  C5       1.0000 0.08630  0.08380  0.09044  Biso   1.000  C
  C6       1.0000 0.04290  0.17590  0.14995  Biso   1.000  C
  C7       1.0000 0.00450  0.21720  0.19114  Biso   1.000  C
  C8       1.0000 0.04340  0.25450  0.14817  Biso   1.000  C
  C9       1.0000 0.89220  0.18720  0.26581  Biso   1.000  C
  C10      1.0000 0.93100  0.18100  0.23679  Biso   1.000  C
  C11      1.0000 0.96980  0.22000  0.22264  Biso   1.000  C
  C12      1.0000 0.97170  0.26300  0.23782  Biso   1.000  C
  C13      1.0000 0.93380  0.26580  0.26668  Biso   1.000  C
  C14      1.0000 0.05830  0.38360  0.13204  Biso   1.000  C
  C15      1.0000 0.04080  0.34160  0.14684  Biso   1.000  C
  C16      1.0000 0.05840  0.29980  0.13212  Biso   1.000  C
  C17      1.0000 0.08980  0.30100  0.10253  Biso   1.000  C
  C18      1.0000 0.10630  0.34470  0.08924  Biso   1.000  C
  C19      1.0000 0.36980  0.93110  0.97973  Biso   1.000  C
  C20      1.0000 0.41060  0.92120  0.00701  Biso   1.000  C
  C21      1.0000 0.50920  0.92640  0.01034  Biso   1.000  C
  C22      1.0000 0.56140  0.94410  0.98621  Biso   1.000  C
  C23      1.0000 0.51350  0.95430  0.95970  Biso   1.000  C
  C24      1.0000 0.55990  0.91200  0.03825  Biso   1.000  C
  C25      1.0000 0.55890  0.87450  0.08283  Biso   1.000  C
  C26      1.0000 0.69540  0.90650  0.06528  Biso   1.000  C
  C27      1.0000 0.35670  0.82750  0.12956  Biso   1.000  C
  C28      1.0000 0.40570  0.85140  0.10737  Biso   1.000  C
  C29      1.0000 0.50460  0.84900  0.10713  Biso   1.000  C
  C30      1.0000 0.55120  0.82430  0.12924  Biso   1.000  C
  C31      1.0000 0.49550  0.80120  0.15007  Biso   1.000  C
  C32      1.0000 0.94060  0.95340  0.05121  Biso   1.000  C
  C33      1.0000 0.84930  0.93910  0.04615  Biso   1.000  C
  C34      1.0000 0.79710  0.91970  0.06975  Biso   1.000  C
  C35      1.0000 0.84170  0.91450  0.09724  Biso   1.000  C
  C36      1.0000 0.93460  0.92940  0.10059  Biso   1.000  C
  C37      1.0000 0.93540  0.45390  0.63516  Biso   1.000  C
  C38      1.0000 0.94940  0.41180  0.65046  Biso   1.000  C
  C39      1.0000 0.94430  0.37030  0.63463  Biso   1.000  C
  C40      1.0000 0.92670  0.37280  0.60402  Biso   1.000  C
  C41      1.0000 0.91370  0.41620  0.59044  Biso   1.000  C
  C42      1.0000 0.95710  0.32410  0.64995  Biso   1.000  C
  C43      1.0000 0.99550  0.28280  0.69114  Biso   1.000  C
  C44      1.0000 0.95660  0.24550  0.64817  Biso   1.000  C
  C45      1.0000 0.10780  0.31280  0.76581  Biso   1.000  C
  C46      1.0000 0.06900  0.31900  0.73679  Biso   1.000  C
  C47      1.0000 0.03020  0.28000  0.72264  Biso   1.000  C
  C48      1.0000 0.02830  0.23700  0.73782  Biso   1.000  C
  C49      1.0000 0.06620  0.23420  0.76668  Biso   1.000  C
  C50      1.0000 0.94170  0.11640  0.63204  Biso   1.000  C
  C51      1.0000 0.95920  0.15840  0.64684  Biso   1.000  C
  C52      1.0000 0.94160  0.20020  0.63212  Biso   1.000  C
  C53      1.0000 0.91020  0.19900  0.60253  Biso   1.000  C
  C54      1.0000 0.89370  0.15530  0.58924  Biso   1.000  C
  C55      1.0000 0.63020  0.56890  0.47973  Biso   1.000  C
  C56      1.0000 0.58940  0.57880  0.50701  Biso   1.000  C
  C57      1.0000 0.49080  0.57360  0.51034  Biso   1.000  C
  C58      1.0000 0.43860  0.55590  0.48621  Biso   1.000  C
  C59      1.0000 0.48650  0.54570  0.45970  Biso   1.000  C
  C60      1.0000 0.44010  0.58800  0.53825  Biso   1.000  C
  C61      1.0000 0.44110  0.62550  0.58283  Biso   1.000  C
  C62      1.0000 0.30460  0.59350  0.56528  Biso   1.000  C
  C63      1.0000 0.64330  0.67250  0.62956  Biso   1.000  C
  C64      1.0000 0.59430  0.64860  0.60737  Biso   1.000  C
  C65      1.0000 0.49540  0.65100  0.60713  Biso   1.000  C
  C66      1.0000 0.44880  0.67570  0.62924  Biso   1.000  C
  C67      1.0000 0.50450  0.69880  0.65007  Biso   1.000  C
  C68      1.0000 0.05940  0.54660  0.55121  Biso   1.000  C
  C69      1.0000 0.15070  0.56090  0.54615  Biso   1.000  C
  C70      1.0000 0.20290  0.58030  0.56975  Biso   1.000  C
  C71      1.0000 0.15830  0.58550  0.59724  Biso   1.000  C
  C72      1.0000 0.06540  0.57060  0.60059  Biso   1.000  C
  C73      1.0000 0.56460  0.95390  0.36484  Biso   1.000  C
  C74      1.0000 0.55060  0.91180  0.34954  Biso   1.000  C
  C75      1.0000 0.55570  0.87030  0.36537  Biso   1.000  C
  C76      1.0000 0.57330  0.87280  0.39598  Biso   1.000  C
  C77      1.0000 0.58630  0.91620  0.40956  Biso   1.000  C
  C78      1.0000 0.54290  0.82410  0.35005  Biso   1.000  C
  C79      1.0000 0.50450  0.78280  0.30886  Biso   1.000  C
  C80      1.0000 0.54340  0.74550  0.35183  Biso   1.000  C
  C81      1.0000 0.39220  0.81280  0.23419  Biso   1.000  C
  C82      1.0000 0.43100  0.81900  0.26321  Biso   1.000  C
  C83      1.0000 0.46980  0.78000  0.27736  Biso   1.000  C
  C84      1.0000 0.47170  0.73700  0.26218  Biso   1.000  C
  C85      1.0000 0.43380  0.73420  0.23332  Biso   1.000  C
  C86      1.0000 0.55830  0.61640  0.36796  Biso   1.000  C
  C87      1.0000 0.54080  0.65840  0.35316  Biso   1.000  C
  C88      1.0000 0.55840  0.70020  0.36788  Biso   1.000  C
  C89      1.0000 0.58980  0.69900  0.39747  Biso   1.000  C
  C90      1.0000 0.60630  0.65530  0.41076  Biso   1.000  C
  C91      1.0000 0.86980  0.06890  0.52027  Biso   1.000  C
  C92      1.0000 0.91060  0.07880  0.49299  Biso   1.000  C
  C93      1.0000 0.00920  0.07360  0.48966  Biso   1.000  C
  C94      1.0000 0.06140  0.05590  0.51379  Biso   1.000  C
  C95      1.0000 0.01350  0.04570  0.54030  Biso   1.000  C
  C96      1.0000 0.05990  0.08800  0.46175  Biso   1.000  C
  C97      1.0000 0.05890  0.12550  0.41717  Biso   1.000  C
  C98      1.0000 0.19540  0.09350  0.43472  Biso   1.000  C
  C99      1.0000 0.85670  0.17250  0.37044  Biso   1.000  C
  C100     1.0000 0.90570  0.14860  0.39263  Biso   1.000  C
  C101     1.0000 0.00460  0.15100  0.39287  Biso   1.000  C
  C102     1.0000 0.05120  0.17570  0.37076  Biso   1.000  C
  C103     1.0000 0.99550  0.19880  0.34993  Biso   1.000  C
  C104     1.0000 0.44060  0.04660  0.44879  Biso   1.000  C
  C105     1.0000 0.34930  0.06090  0.45385  Biso   1.000  C
  C106     1.0000 0.29710  0.08030  0.43025  Biso   1.000  C
  C107     1.0000 0.34170  0.08550  0.40276  Biso   1.000  C
  C108     1.0000 0.43460  0.07060  0.39941  Biso   1.000  C
  C109     1.0000 0.43540  0.54610  0.86484  Biso   1.000  C
  C110     1.0000 0.44940  0.58820  0.84954  Biso   1.000  C
  C111     1.0000 0.44430  0.62970  0.86537  Biso   1.000  C
  C112     1.0000 0.42670  0.62720  0.89598  Biso   1.000  C
  C113     1.0000 0.41370  0.58380  0.90956  Biso   1.000  C
  C114     1.0000 0.45710  0.67590  0.85005  Biso   1.000  C
  C115     1.0000 0.49550  0.71720  0.80886  Biso   1.000  C
  C116     1.0000 0.45660  0.75450  0.85183  Biso   1.000  C
  C117     1.0000 0.60780  0.68720  0.73419  Biso   1.000  C
  C118     1.0000 0.56900  0.68100  0.76321  Biso   1.000  C
  C119     1.0000 0.53020  0.72000  0.77736  Biso   1.000  C
  C120     1.0000 0.52830  0.76300  0.76218  Biso   1.000  C
  C121     1.0000 0.56620  0.76580  0.73332  Biso   1.000  C
  C122     1.0000 0.44170  0.88360  0.86796  Biso   1.000  C
  C123     1.0000 0.45920  0.84160  0.85316  Biso   1.000  C
  C124     1.0000 0.44160  0.79980  0.86788  Biso   1.000  C
  C125     1.0000 0.41020  0.80100  0.89747  Biso   1.000  C
  C126     1.0000 0.39370  0.84470  0.91076  Biso   1.000  C
  C127     1.0000 0.13020  0.43110  0.02027  Biso   1.000  C
  C128     1.0000 0.08940  0.42120  0.99299  Biso   1.000  C
  C129     1.0000 0.99080  0.42640  0.98966  Biso   1.000  C
  C130     1.0000 0.93860  0.44410  0.01379  Biso   1.000  C
  C131     1.0000 0.98650  0.45430  0.04030  Biso   1.000  C
  C132     1.0000 0.94010  0.41200  0.96175  Biso   1.000  C
  C133     1.0000 0.94110  0.37450  0.91717  Biso   1.000  C
  C134     1.0000 0.80460  0.40650  0.93472  Biso   1.000  C
  C135     1.0000 0.14330  0.32750  0.87044  Biso   1.000  C
  C136     1.0000 0.09430  0.35140  0.89263  Biso   1.000  C
  C137     1.0000 0.99540  0.34900  0.89287  Biso   1.000  C
  C138     1.0000 0.94880  0.32430  0.87076  Biso   1.000  C
  C139     1.0000 0.00450  0.30120  0.84993  Biso   1.000  C
  C140     1.0000 0.55940  0.45340  0.94879  Biso   1.000  C
  C141     1.0000 0.65070  0.43910  0.95385  Biso   1.000  C
  C142     1.0000 0.70290  0.41970  0.93025  Biso   1.000  C
  C143     1.0000 0.65830  0.41450  0.90276  Biso   1.000  C
  C144     1.0000 0.56540  0.42940  0.89941  Biso   1.000  C
  I1       1.0000 0.19905  0.93226  0.12651  Biso   1.000  I
  I2       1.0000 0.19328  0.99703  0.03486  Biso   1.000  I
  I3       1.0000 0.31963  0.44193  0.08285  Biso   1.000  I
  I4       1.0000 0.05184  0.51202  0.11700  Biso   1.000  I
  I5       1.0000 0.65713  0.19488  0.31350  Biso   1.000  I
  I6       1.0000 0.82079  0.32275  0.33455  Biso   1.000  I
  I7       1.0000 0.80095  0.56774  0.62651  Biso   1.000  I
  I8       1.0000 0.80672  0.50297  0.53486  Biso   1.000  I
  I9       1.0000 0.68037  0.05807  0.58285  Biso   1.000  I
  I10      1.0000 0.94816  0.98798  0.61700  Biso   1.000  I
  I11      1.0000 0.34287  0.30512  0.81350  Biso   1.000  I
  I12      1.0000 0.17921  0.17725  0.83455  Biso   1.000  I
  I13      1.0000 0.69905  0.06774  0.37349  Biso   1.000  I
  I14      1.0000 0.69328  0.00297  0.46514  Biso   1.000  I
  I15      1.0000 0.81963  0.55807  0.41715  Biso   1.000  I
  I16      1.0000 0.55184  0.48798  0.38300  Biso   1.000  I
  I17      1.0000 0.15713  0.80512  0.18650  Biso   1.000  I
  I18      1.0000 0.32079  0.67725  0.16545  Biso   1.000  I
  I19      1.0000 0.30095  0.43226  0.87349  Biso   1.000  I
  I20      1.0000 0.30672  0.49703  0.96514  Biso   1.000  I
  I21      1.0000 0.18037  0.94193  0.91715  Biso   1.000  I
  I22      1.0000 0.44816  0.01202  0.88300  Biso   1.000  I
  I23      1.0000 0.84287  0.69488  0.68650  Biso   1.000  I
  I24      1.0000 0.67921  0.82275  0.66545  Biso   1.000  I
  N1       1.0000 0.08350  0.04355  0.10580  Biso   1.000  N
  N2       1.0000 0.01660  0.17475  0.17893  Biso   1.000  N
  N3       1.0000 0.05730  0.21417  0.13333  Biso   1.000  N
  N4       1.0000 0.01700  0.25789  0.17703  Biso   1.000  N
  N5       1.0000 0.89290  0.22865  0.28018  Biso   1.000  N
  N6       1.0000 0.09280  0.38542  0.10398  Biso   1.000  N
  N7       1.0000 0.41870  0.94633  0.95590  Biso   1.000  N
  N8       1.0000 0.50840  0.88891  0.05901  Biso   1.000  N
  N9       1.0000 0.65250  0.92272  0.04056  Biso   1.000  N
  N10      1.0000 0.65280  0.88086  0.08713  Biso   1.000  N
  N11      1.0000 0.39980  0.80233  0.15040  Biso   1.000  N
  N12      1.0000 0.98420  0.94972  0.07809  Biso   1.000  N
  N13      1.0000 0.91650  0.45645  0.60580  Biso   1.000  N
  N14      1.0000 0.98340  0.32525  0.67893  Biso   1.000  N
  N15      1.0000 0.94270  0.28583  0.63333  Biso   1.000  N
  N16      1.0000 0.98300  0.24211  0.67703  Biso   1.000  N
  N17      1.0000 0.10710  0.27135  0.78018  Biso   1.000  N
  N18      1.0000 0.90720  0.11458  0.60398  Biso   1.000  N
  N19      1.0000 0.58130  0.55367  0.45590  Biso   1.000  N
  N20      1.0000 0.49160  0.61109  0.55901  Biso   1.000  N
  N21      1.0000 0.34750  0.57728  0.54056  Biso   1.000  N
  N22      1.0000 0.34720  0.61914  0.58713  Biso   1.000  N
  N23      1.0000 0.60020  0.69767  0.65040  Biso   1.000  N
  N24      1.0000 0.01580  0.55028  0.57809  Biso   1.000  N
  N25      1.0000 0.58350  0.95645  0.39420  Biso   1.000  N
  N26      1.0000 0.51660  0.82525  0.32107  Biso   1.000  N
  N27      1.0000 0.55730  0.78583  0.36667  Biso   1.000  N
  N28      1.0000 0.51700  0.74211  0.32297  Biso   1.000  N
  N29      1.0000 0.39290  0.77135  0.21982  Biso   1.000  N
  N30      1.0000 0.59280  0.61458  0.39602  Biso   1.000  N
  N31      1.0000 0.91870  0.05367  0.54410  Biso   1.000  N
  N32      1.0000 0.00840  0.11109  0.44099  Biso   1.000  N
  N33      1.0000 0.15250  0.07728  0.45944  Biso   1.000  N
  N34      1.0000 0.15280  0.11914  0.41287  Biso   1.000  N
  N35      1.0000 0.89980  0.19767  0.34960  Biso   1.000  N
  N36      1.0000 0.48420  0.05028  0.42191  Biso   1.000  N
  N37      1.0000 0.41650  0.54355  0.89420  Biso   1.000  N
  N38      1.0000 0.48340  0.67475  0.82107  Biso   1.000  N
  N39      1.0000 0.44270  0.71417  0.86667  Biso   1.000  N
  N40      1.0000 0.48300  0.75789  0.82297  Biso   1.000  N
  N41      1.0000 0.60710  0.72865  0.71982  Biso   1.000  N
  N42      1.0000 0.40720  0.88542  0.89602  Biso   1.000  N
  N43      1.0000 0.08130  0.44633  0.04410  Biso   1.000  N
  N44      1.0000 0.99160  0.38891  0.94099  Biso   1.000  N
  N45      1.0000 0.84750  0.42272  0.95944  Biso   1.000  N
  N46      1.0000 0.84720  0.38086  0.91287  Biso   1.000  N
  N47      1.0000 0.10020  0.30233  0.84960  Biso   1.000  N
  N48      1.0000 0.51580  0.44972  0.92191  Biso   1.000  N
  Zn13     1.0000 0.88408  0.01995  0.91388  Biso   1.000  Zn
  Zn14     1.0000 0.86151  0.55070  0.91318  Biso   1.000  Zn
  Zn15     1.0000 0.18164  0.76357  0.68028  Biso   1.000  Zn
  Zn16     1.0000 0.11592  0.48005  0.41388  Biso   1.000  Zn
  Zn17     1.0000 0.13849  0.94930  0.41318  Biso   1.000  Zn
  Zn18     1.0000 0.81836  0.73643  0.18028  Biso   1.000  Zn
  Zn19     1.0000 0.38408  0.98005  0.58612  Biso   1.000  Zn
  Zn20     1.0000 0.36151  0.44930  0.58682  Biso   1.000  Zn
  Zn21     1.0000 0.68164  0.23643  0.81972  Biso   1.000  Zn
  Zn22     1.0000 0.61592  0.51995  0.08612  Biso   1.000  Zn
  Zn23     1.0000 0.63849  0.05070  0.08682  Biso   1.000  Zn
  Zn24     1.0000 0.31836  0.26357  0.31972  Biso   1.000  Zn
  H97      1.0000 0.93940  0.98240  0.85370  Biso   1.000  H
  H98      1.0000 0.96240  0.91170  0.82840  Biso   1.000  H
  H99      1.0000 0.92350  0.84480  0.90770  Biso   1.000  H
  H100     1.0000 0.90240  0.91730  0.93080  Biso   1.000  H
  H101     1.0000 0.13580  0.83910  0.72430  Biso   1.000  H
  H102     1.0000 0.06940  0.84890  0.77280  Biso   1.000  H
  H103     1.0000 0.00140  0.70990  0.77160  Biso   1.000  H
  H104     1.0000 0.06310  0.70510  0.72280  Biso   1.000  H
  H105     1.0000 0.95490  0.58770  0.85770  Biso   1.000  H
  H106     1.0000 0.98320  0.65840  0.83300  Biso   1.000  H
  H107     1.0000 0.90000  0.72720  0.90850  Biso   1.000  H
  H108     1.0000 0.87200  0.65420  0.93110  Biso   1.000  H
  H109     1.0000 0.69780  0.07320  0.02230  Biso   1.000  H
  H110     1.0000 0.62800  0.08900  0.97650  Biso   1.000  H
  H111     1.0000 0.37110  0.05070  0.01210  Biso   1.000  H
  H112     1.0000 0.45100  0.03250  0.05660  Biso   1.000  H
  H113     1.0000 0.71170  0.17070  0.87020  Biso   1.000  H
  H114     1.0000 0.62790  0.13090  0.90750  Biso   1.000  H
  H115     1.0000 0.38040  0.17680  0.86990  Biso   1.000  H
  H116     1.0000 0.47270  0.21680  0.83480  Biso   1.000  H
  H117     1.0000 0.02440  0.03320  0.96510  Biso   1.000  H
  H118     1.0000 0.17880  0.05760  0.97340  Biso   1.000  H
  H119     1.0000 0.19170  0.09930  0.88620  Biso   1.000  H
  H120     1.0000 0.03470  0.07470  0.88040  Biso   1.000  H
  H121     1.0000 0.06060  0.51760  0.35370  Biso   1.000  H
  H122     1.0000 0.03760  0.58830  0.32840  Biso   1.000  H
  H123     1.0000 0.07650  0.65520  0.40770  Biso   1.000  H
  H124     1.0000 0.09760  0.58270  0.43080  Biso   1.000  H
  H125     1.0000 0.86420  0.66090  0.22430  Biso   1.000  H
  H126     1.0000 0.93060  0.65110  0.27280  Biso   1.000  H
  H127     1.0000 0.99860  0.79010  0.27160  Biso   1.000  H
  H128     1.0000 0.93690  0.79490  0.22280  Biso   1.000  H
  H129     1.0000 0.04510  0.91230  0.35770  Biso   1.000  H
  H130     1.0000 0.01680  0.84160  0.33300  Biso   1.000  H
  H131     1.0000 0.10000  0.77280  0.40850  Biso   1.000  H
  H132     1.0000 0.12800  0.84580  0.43110  Biso   1.000  H
  H133     1.0000 0.30220  0.42680  0.52230  Biso   1.000  H
  H134     1.0000 0.37200  0.41100  0.47650  Biso   1.000  H
  H135     1.0000 0.62890  0.44930  0.51210  Biso   1.000  H
  H136     1.0000 0.54900  0.46750  0.55660  Biso   1.000  H
  H137     1.0000 0.28830  0.32930  0.37020  Biso   1.000  H
  H138     1.0000 0.37210  0.36910  0.40750  Biso   1.000  H
  H139     1.0000 0.61960  0.32320  0.36990  Biso   1.000  H
  H140     1.0000 0.52730  0.28320  0.33480  Biso   1.000  H
  H141     1.0000 0.97560  0.46680  0.46510  Biso   1.000  H
  H142     1.0000 0.82120  0.44240  0.47340  Biso   1.000  H
  H143     1.0000 0.80830  0.40070  0.38620  Biso   1.000  H
  H144     1.0000 0.96530  0.42530  0.38040  Biso   1.000  H
  H145     1.0000 0.43940  0.01760  0.64630  Biso   1.000  H
  H146     1.0000 0.46240  0.08830  0.67160  Biso   1.000  H
  H147     1.0000 0.42350  0.15520  0.59230  Biso   1.000  H
  H148     1.0000 0.40240  0.08270  0.56920  Biso   1.000  H
  H149     1.0000 0.63580  0.16090  0.77570  Biso   1.000  H
  H150     1.0000 0.56940  0.15110  0.72720  Biso   1.000  H
  H151     1.0000 0.50140  0.29010  0.72840  Biso   1.000  H
  H152     1.0000 0.56310  0.29490  0.77720  Biso   1.000  H
  H153     1.0000 0.45490  0.41230  0.64230  Biso   1.000  H
  H154     1.0000 0.48320  0.34160  0.66700  Biso   1.000  H
  H155     1.0000 0.40000  0.27280  0.59150  Biso   1.000  H
  H156     1.0000 0.37200  0.34580  0.56890  Biso   1.000  H
  H157     1.0000 0.19780  0.92680  0.47770  Biso   1.000  H
  H158     1.0000 0.12800  0.91100  0.52350  Biso   1.000  H
  H159     1.0000 0.87110  0.94930  0.48790  Biso   1.000  H
  H160     1.0000 0.95100  0.96750  0.44340  Biso   1.000  H
  H161     1.0000 0.21170  0.82930  0.62980  Biso   1.000  H
  H162     1.0000 0.12790  0.86910  0.59250  Biso   1.000  H
  H163     1.0000 0.88040  0.82320  0.63010  Biso   1.000  H
  H164     1.0000 0.97270  0.78320  0.66520  Biso   1.000  H
  H165     1.0000 0.52440  0.96680  0.53490  Biso   1.000  H
  H166     1.0000 0.67880  0.94240  0.52660  Biso   1.000  H
  H167     1.0000 0.69170  0.90070  0.61380  Biso   1.000  H
  H168     1.0000 0.53470  0.92530  0.61960  Biso   1.000  H
  H169     1.0000 0.56060  0.48240  0.14630  Biso   1.000  H
  H170     1.0000 0.53760  0.41170  0.17160  Biso   1.000  H
  H171     1.0000 0.57650  0.34480  0.09230  Biso   1.000  H
  H172     1.0000 0.59760  0.41730  0.06920  Biso   1.000  H
  H173     1.0000 0.36420  0.33910  0.27570  Biso   1.000  H
  H174     1.0000 0.43060  0.34890  0.22720  Biso   1.000  H
  H175     1.0000 0.49860  0.20990  0.22840  Biso   1.000  H
  H176     1.0000 0.43690  0.20510  0.27720  Biso   1.000  H
  H177     1.0000 0.54510  0.08770  0.14230  Biso   1.000  H
  H178     1.0000 0.51680  0.15840  0.16700  Biso   1.000  H
  H179     1.0000 0.60000  0.22720  0.09150  Biso   1.000  H
  H180     1.0000 0.62800  0.15420  0.06890  Biso   1.000  H
  H181     1.0000 0.80220  0.57320  0.97770  Biso   1.000  H
  H182     1.0000 0.87200  0.58900  0.02350  Biso   1.000  H
  H183     1.0000 0.12890  0.55070  0.98790  Biso   1.000  H
  H184     1.0000 0.04900  0.53250  0.94340  Biso   1.000  H
  H185     1.0000 0.78830  0.67070  0.12980  Biso   1.000  H
  H186     1.0000 0.87210  0.63090  0.09250  Biso   1.000  H
  H187     1.0000 0.11960  0.67680  0.13010  Biso   1.000  H
  H188     1.0000 0.02730  0.71680  0.16520  Biso   1.000  H
  H189     1.0000 0.47560  0.53320  0.03490  Biso   1.000  H
  H190     1.0000 0.32120  0.55760  0.02660  Biso   1.000  H
  H191     1.0000 0.30830  0.59930  0.11380  Biso   1.000  H
  H192     1.0000 0.46530  0.57470  0.11960  Biso   1.000  H
  C145     1.0000 0.93540  0.95390  0.86484  Biso   1.000  C
  C146     1.0000 0.94940  0.91180  0.84954  Biso   1.000  C
  C147     1.0000 0.94430  0.87030  0.86537  Biso   1.000  C
  C148     1.0000 0.92670  0.87280  0.89598  Biso   1.000  C
  C149     1.0000 0.91370  0.91620  0.90956  Biso   1.000  C
  C150     1.0000 0.95710  0.82410  0.85005  Biso   1.000  C
  C151     1.0000 0.99550  0.78280  0.80886  Biso   1.000  C
  C152     1.0000 0.95660  0.74550  0.85183  Biso   1.000  C
  C153     1.0000 0.10780  0.81280  0.73419  Biso   1.000  C
  C154     1.0000 0.06900  0.81900  0.76321  Biso   1.000  C
  C155     1.0000 0.03020  0.78000  0.77736  Biso   1.000  C
  C156     1.0000 0.02830  0.73700  0.76218  Biso   1.000  C
  C157     1.0000 0.06620  0.73420  0.73332  Biso   1.000  C
  C158     1.0000 0.94170  0.61640  0.86796  Biso   1.000  C
  C159     1.0000 0.95920  0.65840  0.85316  Biso   1.000  C
  C160     1.0000 0.94160  0.70020  0.86788  Biso   1.000  C
  C161     1.0000 0.91020  0.69900  0.89747  Biso   1.000  C
  C162     1.0000 0.89370  0.65530  0.91076  Biso   1.000  C
  C163     1.0000 0.63020  0.06890  0.02027  Biso   1.000  C
  C164     1.0000 0.58940  0.07880  0.99299  Biso   1.000  C
  C165     1.0000 0.49080  0.07360  0.98966  Biso   1.000  C
  C166     1.0000 0.43860  0.05590  0.01379  Biso   1.000  C
  C167     1.0000 0.48650  0.04570  0.04030  Biso   1.000  C
  C168     1.0000 0.44010  0.08800  0.96175  Biso   1.000  C
  C169     1.0000 0.44110  0.12550  0.91717  Biso   1.000  C
  C170     1.0000 0.30460  0.09350  0.93472  Biso   1.000  C
  C171     1.0000 0.64330  0.17250  0.87044  Biso   1.000  C
  C172     1.0000 0.59430  0.14860  0.89263  Biso   1.000  C
  C173     1.0000 0.49540  0.15100  0.89287  Biso   1.000  C
  C174     1.0000 0.44880  0.17570  0.87076  Biso   1.000  C
  C175     1.0000 0.50450  0.19880  0.84993  Biso   1.000  C
  C176     1.0000 0.05940  0.04660  0.94879  Biso   1.000  C
  C177     1.0000 0.15070  0.06090  0.95385  Biso   1.000  C
  C178     1.0000 0.20290  0.08030  0.93025  Biso   1.000  C
  C179     1.0000 0.15830  0.08550  0.90276  Biso   1.000  C
  C180     1.0000 0.06540  0.07060  0.89941  Biso   1.000  C
  C181     1.0000 0.06460  0.54610  0.36484  Biso   1.000  C
  C182     1.0000 0.05060  0.58820  0.34954  Biso   1.000  C
  C183     1.0000 0.05570  0.62970  0.36537  Biso   1.000  C
  C184     1.0000 0.07330  0.62720  0.39598  Biso   1.000  C
  C185     1.0000 0.08630  0.58380  0.40956  Biso   1.000  C
  C186     1.0000 0.04290  0.67590  0.35005  Biso   1.000  C
  C187     1.0000 0.00450  0.71720  0.30886  Biso   1.000  C
  C188     1.0000 0.04340  0.75450  0.35183  Biso   1.000  C
  C189     1.0000 0.89220  0.68720  0.23419  Biso   1.000  C
  C190     1.0000 0.93100  0.68100  0.26321  Biso   1.000  C
  C191     1.0000 0.96980  0.72000  0.27736  Biso   1.000  C
  C192     1.0000 0.97170  0.76300  0.26218  Biso   1.000  C
  C193     1.0000 0.93380  0.76580  0.23332  Biso   1.000  C
  C194     1.0000 0.05830  0.88360  0.36796  Biso   1.000  C
  C195     1.0000 0.04080  0.84160  0.35316  Biso   1.000  C
  C196     1.0000 0.05840  0.79980  0.36788  Biso   1.000  C
  C197     1.0000 0.08980  0.80100  0.39747  Biso   1.000  C
  C198     1.0000 0.10630  0.84470  0.41076  Biso   1.000  C
  C199     1.0000 0.36980  0.43110  0.52027  Biso   1.000  C
  C200     1.0000 0.41060  0.42120  0.49299  Biso   1.000  C
  C201     1.0000 0.50920  0.42640  0.48966  Biso   1.000  C
  C202     1.0000 0.56140  0.44410  0.51379  Biso   1.000  C
  C203     1.0000 0.51350  0.45430  0.54030  Biso   1.000  C
  C204     1.0000 0.55990  0.41200  0.46175  Biso   1.000  C
  C205     1.0000 0.55890  0.37450  0.41717  Biso   1.000  C
  C206     1.0000 0.69540  0.40650  0.43472  Biso   1.000  C
  C207     1.0000 0.35670  0.32750  0.37044  Biso   1.000  C
  C208     1.0000 0.40570  0.35140  0.39263  Biso   1.000  C
  C209     1.0000 0.50460  0.34900  0.39287  Biso   1.000  C
  C210     1.0000 0.55120  0.32430  0.37076  Biso   1.000  C
  C211     1.0000 0.49550  0.30120  0.34993  Biso   1.000  C
  C212     1.0000 0.94060  0.45340  0.44879  Biso   1.000  C
  C213     1.0000 0.84930  0.43910  0.45385  Biso   1.000  C
  C214     1.0000 0.79710  0.41970  0.43025  Biso   1.000  C
  C215     1.0000 0.84170  0.41450  0.40276  Biso   1.000  C
  C216     1.0000 0.93460  0.42940  0.39941  Biso   1.000  C
  C217     1.0000 0.43540  0.04610  0.63516  Biso   1.000  C
  C218     1.0000 0.44940  0.08820  0.65046  Biso   1.000  C
  C219     1.0000 0.44430  0.12970  0.63463  Biso   1.000  C
  C220     1.0000 0.42670  0.12720  0.60402  Biso   1.000  C
  C221     1.0000 0.41370  0.08380  0.59044  Biso   1.000  C
  C222     1.0000 0.45710  0.17590  0.64995  Biso   1.000  C
  C223     1.0000 0.49550  0.21720  0.69114  Biso   1.000  C
  C224     1.0000 0.45660  0.25450  0.64817  Biso   1.000  C
  C225     1.0000 0.60780  0.18720  0.76581  Biso   1.000  C
  C226     1.0000 0.56900  0.18100  0.73679  Biso   1.000  C
  C227     1.0000 0.53020  0.22000  0.72264  Biso   1.000  C
  C228     1.0000 0.52830  0.26300  0.73782  Biso   1.000  C
  C229     1.0000 0.56620  0.26580  0.76668  Biso   1.000  C
  C230     1.0000 0.44170  0.38360  0.63204  Biso   1.000  C
  C231     1.0000 0.45920  0.34160  0.64684  Biso   1.000  C
  C232     1.0000 0.44160  0.29980  0.63212  Biso   1.000  C
  C233     1.0000 0.41020  0.30100  0.60253  Biso   1.000  C
  C234     1.0000 0.39370  0.34470  0.58924  Biso   1.000  C
  C235     1.0000 0.13020  0.93110  0.47973  Biso   1.000  C
  C236     1.0000 0.08940  0.92120  0.50701  Biso   1.000  C
  C237     1.0000 0.99080  0.92640  0.51034  Biso   1.000  C
  C238     1.0000 0.93860  0.94410  0.48621  Biso   1.000  C
  C239     1.0000 0.98650  0.95430  0.45970  Biso   1.000  C
  C240     1.0000 0.94010  0.91200  0.53825  Biso   1.000  C
  C241     1.0000 0.94110  0.87450  0.58283  Biso   1.000  C
  C242     1.0000 0.80460  0.90650  0.56528  Biso   1.000  C
  C243     1.0000 0.14330  0.82750  0.62956  Biso   1.000  C
  C244     1.0000 0.09430  0.85140  0.60737  Biso   1.000  C
  C245     1.0000 0.99540  0.84900  0.60713  Biso   1.000  C
  C246     1.0000 0.94880  0.82430  0.62924  Biso   1.000  C
  C247     1.0000 0.00450  0.80120  0.65007  Biso   1.000  C
  C248     1.0000 0.55940  0.95340  0.55121  Biso   1.000  C
  C249     1.0000 0.65070  0.93910  0.54615  Biso   1.000  C
  C250     1.0000 0.70290  0.91970  0.56975  Biso   1.000  C
  C251     1.0000 0.65830  0.91450  0.59724  Biso   1.000  C
  C252     1.0000 0.56540  0.92940  0.60059  Biso   1.000  C
  C253     1.0000 0.56460  0.45390  0.13516  Biso   1.000  C
  C254     1.0000 0.55060  0.41180  0.15046  Biso   1.000  C
  C255     1.0000 0.55570  0.37030  0.13463  Biso   1.000  C
  C256     1.0000 0.57330  0.37280  0.10402  Biso   1.000  C
  C257     1.0000 0.58630  0.41620  0.09044  Biso   1.000  C
  C258     1.0000 0.54290  0.32410  0.14995  Biso   1.000  C
  C259     1.0000 0.50450  0.28280  0.19114  Biso   1.000  C
  C260     1.0000 0.54340  0.24550  0.14817  Biso   1.000  C
  C261     1.0000 0.39220  0.31280  0.26581  Biso   1.000  C
  C262     1.0000 0.43100  0.31900  0.23679  Biso   1.000  C
  C263     1.0000 0.46980  0.28000  0.22264  Biso   1.000  C
  C264     1.0000 0.47170  0.23700  0.23782  Biso   1.000  C
  C265     1.0000 0.43380  0.23420  0.26668  Biso   1.000  C
  C266     1.0000 0.55830  0.11640  0.13204  Biso   1.000  C
  C267     1.0000 0.54080  0.15840  0.14684  Biso   1.000  C
  C268     1.0000 0.55840  0.20020  0.13212  Biso   1.000  C
  C269     1.0000 0.58980  0.19900  0.10253  Biso   1.000  C
  C270     1.0000 0.60630  0.15530  0.08924  Biso   1.000  C
  C271     1.0000 0.86980  0.56890  0.97973  Biso   1.000  C
  C272     1.0000 0.91060  0.57880  0.00701  Biso   1.000  C
  C273     1.0000 0.00920  0.57360  0.01034  Biso   1.000  C
  C274     1.0000 0.06140  0.55590  0.98621  Biso   1.000  C
  C275     1.0000 0.01350  0.54570  0.95970  Biso   1.000  C
  C276     1.0000 0.05990  0.58800  0.03825  Biso   1.000  C
  C277     1.0000 0.05890  0.62550  0.08283  Biso   1.000  C
  C278     1.0000 0.19540  0.59350  0.06528  Biso   1.000  C
  C279     1.0000 0.85670  0.67250  0.12956  Biso   1.000  C
  C280     1.0000 0.90570  0.64860  0.10737  Biso   1.000  C
  C281     1.0000 0.00460  0.65100  0.10713  Biso   1.000  C
  C282     1.0000 0.05120  0.67570  0.12924  Biso   1.000  C
  C283     1.0000 0.99550  0.69880  0.15007  Biso   1.000  C
  C284     1.0000 0.44060  0.54660  0.05121  Biso   1.000  C
  C285     1.0000 0.34930  0.56090  0.04615  Biso   1.000  C
  C286     1.0000 0.29710  0.58030  0.06975  Biso   1.000  C
  C287     1.0000 0.34170  0.58550  0.09724  Biso   1.000  C
  C288     1.0000 0.43460  0.57060  0.10059  Biso   1.000  C
  I25      1.0000 0.80095  0.06774  0.87349  Biso   1.000  I
  I26      1.0000 0.80672  0.00297  0.96514  Biso   1.000  I
  I27      1.0000 0.68037  0.55807  0.91715  Biso   1.000  I
  I28      1.0000 0.94816  0.48798  0.88300  Biso   1.000  I
  I29      1.0000 0.34287  0.80512  0.68650  Biso   1.000  I
  I30      1.0000 0.17921  0.67725  0.66545  Biso   1.000  I
  I31      1.0000 0.19905  0.43226  0.37349  Biso   1.000  I
  I32      1.0000 0.19328  0.49703  0.46514  Biso   1.000  I
  I33      1.0000 0.31963  0.94193  0.41715  Biso   1.000  I
  I34      1.0000 0.05184  0.01202  0.38300  Biso   1.000  I
  I35      1.0000 0.65713  0.69488  0.18650  Biso   1.000  I
  I36      1.0000 0.82079  0.82275  0.16545  Biso   1.000  I
  I37      1.0000 0.30095  0.93226  0.62651  Biso   1.000  I
  I38      1.0000 0.30672  0.99703  0.53486  Biso   1.000  I
  I39      1.0000 0.18037  0.44193  0.58285  Biso   1.000  I
  I40      1.0000 0.44816  0.51202  0.61700  Biso   1.000  I
  I41      1.0000 0.84287  0.19488  0.81350  Biso   1.000  I
  I42      1.0000 0.67921  0.32275  0.83455  Biso   1.000  I
  I43      1.0000 0.69905  0.56774  0.12651  Biso   1.000  I
  I44      1.0000 0.69328  0.50297  0.03486  Biso   1.000  I
  I45      1.0000 0.81963  0.05807  0.08285  Biso   1.000  I
  I46      1.0000 0.55184  0.98798  0.11700  Biso   1.000  I
  I47      1.0000 0.15713  0.30512  0.31350  Biso   1.000  I
  I48      1.0000 0.32079  0.17725  0.33455  Biso   1.000  I
  N49      1.0000 0.91650  0.95645  0.89420  Biso   1.000  N
  N50      1.0000 0.98340  0.82525  0.82107  Biso   1.000  N
  N51      1.0000 0.94270  0.78583  0.86667  Biso   1.000  N
  N52      1.0000 0.98300  0.74211  0.82297  Biso   1.000  N
  N53      1.0000 0.10710  0.77135  0.71982  Biso   1.000  N
  N54      1.0000 0.90720  0.61458  0.89602  Biso   1.000  N
  N55      1.0000 0.58130  0.05367  0.04410  Biso   1.000  N
  N56      1.0000 0.49160  0.11109  0.94099  Biso   1.000  N
  N57      1.0000 0.34750  0.07728  0.95944  Biso   1.000  N
  N58      1.0000 0.34720  0.11914  0.91287  Biso   1.000  N
  N59      1.0000 0.60020  0.19767  0.84960  Biso   1.000  N
  N60      1.0000 0.01580  0.05028  0.92191  Biso   1.000  N
  N61      1.0000 0.08350  0.54355  0.39420  Biso   1.000  N
  N62      1.0000 0.01660  0.67475  0.32107  Biso   1.000  N
  N63      1.0000 0.05730  0.71417  0.36667  Biso   1.000  N
  N64      1.0000 0.01700  0.75789  0.32297  Biso   1.000  N
  N65      1.0000 0.89290  0.72865  0.21982  Biso   1.000  N
  N66      1.0000 0.09280  0.88542  0.39602  Biso   1.000  N
  N67      1.0000 0.41870  0.44633  0.54410  Biso   1.000  N
  N68      1.0000 0.50840  0.38891  0.44099  Biso   1.000  N
  N69      1.0000 0.65250  0.42272  0.45944  Biso   1.000  N
  N70      1.0000 0.65280  0.38086  0.41287  Biso   1.000  N
  N71      1.0000 0.39980  0.30233  0.34960  Biso   1.000  N
  N72      1.0000 0.98420  0.44972  0.42191  Biso   1.000  N
  N73      1.0000 0.41650  0.04355  0.60580  Biso   1.000  N
  N74      1.0000 0.48340  0.17475  0.67893  Biso   1.000  N
  N75      1.0000 0.44270  0.21417  0.63333  Biso   1.000  N
  N76      1.0000 0.48300  0.25789  0.67703  Biso   1.000  N
  N77      1.0000 0.60710  0.22865  0.78018  Biso   1.000  N
  N78      1.0000 0.40720  0.38542  0.60398  Biso   1.000  N
  N79      1.0000 0.08130  0.94633  0.45590  Biso   1.000  N
  N80      1.0000 0.99160  0.88891  0.55901  Biso   1.000  N
  N81      1.0000 0.84750  0.92272  0.54056  Biso   1.000  N
  N82      1.0000 0.84720  0.88086  0.58713  Biso   1.000  N
  N83      1.0000 0.10020  0.80233  0.65040  Biso   1.000  N
  N84      1.0000 0.51580  0.94972  0.57809  Biso   1.000  N
  N85      1.0000 0.58350  0.45645  0.10580  Biso   1.000  N
  N86      1.0000 0.51660  0.32525  0.17893  Biso   1.000  N
  N87      1.0000 0.55730  0.28583  0.13333  Biso   1.000  N
  N88      1.0000 0.51700  0.24211  0.17703  Biso   1.000  N
  N89      1.0000 0.39290  0.27135  0.28018  Biso   1.000  N
  N90      1.0000 0.59280  0.11458  0.10398  Biso   1.000  N
  N91      1.0000 0.91870  0.55367  0.95590  Biso   1.000  N
  N92      1.0000 0.00840  0.61109  0.05901  Biso   1.000  N
  N93      1.0000 0.15250  0.57728  0.04056  Biso   1.000  N
  N94      1.0000 0.15280  0.61914  0.08713  Biso   1.000  N
  N95      1.0000 0.89980  0.69767  0.15040  Biso   1.000  N
  N96      1.0000 0.48420  0.55028  0.07809  Biso   1.000  N
