data_image0
_cell_length_a       14.012
_cell_length_b       28.28
_cell_length_c       44.907
_cell_angle_alpha    90
_cell_angle_beta     90
_cell_angle_gamma    90

_symmetry_space_group_name_H-M    P 1
_symmetry_int_tables_number       1

loop_
  _symmetry_equiv_pos_as_xyz
  'x, y, z'

loop_
  _atom_site_label
  _atom_site_occupancy
  _atom_site_fract_x
  _atom_site_fract_y
  _atom_site_fract_z
  _atom_site_thermal_displace_type
  _atom_site_B_iso_or_equiv
  _atom_site_type_symbol
  Zn1      1.0000 0.33131  0.76340  0.18106  Biso   1.000  Zn
  Zn2      1.0000 0.36712  0.94838  0.91511  Biso   1.000  Zn
  Zn3      1.0000 0.11692  0.98042  0.08488  Biso   1.000  Zn
  Zn4      1.0000 0.66869  0.73660  0.68106  Biso   1.000  Zn
  Zn5      1.0000 0.63288  0.55162  0.41511  Biso   1.000  Zn
  Zn6      1.0000 0.88308  0.51958  0.58488  Biso   1.000  Zn
  Zn7      1.0000 0.83131  0.23660  0.31894  Biso   1.000  Zn
  Zn8      1.0000 0.86712  0.05162  0.58489  Biso   1.000  Zn
  Zn9      1.0000 0.61692  0.01958  0.41512  Biso   1.000  Zn
  Zn10     1.0000 0.16869  0.26340  0.81894  Biso   1.000  Zn
  Zn11     1.0000 0.13288  0.44838  0.08489  Biso   1.000  Zn
  Zn12     1.0000 0.38308  0.48042  0.91512  Biso   1.000  Zn
  H1       1.0000 0.29710  0.82640  0.13040  Biso   1.000  H
  H2       1.0000 0.37790  0.86790  0.09350  Biso   1.000  H
  H3       1.0000 0.62570  0.82200  0.12990  Biso   1.000  H
  H4       1.0000 0.53750  0.78310  0.16550  Biso   1.000  H
  H5       1.0000 0.97110  0.92360  0.11740  Biso   1.000  H
  H6       1.0000 0.81590  0.89770  0.11240  Biso   1.000  H
  H7       1.0000 0.81920  0.94520  0.02760  Biso   1.000  H
  H8       1.0000 0.97400  0.97090  0.03500  Biso   1.000  H
  H9       1.0000 0.30640  0.93130  0.97970  Biso   1.000  H
  H10      1.0000 0.37740  0.91420  0.02550  Biso   1.000  H
  H11      1.0000 0.63260  0.94230  0.98770  Biso   1.000  H
  H12      1.0000 0.55490  0.95980  0.94390  Biso   1.000  H
  H13      1.0000 0.61980  0.65510  0.43150  Biso   1.000  H
  H14      1.0000 0.59280  0.72820  0.40870  Biso   1.000  H
  H15      1.0000 0.52220  0.65750  0.33390  Biso   1.000  H
  H16      1.0000 0.54690  0.58760  0.35880  Biso   1.000  H
  H17      1.0000 0.59120  0.91720  0.43050  Biso   1.000  H
  H18      1.0000 0.56560  0.84470  0.40730  Biso   1.000  H
  H19      1.0000 0.54420  0.91240  0.32870  Biso   1.000  H
  H20      1.0000 0.57050  0.98340  0.35390  Biso   1.000  H
  H21      1.0000 0.39110  0.84070  0.22260  Biso   1.000  H
  H22      1.0000 0.45230  0.84950  0.27060  Biso   1.000  H
  H23      1.0000 0.48830  0.70850  0.27420  Biso   1.000  H
  H24      1.0000 0.43070  0.70270  0.22620  Biso   1.000  H
  H25      1.0000 0.70290  0.67360  0.63040  Biso   1.000  H
  H26      1.0000 0.62210  0.63210  0.59350  Biso   1.000  H
  H27      1.0000 0.37430  0.67800  0.62990  Biso   1.000  H
  H28      1.0000 0.46250  0.71690  0.66550  Biso   1.000  H
  H29      1.0000 0.02890  0.57640  0.61740  Biso   1.000  H
  H30      1.0000 0.18410  0.60230  0.61240  Biso   1.000  H
  H31      1.0000 0.18080  0.55480  0.52760  Biso   1.000  H
  H32      1.0000 0.02600  0.52910  0.53500  Biso   1.000  H
  H33      1.0000 0.69360  0.56870  0.47970  Biso   1.000  H
  H34      1.0000 0.62260  0.58580  0.52550  Biso   1.000  H
  H35      1.0000 0.36740  0.55770  0.48770  Biso   1.000  H
  H36      1.0000 0.44510  0.54020  0.44390  Biso   1.000  H
  H37      1.0000 0.38020  0.84490  0.93150  Biso   1.000  H
  H38      1.0000 0.40720  0.77180  0.90870  Biso   1.000  H
  H39      1.0000 0.47780  0.84250  0.83390  Biso   1.000  H
  H40      1.0000 0.45310  0.91240  0.85880  Biso   1.000  H
  H41      1.0000 0.40880  0.58280  0.93050  Biso   1.000  H
  H42      1.0000 0.43440  0.65530  0.90730  Biso   1.000  H
  H43      1.0000 0.45580  0.58760  0.82870  Biso   1.000  H
  H44      1.0000 0.42950  0.51660  0.85390  Biso   1.000  H
  H45      1.0000 0.60890  0.65930  0.72260  Biso   1.000  H
  H46      1.0000 0.54770  0.65050  0.77060  Biso   1.000  H
  H47      1.0000 0.51170  0.79150  0.77420  Biso   1.000  H
  H48      1.0000 0.56930  0.79730  0.72620  Biso   1.000  H
  H49      1.0000 0.79710  0.17360  0.36960  Biso   1.000  H
  H50      1.0000 0.87790  0.13210  0.40650  Biso   1.000  H
  H51      1.0000 0.12570  0.17800  0.37010  Biso   1.000  H
  H52      1.0000 0.03750  0.21690  0.33450  Biso   1.000  H
  H53      1.0000 0.47110  0.07640  0.38260  Biso   1.000  H
  H54      1.0000 0.31590  0.10230  0.38760  Biso   1.000  H
  H55      1.0000 0.31920  0.05480  0.47240  Biso   1.000  H
  H56      1.0000 0.47400  0.02910  0.46500  Biso   1.000  H
  H57      1.0000 0.80640  0.06870  0.52030  Biso   1.000  H
  H58      1.0000 0.87740  0.08580  0.47450  Biso   1.000  H
  H59      1.0000 0.13260  0.05770  0.51230  Biso   1.000  H
  H60      1.0000 0.05490  0.04020  0.55610  Biso   1.000  H
  H61      1.0000 0.11980  0.34490  0.06850  Biso   1.000  H
  H62      1.0000 0.09280  0.27180  0.09130  Biso   1.000  H
  H63      1.0000 0.02220  0.34250  0.16610  Biso   1.000  H
  H64      1.0000 0.04690  0.41240  0.14120  Biso   1.000  H
  H65      1.0000 0.09120  0.08280  0.06950  Biso   1.000  H
  H66      1.0000 0.06560  0.15530  0.09270  Biso   1.000  H
  H67      1.0000 0.04420  0.08760  0.17130  Biso   1.000  H
  H68      1.0000 0.07050  0.01660  0.14610  Biso   1.000  H
  H69      1.0000 0.89110  0.15930  0.27740  Biso   1.000  H
  H70      1.0000 0.95230  0.15050  0.22940  Biso   1.000  H
  H71      1.0000 0.98830  0.29150  0.22580  Biso   1.000  H
  H72      1.0000 0.93070  0.29730  0.27380  Biso   1.000  H
  H73      1.0000 0.20290  0.32640  0.86960  Biso   1.000  H
  H74      1.0000 0.12210  0.36790  0.90650  Biso   1.000  H
  H75      1.0000 0.87430  0.32200  0.87010  Biso   1.000  H
  H76      1.0000 0.96250  0.28310  0.83450  Biso   1.000  H
  H77      1.0000 0.52890  0.42360  0.88260  Biso   1.000  H
  H78      1.0000 0.68410  0.39770  0.88760  Biso   1.000  H
  H79      1.0000 0.68080  0.44520  0.97240  Biso   1.000  H
  H80      1.0000 0.52600  0.47090  0.96500  Biso   1.000  H
  H81      1.0000 0.19360  0.43130  0.02030  Biso   1.000  H
  H82      1.0000 0.12260  0.41420  0.97450  Biso   1.000  H
  H83      1.0000 0.86740  0.44230  0.01230  Biso   1.000  H
  H84      1.0000 0.94510  0.45980  0.05610  Biso   1.000  H
  H85      1.0000 0.88020  0.15510  0.56850  Biso   1.000  H
  H86      1.0000 0.90720  0.22820  0.59130  Biso   1.000  H
  H87      1.0000 0.97780  0.15750  0.66610  Biso   1.000  H
  H88      1.0000 0.95310  0.08760  0.64120  Biso   1.000  H
  H89      1.0000 0.90880  0.41720  0.56950  Biso   1.000  H
  H90      1.0000 0.93440  0.34470  0.59270  Biso   1.000  H
  H91      1.0000 0.95580  0.41240  0.67130  Biso   1.000  H
  H92      1.0000 0.92950  0.48340  0.64610  Biso   1.000  H
  H93      1.0000 0.10890  0.34070  0.77740  Biso   1.000  H
  H94      1.0000 0.04770  0.34950  0.72940  Biso   1.000  H
  H95      1.0000 0.01170  0.20850  0.72580  Biso   1.000  H
  H96      1.0000 0.06930  0.20270  0.77380  Biso   1.000  H
  C1       1.0000 0.36490  0.82580  0.13021  Biso   1.000  C
  C2       1.0000 0.41240  0.85020  0.10784  Biso   1.000  C
  C3       1.0000 0.51120  0.84820  0.10696  Biso   1.000  C
  C4       1.0000 0.55800  0.82320  0.12930  Biso   1.000  C
  C5       1.0000 0.50500  0.80050  0.15052  Biso   1.000  C
  C6       1.0000 0.56420  0.87360  0.08297  Biso   1.000  C
  C7       1.0000 0.69850  0.90590  0.06543  Biso   1.000  C
  C8       1.0000 0.56350  0.91050  0.03858  Biso   1.000  C
  C9       1.0000 0.93920  0.92870  0.09905  Biso   1.000  C
  C10      1.0000 0.84700  0.91280  0.09622  Biso   1.000  C
  C11      1.0000 0.79990  0.91920  0.06930  Biso   1.000  C
  C12      1.0000 0.84890  0.94090  0.04644  Biso   1.000  C
  C13      1.0000 0.94100  0.95610  0.05096  Biso   1.000  C
  C14      1.0000 0.37390  0.93270  0.98128  Biso   1.000  C
  C15      1.0000 0.41560  0.92230  0.00880  Biso   1.000  C
  C16      1.0000 0.51350  0.92410  0.01088  Biso   1.000  C
  C17      1.0000 0.56520  0.93900  0.98644  Biso   1.000  C
  C18      1.0000 0.51840  0.94910  0.96035  Biso   1.000  C
  C19      1.0000 0.59980  0.65570  0.41132  Biso   1.000  C
  C20      1.0000 0.58460  0.69970  0.39777  Biso   1.000  C
  C21      1.0000 0.55750  0.70060  0.36832  Biso   1.000  C
  C22      1.0000 0.54280  0.65800  0.35408  Biso   1.000  C
  C23      1.0000 0.55800  0.61650  0.36896  Biso   1.000  C
  C24      1.0000 0.54310  0.82510  0.35034  Biso   1.000  C
  C25      1.0000 0.54320  0.74570  0.35203  Biso   1.000  C
  C26      1.0000 0.50570  0.78300  0.30926  Biso   1.000  C
  C27      1.0000 0.58270  0.91630  0.40950  Biso   1.000  C
  C28      1.0000 0.56760  0.87280  0.39578  Biso   1.000  C
  C29      1.0000 0.55560  0.87090  0.36557  Biso   1.000  C
  C30      1.0000 0.55500  0.91250  0.34954  Biso   1.000  C
  C31      1.0000 0.57050  0.95460  0.36480  Biso   1.000  C
  C32      1.0000 0.41120  0.81340  0.23326  Biso   1.000  C
  C33      1.0000 0.44690  0.81890  0.26201  Biso   1.000  C
  C34      1.0000 0.47420  0.77950  0.27785  Biso   1.000  C
  C35      1.0000 0.46830  0.73620  0.26397  Biso   1.000  C
  C36      1.0000 0.43380  0.73290  0.23544  Biso   1.000  C
  C37      1.0000 0.63510  0.67420  0.63021  Biso   1.000  C
  C38      1.0000 0.58760  0.64980  0.60784  Biso   1.000  C
  C39      1.0000 0.48880  0.65180  0.60696  Biso   1.000  C
  C40      1.0000 0.44200  0.67680  0.62930  Biso   1.000  C
  C41      1.0000 0.49500  0.69950  0.65052  Biso   1.000  C
  C42      1.0000 0.43580  0.62640  0.58297  Biso   1.000  C
  C43      1.0000 0.30150  0.59410  0.56543  Biso   1.000  C
  C44      1.0000 0.43650  0.58950  0.53858  Biso   1.000  C
  C45      1.0000 0.06080  0.57130  0.59905  Biso   1.000  C
  C46      1.0000 0.15300  0.58720  0.59622  Biso   1.000  C
  C47      1.0000 0.20010  0.58080  0.56930  Biso   1.000  C
  C48      1.0000 0.15110  0.55910  0.54644  Biso   1.000  C
  C49      1.0000 0.05900  0.54390  0.55096  Biso   1.000  C
  C50      1.0000 0.62610  0.56730  0.48128  Biso   1.000  C
  C51      1.0000 0.58440  0.57770  0.50880  Biso   1.000  C
  C52      1.0000 0.48650  0.57590  0.51088  Biso   1.000  C
  C53      1.0000 0.43480  0.56100  0.48644  Biso   1.000  C
  C54      1.0000 0.48160  0.55090  0.46035  Biso   1.000  C
  C55      1.0000 0.40020  0.84430  0.91132  Biso   1.000  C
  C56      1.0000 0.41540  0.80030  0.89777  Biso   1.000  C
  C57      1.0000 0.44250  0.79940  0.86832  Biso   1.000  C
  C58      1.0000 0.45720  0.84200  0.85408  Biso   1.000  C
  C59      1.0000 0.44200  0.88350  0.86896  Biso   1.000  C
  C60      1.0000 0.45690  0.67490  0.85034  Biso   1.000  C
  C61      1.0000 0.45680  0.75430  0.85203  Biso   1.000  C
  C62      1.0000 0.49430  0.71700  0.80926  Biso   1.000  C
  C63      1.0000 0.41730  0.58370  0.90950  Biso   1.000  C
  C64      1.0000 0.43240  0.62720  0.89578  Biso   1.000  C
  C65      1.0000 0.44440  0.62910  0.86557  Biso   1.000  C
  C66      1.0000 0.44500  0.58750  0.84954  Biso   1.000  C
  C67      1.0000 0.42950  0.54540  0.86480  Biso   1.000  C
  C68      1.0000 0.58880  0.68660  0.73326  Biso   1.000  C
  C69      1.0000 0.55310  0.68110  0.76201  Biso   1.000  C
  C70      1.0000 0.52580  0.72050  0.77785  Biso   1.000  C
  C71      1.0000 0.53170  0.76380  0.76397  Biso   1.000  C
  C72      1.0000 0.56620  0.76710  0.73544  Biso   1.000  C
  C73      1.0000 0.86490  0.17420  0.36979  Biso   1.000  C
  C74      1.0000 0.91240  0.14980  0.39216  Biso   1.000  C
  C75      1.0000 0.01120  0.15180  0.39304  Biso   1.000  C
  C76      1.0000 0.05800  0.17680  0.37070  Biso   1.000  C
  C77      1.0000 0.00500  0.19950  0.34948  Biso   1.000  C
  C78      1.0000 0.06420  0.12640  0.41703  Biso   1.000  C
  C79      1.0000 0.19850  0.09410  0.43457  Biso   1.000  C
  C80      1.0000 0.06350  0.08950  0.46142  Biso   1.000  C
  C81      1.0000 0.43920  0.07130  0.40095  Biso   1.000  C
  C82      1.0000 0.34700  0.08720  0.40378  Biso   1.000  C
  C83      1.0000 0.29990  0.08080  0.43070  Biso   1.000  C
  C84      1.0000 0.34890  0.05910  0.45356  Biso   1.000  C
  C85      1.0000 0.44100  0.04390  0.44904  Biso   1.000  C
  C86      1.0000 0.87390  0.06730  0.51872  Biso   1.000  C
  C87      1.0000 0.91560  0.07770  0.49120  Biso   1.000  C
  C88      1.0000 0.01350  0.07590  0.48912  Biso   1.000  C
  C89      1.0000 0.06520  0.06100  0.51356  Biso   1.000  C
  C90      1.0000 0.01840  0.05090  0.53965  Biso   1.000  C
  C91      1.0000 0.09980  0.34430  0.08868  Biso   1.000  C
  C92      1.0000 0.08460  0.30030  0.10223  Biso   1.000  C
  C93      1.0000 0.05750  0.29940  0.13168  Biso   1.000  C
  C94      1.0000 0.04280  0.34200  0.14592  Biso   1.000  C
  C95      1.0000 0.05800  0.38350  0.13104  Biso   1.000  C
  C96      1.0000 0.04310  0.17490  0.14966  Biso   1.000  C
  C97      1.0000 0.04320  0.25430  0.14797  Biso   1.000  C
  C98      1.0000 0.00570  0.21700  0.19074  Biso   1.000  C
  C99      1.0000 0.08270  0.08370  0.09050  Biso   1.000  C
  C100     1.0000 0.06760  0.12720  0.10422  Biso   1.000  C
  C101     1.0000 0.05560  0.12910  0.13443  Biso   1.000  C
  C102     1.0000 0.05500  0.08750  0.15046  Biso   1.000  C
  C103     1.0000 0.07050  0.04540  0.13520  Biso   1.000  C
  C104     1.0000 0.91120  0.18660  0.26674  Biso   1.000  C
  C105     1.0000 0.94690  0.18110  0.23799  Biso   1.000  C
  C106     1.0000 0.97420  0.22050  0.22215  Biso   1.000  C
  C107     1.0000 0.96830  0.26380  0.23603  Biso   1.000  C
  C108     1.0000 0.93380  0.26710  0.26456  Biso   1.000  C
  C109     1.0000 0.13510  0.32580  0.86979  Biso   1.000  C
  C110     1.0000 0.08760  0.35020  0.89216  Biso   1.000  C
  C111     1.0000 0.98880  0.34820  0.89304  Biso   1.000  C
  C112     1.0000 0.94200  0.32320  0.87070  Biso   1.000  C
  C113     1.0000 0.99500  0.30050  0.84948  Biso   1.000  C
  C114     1.0000 0.93580  0.37360  0.91703  Biso   1.000  C
  C115     1.0000 0.80150  0.40590  0.93457  Biso   1.000  C
  C116     1.0000 0.93650  0.41050  0.96142  Biso   1.000  C
  C117     1.0000 0.56080  0.42870  0.90095  Biso   1.000  C
  C118     1.0000 0.65300  0.41280  0.90378  Biso   1.000  C
  C119     1.0000 0.70010  0.41920  0.93070  Biso   1.000  C
  C120     1.0000 0.65110  0.44090  0.95356  Biso   1.000  C
  C121     1.0000 0.55900  0.45610  0.94904  Biso   1.000  C
  C122     1.0000 0.12610  0.43270  0.01872  Biso   1.000  C
  C123     1.0000 0.08440  0.42230  0.99120  Biso   1.000  C
  C124     1.0000 0.98650  0.42410  0.98912  Biso   1.000  C
  C125     1.0000 0.93480  0.43900  0.01356  Biso   1.000  C
  C126     1.0000 0.98160  0.44910  0.03965  Biso   1.000  C
  C127     1.0000 0.90020  0.15570  0.58868  Biso   1.000  C
  C128     1.0000 0.91540  0.19970  0.60223  Biso   1.000  C
  C129     1.0000 0.94250  0.20060  0.63168  Biso   1.000  C
  C130     1.0000 0.95720  0.15800  0.64592  Biso   1.000  C
  C131     1.0000 0.94200  0.11650  0.63104  Biso   1.000  C
  C132     1.0000 0.95690  0.32510  0.64966  Biso   1.000  C
  C133     1.0000 0.95680  0.24570  0.64797  Biso   1.000  C
  C134     1.0000 0.99430  0.28300  0.69074  Biso   1.000  C
  C135     1.0000 0.91730  0.41630  0.59050  Biso   1.000  C
  C136     1.0000 0.93240  0.37280  0.60422  Biso   1.000  C
  C137     1.0000 0.94440  0.37090  0.63443  Biso   1.000  C
  C138     1.0000 0.94500  0.41250  0.65046  Biso   1.000  C
  C139     1.0000 0.92950  0.45460  0.63520  Biso   1.000  C
  C140     1.0000 0.08880  0.31340  0.76674  Biso   1.000  C
  C141     1.0000 0.05310  0.31890  0.73799  Biso   1.000  C
  C142     1.0000 0.02580  0.27950  0.72215  Biso   1.000  C
  C143     1.0000 0.03170  0.23620  0.73603  Biso   1.000  C
  C144     1.0000 0.06620  0.23290  0.76456  Biso   1.000  C
  I1       1.0000 0.16895  0.80328  0.18756  Biso   1.000  I
  I2       1.0000 0.33536  0.67723  0.16488  Biso   1.000  I
  I3       1.0000 0.18713  0.94183  0.91775  Biso   1.000  I
  I4       1.0000 0.45478  0.01207  0.88593  Biso   1.000  I
  I5       1.0000 0.19254  0.99910  0.03437  Biso   1.000  I
  I6       1.0000 0.20276  0.92937  0.12227  Biso   1.000  I
  I7       1.0000 0.83105  0.69672  0.68756  Biso   1.000  I
  I8       1.0000 0.66464  0.82277  0.66488  Biso   1.000  I
  I9       1.0000 0.81287  0.55817  0.41775  Biso   1.000  I
  I10      1.0000 0.54522  0.48793  0.38593  Biso   1.000  I
  I11      1.0000 0.80746  0.50090  0.53437  Biso   1.000  I
  I12      1.0000 0.79724  0.57063  0.62227  Biso   1.000  I
  I13      1.0000 0.66895  0.19672  0.31244  Biso   1.000  I
  I14      1.0000 0.83536  0.32277  0.33512  Biso   1.000  I
  I15      1.0000 0.68713  0.05817  0.58225  Biso   1.000  I
  I16      1.0000 0.95478  0.98793  0.61407  Biso   1.000  I
  I17      1.0000 0.69254  0.00090  0.46563  Biso   1.000  I
  I18      1.0000 0.70276  0.07063  0.37773  Biso   1.000  I
  I19      1.0000 0.33105  0.30328  0.81244  Biso   1.000  I
  I20      1.0000 0.16464  0.17723  0.83512  Biso   1.000  I
  I21      1.0000 0.31287  0.44183  0.08225  Biso   1.000  I
  I22      1.0000 0.04522  0.51207  0.11407  Biso   1.000  I
  I23      1.0000 0.30746  0.49910  0.96563  Biso   1.000  I
  I24      1.0000 0.29724  0.42937  0.87773  Biso   1.000  I
  N1       1.0000 0.40920  0.80180  0.15116  Biso   1.000  N
  N2       1.0000 0.51360  0.88740  0.05921  Biso   1.000  N
  N3       1.0000 0.65720  0.88110  0.08711  Biso   1.000  N
  N4       1.0000 0.65480  0.92130  0.04081  Biso   1.000  N
  N5       1.0000 0.98620  0.95080  0.07727  Biso   1.000  N
  N6       1.0000 0.42400  0.94460  0.95698  Biso   1.000  N
  N7       1.0000 0.58770  0.61490  0.39729  Biso   1.000  N
  N8       1.0000 0.55630  0.78580  0.36652  Biso   1.000  N
  N9       1.0000 0.51740  0.74210  0.32349  Biso   1.000  N
  N10      1.0000 0.51720  0.82550  0.32113  Biso   1.000  N
  N11      1.0000 0.58560  0.95630  0.39432  Biso   1.000  N
  N12      1.0000 0.40430  0.77080  0.22018  Biso   1.000  N
  N13      1.0000 0.59080  0.69820  0.65116  Biso   1.000  N
  N14      1.0000 0.48640  0.61260  0.55921  Biso   1.000  N
  N15      1.0000 0.34280  0.61890  0.58711  Biso   1.000  N
  N16      1.0000 0.34520  0.57870  0.54081  Biso   1.000  N
  N17      1.0000 0.01380  0.54920  0.57727  Biso   1.000  N
  N18      1.0000 0.57600  0.55540  0.45698  Biso   1.000  N
  N19      1.0000 0.41230  0.88510  0.89729  Biso   1.000  N
  N20      1.0000 0.44370  0.71420  0.86652  Biso   1.000  N
  N21      1.0000 0.48260  0.75790  0.82349  Biso   1.000  N
  N22      1.0000 0.48280  0.67450  0.82113  Biso   1.000  N
  N23      1.0000 0.41440  0.54370  0.89432  Biso   1.000  N
  N24      1.0000 0.59570  0.72920  0.72018  Biso   1.000  N
  N25      1.0000 0.90920  0.19820  0.34884  Biso   1.000  N
  N26      1.0000 0.01360  0.11260  0.44079  Biso   1.000  N
  N27      1.0000 0.15720  0.11890  0.41289  Biso   1.000  N
  N28      1.0000 0.15480  0.07870  0.45919  Biso   1.000  N
  N29      1.0000 0.48620  0.04920  0.42273  Biso   1.000  N
  N30      1.0000 0.92400  0.05540  0.54302  Biso   1.000  N
  N31      1.0000 0.08770  0.38510  0.10271  Biso   1.000  N
  N32      1.0000 0.05630  0.21420  0.13348  Biso   1.000  N
  N33      1.0000 0.01740  0.25790  0.17651  Biso   1.000  N
  N34      1.0000 0.01720  0.17450  0.17887  Biso   1.000  N
  N35      1.0000 0.08560  0.04370  0.10568  Biso   1.000  N
  N36      1.0000 0.90430  0.22920  0.27982  Biso   1.000  N
  N37      1.0000 0.09080  0.30180  0.84884  Biso   1.000  N
  N38      1.0000 0.98640  0.38740  0.94079  Biso   1.000  N
  N39      1.0000 0.84280  0.38110  0.91289  Biso   1.000  N
  N40      1.0000 0.84520  0.42130  0.95919  Biso   1.000  N
  N41      1.0000 0.51380  0.45080  0.92273  Biso   1.000  N
  N42      1.0000 0.07600  0.44460  0.04302  Biso   1.000  N
  N43      1.0000 0.91230  0.11490  0.60271  Biso   1.000  N
  N44      1.0000 0.94370  0.28580  0.63348  Biso   1.000  N
  N45      1.0000 0.98260  0.24210  0.67651  Biso   1.000  N
  N46      1.0000 0.98280  0.32550  0.67887  Biso   1.000  N
  N47      1.0000 0.91440  0.45630  0.60568  Biso   1.000  N
  N48      1.0000 0.09570  0.27080  0.77982  Biso   1.000  N
  Zn13     1.0000 0.66869  0.23660  0.81894  Biso   1.000  Zn
  Zn14     1.0000 0.63288  0.05162  0.08489  Biso   1.000  Zn
  Zn15     1.0000 0.88308  0.01958  0.91512  Biso   1.000  Zn
  Zn16     1.0000 0.33131  0.26340  0.31894  Biso   1.000  Zn
  Zn17     1.0000 0.36712  0.44838  0.58489  Biso   1.000  Zn
  Zn18     1.0000 0.11692  0.48042  0.41512  Biso   1.000  Zn
  Zn19     1.0000 0.16869  0.76340  0.68106  Biso   1.000  Zn
  Zn20     1.0000 0.13288  0.94838  0.41511  Biso   1.000  Zn
  Zn21     1.0000 0.38308  0.98042  0.58488  Biso   1.000  Zn
  Zn22     1.0000 0.83131  0.73660  0.18106  Biso   1.000  Zn
  Zn23     1.0000 0.86712  0.55162  0.91511  Biso   1.000  Zn
  Zn24     1.0000 0.61692  0.51958  0.08488  Biso   1.000  Zn
  H97      1.0000 0.70290  0.17360  0.86960  Biso   1.000  H
  H98      1.0000 0.62210  0.13210  0.90650  Biso   1.000  H
  H99      1.0000 0.37430  0.17800  0.87010  Biso   1.000  H
  H100     1.0000 0.46250  0.21690  0.83450  Biso   1.000  H
  H101     1.0000 0.02890  0.07640  0.88260  Biso   1.000  H
  H102     1.0000 0.18410  0.10230  0.88760  Biso   1.000  H
  H103     1.0000 0.18080  0.05480  0.97240  Biso   1.000  H
  H104     1.0000 0.02600  0.02910  0.96500  Biso   1.000  H
  H105     1.0000 0.69360  0.06870  0.02030  Biso   1.000  H
  H106     1.0000 0.62260  0.08580  0.97450  Biso   1.000  H
  H107     1.0000 0.36740  0.05770  0.01230  Biso   1.000  H
  H108     1.0000 0.44510  0.04020  0.05610  Biso   1.000  H
  H109     1.0000 0.38020  0.34490  0.56850  Biso   1.000  H
  H110     1.0000 0.40720  0.27180  0.59130  Biso   1.000  H
  H111     1.0000 0.47780  0.34250  0.66610  Biso   1.000  H
  H112     1.0000 0.45310  0.41240  0.64120  Biso   1.000  H
  H113     1.0000 0.40880  0.08280  0.56950  Biso   1.000  H
  H114     1.0000 0.43440  0.15530  0.59270  Biso   1.000  H
  H115     1.0000 0.45580  0.08760  0.67130  Biso   1.000  H
  H116     1.0000 0.42950  0.01660  0.64610  Biso   1.000  H
  H117     1.0000 0.60890  0.15930  0.77740  Biso   1.000  H
  H118     1.0000 0.54770  0.15050  0.72940  Biso   1.000  H
  H119     1.0000 0.51170  0.29150  0.72580  Biso   1.000  H
  H120     1.0000 0.56930  0.29730  0.77380  Biso   1.000  H
  H121     1.0000 0.29710  0.32640  0.36960  Biso   1.000  H
  H122     1.0000 0.37790  0.36790  0.40650  Biso   1.000  H
  H123     1.0000 0.62570  0.32200  0.37010  Biso   1.000  H
  H124     1.0000 0.53750  0.28310  0.33450  Biso   1.000  H
  H125     1.0000 0.97110  0.42360  0.38260  Biso   1.000  H
  H126     1.0000 0.81590  0.39770  0.38760  Biso   1.000  H
  H127     1.0000 0.81920  0.44520  0.47240  Biso   1.000  H
  H128     1.0000 0.97400  0.47090  0.46500  Biso   1.000  H
  H129     1.0000 0.30640  0.43130  0.52030  Biso   1.000  H
  H130     1.0000 0.37740  0.41420  0.47450  Biso   1.000  H
  H131     1.0000 0.63260  0.44230  0.51230  Biso   1.000  H
  H132     1.0000 0.55490  0.45980  0.55610  Biso   1.000  H
  H133     1.0000 0.61980  0.15510  0.06850  Biso   1.000  H
  H134     1.0000 0.59280  0.22820  0.09130  Biso   1.000  H
  H135     1.0000 0.52220  0.15750  0.16610  Biso   1.000  H
  H136     1.0000 0.54690  0.08760  0.14120  Biso   1.000  H
  H137     1.0000 0.59120  0.41720  0.06950  Biso   1.000  H
  H138     1.0000 0.56560  0.34470  0.09270  Biso   1.000  H
  H139     1.0000 0.54420  0.41240  0.17130  Biso   1.000  H
  H140     1.0000 0.57050  0.48340  0.14610  Biso   1.000  H
  H141     1.0000 0.39110  0.34070  0.27740  Biso   1.000  H
  H142     1.0000 0.45230  0.34950  0.22940  Biso   1.000  H
  H143     1.0000 0.48830  0.20850  0.22580  Biso   1.000  H
  H144     1.0000 0.43070  0.20270  0.27380  Biso   1.000  H
  H145     1.0000 0.20290  0.82640  0.63040  Biso   1.000  H
  H146     1.0000 0.12210  0.86790  0.59350  Biso   1.000  H
  H147     1.0000 0.87430  0.82200  0.62990  Biso   1.000  H
  H148     1.0000 0.96250  0.78310  0.66550  Biso   1.000  H
  H149     1.0000 0.52890  0.92360  0.61740  Biso   1.000  H
  H150     1.0000 0.68410  0.89770  0.61240  Biso   1.000  H
  H151     1.0000 0.68080  0.94520  0.52760  Biso   1.000  H
  H152     1.0000 0.52600  0.97090  0.53500  Biso   1.000  H
  H153     1.0000 0.19360  0.93130  0.47970  Biso   1.000  H
  H154     1.0000 0.12260  0.91420  0.52550  Biso   1.000  H
  H155     1.0000 0.86740  0.94230  0.48770  Biso   1.000  H
  H156     1.0000 0.94510  0.95980  0.44390  Biso   1.000  H
  H157     1.0000 0.88020  0.65510  0.93150  Biso   1.000  H
  H158     1.0000 0.90720  0.72820  0.90870  Biso   1.000  H
  H159     1.0000 0.97780  0.65750  0.83390  Biso   1.000  H
  H160     1.0000 0.95310  0.58760  0.85880  Biso   1.000  H
  H161     1.0000 0.90880  0.91720  0.93050  Biso   1.000  H
  H162     1.0000 0.93440  0.84470  0.90730  Biso   1.000  H
  H163     1.0000 0.95580  0.91240  0.82870  Biso   1.000  H
  H164     1.0000 0.92950  0.98340  0.85390  Biso   1.000  H
  H165     1.0000 0.10890  0.84070  0.72260  Biso   1.000  H
  H166     1.0000 0.04770  0.84950  0.77060  Biso   1.000  H
  H167     1.0000 0.01170  0.70850  0.77420  Biso   1.000  H
  H168     1.0000 0.06930  0.70270  0.72620  Biso   1.000  H
  H169     1.0000 0.79710  0.67360  0.13040  Biso   1.000  H
  H170     1.0000 0.87790  0.63210  0.09350  Biso   1.000  H
  H171     1.0000 0.12570  0.67800  0.12990  Biso   1.000  H
  H172     1.0000 0.03750  0.71690  0.16550  Biso   1.000  H
  H173     1.0000 0.47110  0.57640  0.11740  Biso   1.000  H
  H174     1.0000 0.31590  0.60230  0.11240  Biso   1.000  H
  H175     1.0000 0.31920  0.55480  0.02760  Biso   1.000  H
  H176     1.0000 0.47400  0.52910  0.03500  Biso   1.000  H
  H177     1.0000 0.80640  0.56870  0.97970  Biso   1.000  H
  H178     1.0000 0.87740  0.58580  0.02550  Biso   1.000  H
  H179     1.0000 0.13260  0.55770  0.98770  Biso   1.000  H
  H180     1.0000 0.05490  0.54020  0.94390  Biso   1.000  H
  H181     1.0000 0.11980  0.84490  0.43150  Biso   1.000  H
  H182     1.0000 0.09280  0.77180  0.40870  Biso   1.000  H
  H183     1.0000 0.02220  0.84250  0.33390  Biso   1.000  H
  H184     1.0000 0.04690  0.91240  0.35880  Biso   1.000  H
  H185     1.0000 0.09120  0.58280  0.43050  Biso   1.000  H
  H186     1.0000 0.06560  0.65530  0.40730  Biso   1.000  H
  H187     1.0000 0.04420  0.58760  0.32870  Biso   1.000  H
  H188     1.0000 0.07050  0.51660  0.35390  Biso   1.000  H
  H189     1.0000 0.89110  0.65930  0.22260  Biso   1.000  H
  H190     1.0000 0.95230  0.65050  0.27060  Biso   1.000  H
  H191     1.0000 0.98830  0.79150  0.27420  Biso   1.000  H
  H192     1.0000 0.93070  0.79730  0.22620  Biso   1.000  H
  C145     1.0000 0.63510  0.17420  0.86979  Biso   1.000  C
  C146     1.0000 0.58760  0.14980  0.89216  Biso   1.000  C
  C147     1.0000 0.48880  0.15180  0.89304  Biso   1.000  C
  C148     1.0000 0.44200  0.17680  0.87070  Biso   1.000  C
  C149     1.0000 0.49500  0.19950  0.84948  Biso   1.000  C
  C150     1.0000 0.43580  0.12640  0.91703  Biso   1.000  C
  C151     1.0000 0.30150  0.09410  0.93457  Biso   1.000  C
  C152     1.0000 0.43650  0.08950  0.96142  Biso   1.000  C
  C153     1.0000 0.06080  0.07130  0.90095  Biso   1.000  C
  C154     1.0000 0.15300  0.08720  0.90378  Biso   1.000  C
  C155     1.0000 0.20010  0.08080  0.93070  Biso   1.000  C
  C156     1.0000 0.15110  0.05910  0.95356  Biso   1.000  C
  C157     1.0000 0.05900  0.04390  0.94904  Biso   1.000  C
  C158     1.0000 0.62610  0.06730  0.01872  Biso   1.000  C
  C159     1.0000 0.58440  0.07770  0.99120  Biso   1.000  C
  C160     1.0000 0.48650  0.07590  0.98912  Biso   1.000  C
  C161     1.0000 0.43480  0.06100  0.01356  Biso   1.000  C
  C162     1.0000 0.48160  0.05090  0.03965  Biso   1.000  C
  C163     1.0000 0.40020  0.34430  0.58868  Biso   1.000  C
  C164     1.0000 0.41540  0.30030  0.60223  Biso   1.000  C
  C165     1.0000 0.44250  0.29940  0.63168  Biso   1.000  C
  C166     1.0000 0.45720  0.34200  0.64592  Biso   1.000  C
  C167     1.0000 0.44200  0.38350  0.63104  Biso   1.000  C
  C168     1.0000 0.45690  0.17490  0.64966  Biso   1.000  C
  C169     1.0000 0.45680  0.25430  0.64797  Biso   1.000  C
  C170     1.0000 0.49430  0.21700  0.69074  Biso   1.000  C
  C171     1.0000 0.41730  0.08370  0.59050  Biso   1.000  C
  C172     1.0000 0.43240  0.12720  0.60422  Biso   1.000  C
  C173     1.0000 0.44440  0.12910  0.63443  Biso   1.000  C
  C174     1.0000 0.44500  0.08750  0.65046  Biso   1.000  C
  C175     1.0000 0.42950  0.04540  0.63520  Biso   1.000  C
  C176     1.0000 0.58880  0.18660  0.76674  Biso   1.000  C
  C177     1.0000 0.55310  0.18110  0.73799  Biso   1.000  C
  C178     1.0000 0.52580  0.22050  0.72215  Biso   1.000  C
  C179     1.0000 0.53170  0.26380  0.73603  Biso   1.000  C
  C180     1.0000 0.56620  0.26710  0.76456  Biso   1.000  C
  C181     1.0000 0.36490  0.32580  0.36979  Biso   1.000  C
  C182     1.0000 0.41240  0.35020  0.39216  Biso   1.000  C
  C183     1.0000 0.51120  0.34820  0.39304  Biso   1.000  C
  C184     1.0000 0.55800  0.32320  0.37070  Biso   1.000  C
  C185     1.0000 0.50500  0.30050  0.34948  Biso   1.000  C
  C186     1.0000 0.56420  0.37360  0.41703  Biso   1.000  C
  C187     1.0000 0.69850  0.40590  0.43457  Biso   1.000  C
  C188     1.0000 0.56350  0.41050  0.46142  Biso   1.000  C
  C189     1.0000 0.93920  0.42870  0.40095  Biso   1.000  C
  C190     1.0000 0.84700  0.41280  0.40378  Biso   1.000  C
  C191     1.0000 0.79990  0.41920  0.43070  Biso   1.000  C
  C192     1.0000 0.84890  0.44090  0.45356  Biso   1.000  C
  C193     1.0000 0.94100  0.45610  0.44904  Biso   1.000  C
  C194     1.0000 0.37390  0.43270  0.51872  Biso   1.000  C
  C195     1.0000 0.41560  0.42230  0.49120  Biso   1.000  C
  C196     1.0000 0.51350  0.42410  0.48912  Biso   1.000  C
  C197     1.0000 0.56520  0.43900  0.51356  Biso   1.000  C
  C198     1.0000 0.51840  0.44910  0.53965  Biso   1.000  C
  C199     1.0000 0.59980  0.15570  0.08868  Biso   1.000  C
  C200     1.0000 0.58460  0.19970  0.10223  Biso   1.000  C
  C201     1.0000 0.55750  0.20060  0.13168  Biso   1.000  C
  C202     1.0000 0.54280  0.15800  0.14592  Biso   1.000  C
  C203     1.0000 0.55800  0.11650  0.13104  Biso   1.000  C
  C204     1.0000 0.54310  0.32510  0.14966  Biso   1.000  C
  C205     1.0000 0.54320  0.24570  0.14797  Biso   1.000  C
  C206     1.0000 0.50570  0.28300  0.19074  Biso   1.000  C
  C207     1.0000 0.58270  0.41630  0.09050  Biso   1.000  C
  C208     1.0000 0.56760  0.37280  0.10422  Biso   1.000  C
  C209     1.0000 0.55560  0.37090  0.13443  Biso   1.000  C
  C210     1.0000 0.55500  0.41250  0.15046  Biso   1.000  C
  C211     1.0000 0.57050  0.45460  0.13520  Biso   1.000  C
  C212     1.0000 0.41120  0.31340  0.26674  Biso   1.000  C
  C213     1.0000 0.44690  0.31890  0.23799  Biso   1.000  C
  C214     1.0000 0.47420  0.27950  0.22215  Biso   1.000  C
  C215     1.0000 0.46830  0.23620  0.23603  Biso   1.000  C
  C216     1.0000 0.43380  0.23290  0.26456  Biso   1.000  C
  C217     1.0000 0.13510  0.82580  0.63021  Biso   1.000  C
  C218     1.0000 0.08760  0.85020  0.60784  Biso   1.000  C
  C219     1.0000 0.98880  0.84820  0.60696  Biso   1.000  C
  C220     1.0000 0.94200  0.82320  0.62930  Biso   1.000  C
  C221     1.0000 0.99500  0.80050  0.65052  Biso   1.000  C
  C222     1.0000 0.93580  0.87360  0.58297  Biso   1.000  C
  C223     1.0000 0.80150  0.90590  0.56543  Biso   1.000  C
  C224     1.0000 0.93650  0.91050  0.53858  Biso   1.000  C
  C225     1.0000 0.56080  0.92870  0.59905  Biso   1.000  C
  C226     1.0000 0.65300  0.91280  0.59622  Biso   1.000  C
  C227     1.0000 0.70010  0.91920  0.56930  Biso   1.000  C
  C228     1.0000 0.65110  0.94090  0.54644  Biso   1.000  C
  C229     1.0000 0.55900  0.95610  0.55096  Biso   1.000  C
  C230     1.0000 0.12610  0.93270  0.48128  Biso   1.000  C
  C231     1.0000 0.08440  0.92230  0.50880  Biso   1.000  C
  C232     1.0000 0.98650  0.92410  0.51088  Biso   1.000  C
  C233     1.0000 0.93480  0.93900  0.48644  Biso   1.000  C
  C234     1.0000 0.98160  0.94910  0.46035  Biso   1.000  C
  C235     1.0000 0.90020  0.65570  0.91132  Biso   1.000  C
  C236     1.0000 0.91540  0.69970  0.89777  Biso   1.000  C
  C237     1.0000 0.94250  0.70060  0.86832  Biso   1.000  C
  C238     1.0000 0.95720  0.65800  0.85408  Biso   1.000  C
  C239     1.0000 0.94200  0.61650  0.86896  Biso   1.000  C
  C240     1.0000 0.95690  0.82510  0.85034  Biso   1.000  C
  C241     1.0000 0.95680  0.74570  0.85203  Biso   1.000  C
  C242     1.0000 0.99430  0.78300  0.80926  Biso   1.000  C
  C243     1.0000 0.91730  0.91630  0.90950  Biso   1.000  C
  C244     1.0000 0.93240  0.87280  0.89578  Biso   1.000  C
  C245     1.0000 0.94440  0.87090  0.86557  Biso   1.000  C
  C246     1.0000 0.94500  0.91250  0.84954  Biso   1.000  C
  C247     1.0000 0.92950  0.95460  0.86480  Biso   1.000  C
  C248     1.0000 0.08880  0.81340  0.73326  Biso   1.000  C
  C249     1.0000 0.05310  0.81890  0.76201  Biso   1.000  C
  C250     1.0000 0.02580  0.77950  0.77785  Biso   1.000  C
  C251     1.0000 0.03170  0.73620  0.76397  Biso   1.000  C
  C252     1.0000 0.06620  0.73290  0.73544  Biso   1.000  C
  C253     1.0000 0.86490  0.67420  0.13021  Biso   1.000  C
  C254     1.0000 0.91240  0.64980  0.10784  Biso   1.000  C
  C255     1.0000 0.01120  0.65180  0.10696  Biso   1.000  C
  C256     1.0000 0.05800  0.67680  0.12930  Biso   1.000  C
  C257     1.0000 0.00500  0.69950  0.15052  Biso   1.000  C
  C258     1.0000 0.06420  0.62640  0.08297  Biso   1.000  C
  C259     1.0000 0.19850  0.59410  0.06543  Biso   1.000  C
  C260     1.0000 0.06350  0.58950  0.03858  Biso   1.000  C
  C261     1.0000 0.43920  0.57130  0.09905  Biso   1.000  C
  C262     1.0000 0.34700  0.58720  0.09622  Biso   1.000  C
  C263     1.0000 0.29990  0.58080  0.06930  Biso   1.000  C
  C264     1.0000 0.34890  0.55910  0.04644  Biso   1.000  C
  C265     1.0000 0.44100  0.54390  0.05096  Biso   1.000  C
  C266     1.0000 0.87390  0.56730  0.98128  Biso   1.000  C
  C267     1.0000 0.91560  0.57770  0.00880  Biso   1.000  C
  C268     1.0000 0.01350  0.57590  0.01088  Biso   1.000  C
  C269     1.0000 0.06520  0.56100  0.98644  Biso   1.000  C
  C270     1.0000 0.01840  0.55090  0.96035  Biso   1.000  C
  C271     1.0000 0.09980  0.84430  0.41132  Biso   1.000  C
  C272     1.0000 0.08460  0.80030  0.39777  Biso   1.000  C
  C273     1.0000 0.05750  0.79940  0.36832  Biso   1.000  C
  C274     1.0000 0.04280  0.84200  0.35408  Biso   1.000  C
  C275     1.0000 0.05800  0.88350  0.36896  Biso   1.000  C
  C276     1.0000 0.04310  0.67490  0.35034  Biso   1.000  C
  C277     1.0000 0.04320  0.75430  0.35203  Biso   1.000  C
  C278     1.0000 0.00570  0.71700  0.30926  Biso   1.000  C
  C279     1.0000 0.08270  0.58370  0.40950  Biso   1.000  C
  C280     1.0000 0.06760  0.62720  0.39578  Biso   1.000  C
  C281     1.0000 0.05560  0.62910  0.36557  Biso   1.000  C
  C282     1.0000 0.05500  0.58750  0.34954  Biso   1.000  C
  C283     1.0000 0.07050  0.54540  0.36480  Biso   1.000  C
  C284     1.0000 0.91120  0.68660  0.23326  Biso   1.000  C
  C285     1.0000 0.94690  0.68110  0.26201  Biso   1.000  C
  C286     1.0000 0.97420  0.72050  0.27785  Biso   1.000  C
  C287     1.0000 0.96830  0.76380  0.26397  Biso   1.000  C
  C288     1.0000 0.93380  0.76710  0.23544  Biso   1.000  C
  I25      1.0000 0.83105  0.19672  0.81244  Biso   1.000  I
  I26      1.0000 0.66464  0.32277  0.83512  Biso   1.000  I
  I27      1.0000 0.81287  0.05817  0.08225  Biso   1.000  I
  I28      1.0000 0.54522  0.98793  0.11407  Biso   1.000  I
  I29      1.0000 0.80746  0.00090  0.96563  Biso   1.000  I
  I30      1.0000 0.79724  0.07063  0.87773  Biso   1.000  I
  I31      1.0000 0.16895  0.30328  0.31244  Biso   1.000  I
  I32      1.0000 0.33536  0.17723  0.33512  Biso   1.000  I
  I33      1.0000 0.18713  0.44183  0.58225  Biso   1.000  I
  I34      1.0000 0.45478  0.51207  0.61407  Biso   1.000  I
  I35      1.0000 0.19254  0.49910  0.46563  Biso   1.000  I
  I36      1.0000 0.20276  0.42937  0.37773  Biso   1.000  I
  I37      1.0000 0.33105  0.80328  0.68756  Biso   1.000  I
  I38      1.0000 0.16464  0.67723  0.66488  Biso   1.000  I
  I39      1.0000 0.31287  0.94183  0.41775  Biso   1.000  I
  I40      1.0000 0.04522  0.01207  0.38593  Biso   1.000  I
  I41      1.0000 0.30746  0.99910  0.53437  Biso   1.000  I
  I42      1.0000 0.29724  0.92937  0.62227  Biso   1.000  I
  I43      1.0000 0.66895  0.69672  0.18756  Biso   1.000  I
  I44      1.0000 0.83536  0.82277  0.16488  Biso   1.000  I
  I45      1.0000 0.68713  0.55817  0.91775  Biso   1.000  I
  I46      1.0000 0.95478  0.48793  0.88593  Biso   1.000  I
  I47      1.0000 0.69254  0.50090  0.03437  Biso   1.000  I
  I48      1.0000 0.70276  0.57063  0.12227  Biso   1.000  I
  N49      1.0000 0.59080  0.19820  0.84884  Biso   1.000  N
  N50      1.0000 0.48640  0.11260  0.94079  Biso   1.000  N
  N51      1.0000 0.34280  0.11890  0.91289  Biso   1.000  N
  N52      1.0000 0.34520  0.07870  0.95919  Biso   1.000  N
  N53      1.0000 0.01380  0.04920  0.92273  Biso   1.000  N
  N54      1.0000 0.57600  0.05540  0.04302  Biso   1.000  N
  N55      1.0000 0.41230  0.38510  0.60271  Biso   1.000  N
  N56      1.0000 0.44370  0.21420  0.63348  Biso   1.000  N
  N57      1.0000 0.48260  0.25790  0.67651  Biso   1.000  N
  N58      1.0000 0.48280  0.17450  0.67887  Biso   1.000  N
  N59      1.0000 0.41440  0.04370  0.60568  Biso   1.000  N
  N60      1.0000 0.59570  0.22920  0.77982  Biso   1.000  N
  N61      1.0000 0.40920  0.30180  0.34884  Biso   1.000  N
  N62      1.0000 0.51360  0.38740  0.44079  Biso   1.000  N
  N63      1.0000 0.65720  0.38110  0.41289  Biso   1.000  N
  N64      1.0000 0.65480  0.42130  0.45919  Biso   1.000  N
  N65      1.0000 0.98620  0.45080  0.42273  Biso   1.000  N
  N66      1.0000 0.42400  0.44460  0.54302  Biso   1.000  N
  N67      1.0000 0.58770  0.11490  0.10271  Biso   1.000  N
  N68      1.0000 0.55630  0.28580  0.13348  Biso   1.000  N
  N69      1.0000 0.51740  0.24210  0.17651  Biso   1.000  N
  N70      1.0000 0.51720  0.32550  0.17887  Biso   1.000  N
  N71      1.0000 0.58560  0.45630  0.10568  Biso   1.000  N
  N72      1.0000 0.40430  0.27080  0.27982  Biso   1.000  N
  N73      1.0000 0.09080  0.80180  0.65116  Biso   1.000  N
  N74      1.0000 0.98640  0.88740  0.55921  Biso   1.000  N
  N75      1.0000 0.84280  0.88110  0.58711  Biso   1.000  N
  N76      1.0000 0.84520  0.92130  0.54081  Biso   1.000  N
  N77      1.0000 0.51380  0.95080  0.57727  Biso   1.000  N
  N78      1.0000 0.07600  0.94460  0.45698  Biso   1.000  N
  N79      1.0000 0.91230  0.61490  0.89729  Biso   1.000  N
  N80      1.0000 0.94370  0.78580  0.86652  Biso   1.000  N
  N81      1.0000 0.98260  0.74210  0.82349  Biso   1.000  N
  N82      1.0000 0.98280  0.82550  0.82113  Biso   1.000  N
  N83      1.0000 0.91440  0.95630  0.89432  Biso   1.000  N
  N84      1.0000 0.09570  0.77080  0.72018  Biso   1.000  N
  N85      1.0000 0.90920  0.69820  0.15116  Biso   1.000  N
  N86      1.0000 0.01360  0.61260  0.05921  Biso   1.000  N
  N87      1.0000 0.15720  0.61890  0.08711  Biso   1.000  N
  N88      1.0000 0.15480  0.57870  0.04081  Biso   1.000  N
  N89      1.0000 0.48620  0.54920  0.07727  Biso   1.000  N
  N90      1.0000 0.92400  0.55540  0.95698  Biso   1.000  N
  N91      1.0000 0.08770  0.88510  0.39729  Biso   1.000  N
  N92      1.0000 0.05630  0.71420  0.36652  Biso   1.000  N
  N93      1.0000 0.01740  0.75790  0.32349  Biso   1.000  N
  N94      1.0000 0.01720  0.67450  0.32113  Biso   1.000  N
  N95      1.0000 0.08560  0.54370  0.39432  Biso   1.000  N
  N96      1.0000 0.90430  0.72920  0.22018  Biso   1.000  N
