data_image0
_cell_length_a       22.3458
_cell_length_b       29.7691
_cell_length_c       33.3734
_cell_angle_alpha    90
_cell_angle_beta     90
_cell_angle_gamma    90

_symmetry_space_group_name_H-M    "P 1"
_symmetry_int_tables_number       1

loop_
  _symmetry_equiv_pos_as_xyz
  'x, y, z'

loop_
  _atom_site_label
  _atom_site_occupancy
  _atom_site_fract_x
  _atom_site_fract_y
  _atom_site_fract_z
  _atom_site_thermal_displace_type
  _atom_site_B_iso_or_equiv
  _atom_site_type_symbol
  O1       1.0000 0.85710  0.32230  0.63750  Biso   1.000  O
  O2       1.0000 0.79020  0.29090  0.59717  Biso   1.000  O
  N1       1.0000 0.90150  0.50250  0.44040  Biso   1.000  N
  H1       1.0000 0.89530  0.52920  0.43170  Biso   1.000  H
  N2       1.0000 0.94070  0.47280  0.42330  Biso   1.000  N
  C1       1.0000 0.85080  0.34910  0.57090  Biso   1.000  C
  C2       1.0000 0.83500  0.33980  0.53170  Biso   1.000  C
  H2       1.0000 0.81340  0.31400  0.52560  Biso   1.000  H
  C3       1.0000 0.93890  0.43620  0.44640  Biso   1.000  C
  C4       1.0000 0.85180  0.36970  0.50110  Biso   1.000  C
  H3       1.0000 0.84230  0.36290  0.47470  Biso   1.000  H
  C5       1.0000 0.89810  0.44140  0.47710  Biso   1.000  C
  C6       1.0000 0.88240  0.40920  0.50970  Biso   1.000  C
  C7       1.0000 0.87440  0.48500  0.47190  Biso   1.000  C
  C8       1.0000 0.89780  0.41810  0.54940  Biso   1.000  C
  H4       1.0000 0.91800  0.44450  0.55580  Biso   1.000  H
  C9       1.0000 0.88330  0.38810  0.57900  Biso   1.000  C
  H5       1.0000 0.89540  0.39380  0.60520  Biso   1.000  H
  C10      1.0000 0.83220  0.31850  0.60500  Biso   1.000  C
  C11      1.0000 0.97810  0.39650  0.43820  Biso   1.000  C
  H6       1.0000 0.97840  0.39050  0.40990  Biso   1.000  H
  H7       1.0000 0.96280  0.37080  0.45220  Biso   1.000  H
  H8       1.0000 0.01800  0.40280  0.44710  Biso   1.000  H
  C12      1.0000 0.82820  0.51010  0.49530  Biso   1.000  C
  H9       1.0000 0.84720  0.53300  0.51090  Biso   1.000  H
  H10      1.0000 0.80750  0.48970  0.51270  Biso   1.000  H
  H11      1.0000 0.80020  0.52370  0.47710  Biso   1.000  H
  O3       1.0000 0.85710  0.82230  0.13750  Biso   1.000  O
  O4       1.0000 0.79020  0.79090  0.09717  Biso   1.000  O
  N3       1.0000 0.90150  0.00250  0.94040  Biso   1.000  N
  H12      1.0000 0.89530  0.02920  0.93170  Biso   1.000  H
  N4       1.0000 0.94070  0.97280  0.92330  Biso   1.000  N
  C13      1.0000 0.85080  0.84910  0.07090  Biso   1.000  C
  C14      1.0000 0.83500  0.83980  0.03170  Biso   1.000  C
  H13      1.0000 0.81340  0.81400  0.02560  Biso   1.000  H
  C15      1.0000 0.93890  0.93620  0.94640  Biso   1.000  C
  C16      1.0000 0.85180  0.86970  0.00110  Biso   1.000  C
  H14      1.0000 0.84230  0.86290  0.97470  Biso   1.000  H
  C17      1.0000 0.89810  0.94140  0.97710  Biso   1.000  C
  C18      1.0000 0.88240  0.90920  0.00970  Biso   1.000  C
  C19      1.0000 0.87440  0.98500  0.97190  Biso   1.000  C
  C20      1.0000 0.89780  0.91810  0.04940  Biso   1.000  C
  H15      1.0000 0.91800  0.94450  0.05580  Biso   1.000  H
  C21      1.0000 0.88330  0.88810  0.07900  Biso   1.000  C
  H16      1.0000 0.89540  0.89380  0.10520  Biso   1.000  H
  C22      1.0000 0.83220  0.81850  0.10500  Biso   1.000  C
  C23      1.0000 0.97810  0.89650  0.93820  Biso   1.000  C
  H17      1.0000 0.97840  0.89050  0.90990  Biso   1.000  H
  H18      1.0000 0.96280  0.87080  0.95220  Biso   1.000  H
  H19      1.0000 0.01800  0.90280  0.94710  Biso   1.000  H
  C24      1.0000 0.82820  0.01010  0.99530  Biso   1.000  C
  H20      1.0000 0.84720  0.03300  0.01090  Biso   1.000  H
  H21      1.0000 0.80750  0.98970  0.01270  Biso   1.000  H
  H22      1.0000 0.80020  0.02370  0.97710  Biso   1.000  H
  O5       1.0000 0.35710  0.32230  0.13750  Biso   1.000  O
  O6       1.0000 0.29020  0.29090  0.09717  Biso   1.000  O
  N5       1.0000 0.40150  0.50250  0.94040  Biso   1.000  N
  H23      1.0000 0.39530  0.52920  0.93170  Biso   1.000  H
  N6       1.0000 0.44070  0.47280  0.92330  Biso   1.000  N
  C25      1.0000 0.35080  0.34910  0.07090  Biso   1.000  C
  C26      1.0000 0.33500  0.33980  0.03170  Biso   1.000  C
  H24      1.0000 0.31340  0.31400  0.02560  Biso   1.000  H
  C27      1.0000 0.43890  0.43620  0.94640  Biso   1.000  C
  C28      1.0000 0.35180  0.36970  0.00110  Biso   1.000  C
  H25      1.0000 0.34230  0.36290  0.97470  Biso   1.000  H
  C29      1.0000 0.39810  0.44140  0.97710  Biso   1.000  C
  C30      1.0000 0.38240  0.40920  0.00970  Biso   1.000  C
  C31      1.0000 0.37440  0.48500  0.97190  Biso   1.000  C
  C32      1.0000 0.39780  0.41810  0.04940  Biso   1.000  C
  H26      1.0000 0.41800  0.44450  0.05580  Biso   1.000  H
  C33      1.0000 0.38330  0.38810  0.07900  Biso   1.000  C
  H27      1.0000 0.39540  0.39380  0.10520  Biso   1.000  H
  C34      1.0000 0.33220  0.31850  0.10500  Biso   1.000  C
  C35      1.0000 0.47810  0.39650  0.93820  Biso   1.000  C
  H28      1.0000 0.47840  0.39050  0.90990  Biso   1.000  H
  H29      1.0000 0.46280  0.37080  0.95220  Biso   1.000  H
  H30      1.0000 0.51800  0.40280  0.94710  Biso   1.000  H
  C36      1.0000 0.32820  0.51010  0.99530  Biso   1.000  C
  H31      1.0000 0.34720  0.53300  0.01090  Biso   1.000  H
  H32      1.0000 0.30750  0.48970  0.01270  Biso   1.000  H
  H33      1.0000 0.30020  0.52370  0.97710  Biso   1.000  H
  O7       1.0000 0.35710  0.82230  0.63750  Biso   1.000  O
  O8       1.0000 0.29020  0.79090  0.59717  Biso   1.000  O
  N7       1.0000 0.40150  0.00250  0.44040  Biso   1.000  N
  H34      1.0000 0.39530  0.02920  0.43170  Biso   1.000  H
  N8       1.0000 0.44070  0.97280  0.42330  Biso   1.000  N
  C37      1.0000 0.35080  0.84910  0.57090  Biso   1.000  C
  C38      1.0000 0.33500  0.83980  0.53170  Biso   1.000  C
  H35      1.0000 0.31340  0.81400  0.52560  Biso   1.000  H
  C39      1.0000 0.43890  0.93620  0.44640  Biso   1.000  C
  C40      1.0000 0.35180  0.86970  0.50110  Biso   1.000  C
  H36      1.0000 0.34230  0.86290  0.47470  Biso   1.000  H
  C41      1.0000 0.39810  0.94140  0.47710  Biso   1.000  C
  C42      1.0000 0.38240  0.90920  0.50970  Biso   1.000  C
  C43      1.0000 0.37440  0.98500  0.47190  Biso   1.000  C
  C44      1.0000 0.39780  0.91810  0.54940  Biso   1.000  C
  H37      1.0000 0.41800  0.94450  0.55580  Biso   1.000  H
  C45      1.0000 0.38330  0.88810  0.57900  Biso   1.000  C
  H38      1.0000 0.39540  0.89380  0.60520  Biso   1.000  H
  C46      1.0000 0.33220  0.81850  0.60500  Biso   1.000  C
  C47      1.0000 0.47810  0.89650  0.43820  Biso   1.000  C
  H39      1.0000 0.47840  0.89050  0.40990  Biso   1.000  H
  H40      1.0000 0.46280  0.87080  0.45220  Biso   1.000  H
  H41      1.0000 0.51800  0.90280  0.44710  Biso   1.000  H
  C48      1.0000 0.32820  0.01010  0.49530  Biso   1.000  C
  H42      1.0000 0.34720  0.03300  0.51090  Biso   1.000  H
  H43      1.0000 0.30750  0.98970  0.51270  Biso   1.000  H
  H44      1.0000 0.30020  0.02370  0.47710  Biso   1.000  H
  O9       1.0000 0.14290  0.67770  0.63750  Biso   1.000  O
  O10      1.0000 0.20980  0.70910  0.59717  Biso   1.000  O
  N9       1.0000 0.09850  0.49750  0.44040  Biso   1.000  N
  H45      1.0000 0.10470  0.47080  0.43170  Biso   1.000  H
  N10      1.0000 0.05930  0.52720  0.42330  Biso   1.000  N
  C49      1.0000 0.14920  0.65090  0.57090  Biso   1.000  C
  C50      1.0000 0.16500  0.66020  0.53170  Biso   1.000  C
  H46      1.0000 0.18660  0.68600  0.52560  Biso   1.000  H
  C51      1.0000 0.06110  0.56380  0.44640  Biso   1.000  C
  C52      1.0000 0.14820  0.63030  0.50110  Biso   1.000  C
  H47      1.0000 0.15770  0.63710  0.47470  Biso   1.000  H
  C53      1.0000 0.10190  0.55860  0.47710  Biso   1.000  C
  C54      1.0000 0.11760  0.59080  0.50970  Biso   1.000  C
  C55      1.0000 0.12560  0.51500  0.47190  Biso   1.000  C
  C56      1.0000 0.10220  0.58190  0.54940  Biso   1.000  C
  H48      1.0000 0.08200  0.55550  0.55580  Biso   1.000  H
  C57      1.0000 0.11670  0.61190  0.57900  Biso   1.000  C
  H49      1.0000 0.10460  0.60620  0.60520  Biso   1.000  H
  C58      1.0000 0.16780  0.68150  0.60500  Biso   1.000  C
  C59      1.0000 0.02190  0.60350  0.43820  Biso   1.000  C
  H50      1.0000 0.02160  0.60950  0.40990  Biso   1.000  H
  H51      1.0000 0.03720  0.62920  0.45220  Biso   1.000  H
  H52      1.0000 0.98200  0.59720  0.44710  Biso   1.000  H
  C60      1.0000 0.17180  0.48990  0.49530  Biso   1.000  C
  H53      1.0000 0.15280  0.46700  0.51090  Biso   1.000  H
  H54      1.0000 0.19250  0.51030  0.51270  Biso   1.000  H
  H55      1.0000 0.19980  0.47630  0.47710  Biso   1.000  H
  O11      1.0000 0.14290  0.17770  0.13750  Biso   1.000  O
  O12      1.0000 0.20980  0.20910  0.09717  Biso   1.000  O
  N11      1.0000 0.09850  0.99750  0.94040  Biso   1.000  N
  H56      1.0000 0.10470  0.97080  0.93170  Biso   1.000  H
  N12      1.0000 0.05930  0.02720  0.92330  Biso   1.000  N
  C61      1.0000 0.14920  0.15090  0.07090  Biso   1.000  C
  C62      1.0000 0.16500  0.16020  0.03170  Biso   1.000  C
  H57      1.0000 0.18660  0.18600  0.02560  Biso   1.000  H
  C63      1.0000 0.06110  0.06380  0.94640  Biso   1.000  C
  C64      1.0000 0.14820  0.13030  0.00110  Biso   1.000  C
  H58      1.0000 0.15770  0.13710  0.97470  Biso   1.000  H
  C65      1.0000 0.10190  0.05860  0.97710  Biso   1.000  C
  C66      1.0000 0.11760  0.09080  0.00970  Biso   1.000  C
  C67      1.0000 0.12560  0.01500  0.97190  Biso   1.000  C
  C68      1.0000 0.10220  0.08190  0.04940  Biso   1.000  C
  H59      1.0000 0.08200  0.05550  0.05580  Biso   1.000  H
  C69      1.0000 0.11670  0.11190  0.07900  Biso   1.000  C
  H60      1.0000 0.10460  0.10620  0.10520  Biso   1.000  H
  C70      1.0000 0.16780  0.18150  0.10500  Biso   1.000  C
  C71      1.0000 0.02190  0.10350  0.93820  Biso   1.000  C
  H61      1.0000 0.02160  0.10950  0.90990  Biso   1.000  H
  H62      1.0000 0.03720  0.12920  0.95220  Biso   1.000  H
  H63      1.0000 0.98200  0.09720  0.94710  Biso   1.000  H
  C72      1.0000 0.17180  0.98990  0.99530  Biso   1.000  C
  H64      1.0000 0.15280  0.96700  0.01090  Biso   1.000  H
  H65      1.0000 0.19250  0.01030  0.01270  Biso   1.000  H
  H66      1.0000 0.19980  0.97630  0.97710  Biso   1.000  H
  O13      1.0000 0.64290  0.67770  0.13750  Biso   1.000  O
  O14      1.0000 0.70980  0.70910  0.09717  Biso   1.000  O
  N13      1.0000 0.59850  0.49750  0.94040  Biso   1.000  N
  H67      1.0000 0.60470  0.47080  0.93170  Biso   1.000  H
  N14      1.0000 0.55930  0.52720  0.92330  Biso   1.000  N
  C73      1.0000 0.64920  0.65090  0.07090  Biso   1.000  C
  C74      1.0000 0.66500  0.66020  0.03170  Biso   1.000  C
  H68      1.0000 0.68660  0.68600  0.02560  Biso   1.000  H
  C75      1.0000 0.56110  0.56380  0.94640  Biso   1.000  C
  C76      1.0000 0.64820  0.63030  0.00110  Biso   1.000  C
  H69      1.0000 0.65770  0.63710  0.97470  Biso   1.000  H
  C77      1.0000 0.60190  0.55860  0.97710  Biso   1.000  C
  C78      1.0000 0.61760  0.59080  0.00970  Biso   1.000  C
  C79      1.0000 0.62560  0.51500  0.97190  Biso   1.000  C
  C80      1.0000 0.60220  0.58190  0.04940  Biso   1.000  C
  H70      1.0000 0.58200  0.55550  0.05580  Biso   1.000  H
  C81      1.0000 0.61670  0.61190  0.07900  Biso   1.000  C
  H71      1.0000 0.60460  0.60620  0.10520  Biso   1.000  H
  C82      1.0000 0.66780  0.68150  0.10500  Biso   1.000  C
  C83      1.0000 0.52190  0.60350  0.93820  Biso   1.000  C
  H72      1.0000 0.52160  0.60950  0.90990  Biso   1.000  H
  H73      1.0000 0.53720  0.62920  0.95220  Biso   1.000  H
  H74      1.0000 0.48200  0.59720  0.94710  Biso   1.000  H
  C84      1.0000 0.67180  0.48990  0.99530  Biso   1.000  C
  H75      1.0000 0.65280  0.46700  0.01090  Biso   1.000  H
  H76      1.0000 0.69250  0.51030  0.01270  Biso   1.000  H
  H77      1.0000 0.69980  0.47630  0.97710  Biso   1.000  H
  O15      1.0000 0.64290  0.17770  0.63750  Biso   1.000  O
  O16      1.0000 0.70980  0.20910  0.59717  Biso   1.000  O
  N15      1.0000 0.59850  0.99750  0.44040  Biso   1.000  N
  H78      1.0000 0.60470  0.97080  0.43170  Biso   1.000  H
  N16      1.0000 0.55930  0.02720  0.42330  Biso   1.000  N
  C85      1.0000 0.64920  0.15090  0.57090  Biso   1.000  C
  C86      1.0000 0.66500  0.16020  0.53170  Biso   1.000  C
  H79      1.0000 0.68660  0.18600  0.52560  Biso   1.000  H
  C87      1.0000 0.56110  0.06380  0.44640  Biso   1.000  C
  C88      1.0000 0.64820  0.13030  0.50110  Biso   1.000  C
  H80      1.0000 0.65770  0.13710  0.47470  Biso   1.000  H
  C89      1.0000 0.60190  0.05860  0.47710  Biso   1.000  C
  C90      1.0000 0.61760  0.09080  0.50970  Biso   1.000  C
  C91      1.0000 0.62560  0.01500  0.47190  Biso   1.000  C
  C92      1.0000 0.60220  0.08190  0.54940  Biso   1.000  C
  H81      1.0000 0.58200  0.05550  0.55580  Biso   1.000  H
  C93      1.0000 0.61670  0.11190  0.57900  Biso   1.000  C
  H82      1.0000 0.60460  0.10620  0.60520  Biso   1.000  H
  C94      1.0000 0.66780  0.18150  0.60500  Biso   1.000  C
  C95      1.0000 0.52190  0.10350  0.43820  Biso   1.000  C
  H83      1.0000 0.52160  0.10950  0.40990  Biso   1.000  H
  H84      1.0000 0.53720  0.12920  0.45220  Biso   1.000  H
  H85      1.0000 0.48200  0.09720  0.44710  Biso   1.000  H
  C96      1.0000 0.67180  0.98990  0.49530  Biso   1.000  C
  H86      1.0000 0.65280  0.96700  0.51090  Biso   1.000  H
  H87      1.0000 0.69250  0.01030  0.51270  Biso   1.000  H
  H88      1.0000 0.69980  0.97630  0.47710  Biso   1.000  H
  O17      1.0000 0.10710  0.92770  0.88750  Biso   1.000  O
  O18      1.0000 0.04020  0.95910  0.84717  Biso   1.000  O
  N17      1.0000 0.15150  0.74750  0.69040  Biso   1.000  N
  H89      1.0000 0.14530  0.72080  0.68170  Biso   1.000  H
  N18      1.0000 0.19070  0.77720  0.67330  Biso   1.000  N
  C97      1.0000 0.10080  0.90090  0.82090  Biso   1.000  C
  C98      1.0000 0.08500  0.91020  0.78170  Biso   1.000  C
  H90      1.0000 0.06340  0.93600  0.77560  Biso   1.000  H
  C99      1.0000 0.18890  0.81380  0.69640  Biso   1.000  C
  C100     1.0000 0.10180  0.88030  0.75110  Biso   1.000  C
  H91      1.0000 0.09230  0.88710  0.72470  Biso   1.000  H
  C101     1.0000 0.14810  0.80860  0.72710  Biso   1.000  C
  C102     1.0000 0.13240  0.84080  0.75970  Biso   1.000  C
  C103     1.0000 0.12440  0.76500  0.72190  Biso   1.000  C
  C104     1.0000 0.14780  0.83190  0.79940  Biso   1.000  C
  H92      1.0000 0.16800  0.80550  0.80580  Biso   1.000  H
  C105     1.0000 0.13330  0.86190  0.82900  Biso   1.000  C
  H93      1.0000 0.14540  0.85620  0.85520  Biso   1.000  H
  C106     1.0000 0.08220  0.93150  0.85500  Biso   1.000  C
  C107     1.0000 0.22810  0.85350  0.68820  Biso   1.000  C
  H94      1.0000 0.22840  0.85950  0.65990  Biso   1.000  H
  H95      1.0000 0.21280  0.87920  0.70220  Biso   1.000  H
  H96      1.0000 0.26800  0.84720  0.69710  Biso   1.000  H
  C108     1.0000 0.07820  0.73990  0.74530  Biso   1.000  C
  H97      1.0000 0.09720  0.71700  0.76090  Biso   1.000  H
  H98      1.0000 0.05750  0.76030  0.76270  Biso   1.000  H
  H99      1.0000 0.05020  0.72630  0.72710  Biso   1.000  H
  O19      1.0000 0.10710  0.42770  0.38750  Biso   1.000  O
  O20      1.0000 0.04020  0.45910  0.34717  Biso   1.000  O
  N19      1.0000 0.15150  0.24750  0.19040  Biso   1.000  N
  H100     1.0000 0.14530  0.22080  0.18170  Biso   1.000  H
  N20      1.0000 0.19070  0.27720  0.17330  Biso   1.000  N
  C109     1.0000 0.10080  0.40090  0.32090  Biso   1.000  C
  C110     1.0000 0.08500  0.41020  0.28170  Biso   1.000  C
  H101     1.0000 0.06340  0.43600  0.27560  Biso   1.000  H
  C111     1.0000 0.18890  0.31380  0.19640  Biso   1.000  C
  C112     1.0000 0.10180  0.38030  0.25110  Biso   1.000  C
  H102     1.0000 0.09230  0.38710  0.22470  Biso   1.000  H
  C113     1.0000 0.14810  0.30860  0.22710  Biso   1.000  C
  C114     1.0000 0.13240  0.34080  0.25970  Biso   1.000  C
  C115     1.0000 0.12440  0.26500  0.22190  Biso   1.000  C
  C116     1.0000 0.14780  0.33190  0.29940  Biso   1.000  C
  H103     1.0000 0.16800  0.30550  0.30580  Biso   1.000  H
  C117     1.0000 0.13330  0.36190  0.32900  Biso   1.000  C
  H104     1.0000 0.14540  0.35620  0.35520  Biso   1.000  H
  C118     1.0000 0.08220  0.43150  0.35500  Biso   1.000  C
  C119     1.0000 0.22810  0.35350  0.18820  Biso   1.000  C
  H105     1.0000 0.22840  0.35950  0.15990  Biso   1.000  H
  H106     1.0000 0.21280  0.37920  0.20220  Biso   1.000  H
  H107     1.0000 0.26800  0.34720  0.19710  Biso   1.000  H
  C120     1.0000 0.07820  0.23990  0.24530  Biso   1.000  C
  H108     1.0000 0.09720  0.21700  0.26090  Biso   1.000  H
  H109     1.0000 0.05750  0.26030  0.26270  Biso   1.000  H
  H110     1.0000 0.05020  0.22630  0.22710  Biso   1.000  H
  O21      1.0000 0.60710  0.92770  0.38750  Biso   1.000  O
  O22      1.0000 0.54020  0.95910  0.34717  Biso   1.000  O
  N21      1.0000 0.65150  0.74750  0.19040  Biso   1.000  N
  H111     1.0000 0.64530  0.72080  0.18170  Biso   1.000  H
  N22      1.0000 0.69070  0.77720  0.17330  Biso   1.000  N
  C121     1.0000 0.60080  0.90090  0.32090  Biso   1.000  C
  C122     1.0000 0.58500  0.91020  0.28170  Biso   1.000  C
  H112     1.0000 0.56340  0.93600  0.27560  Biso   1.000  H
  C123     1.0000 0.68890  0.81380  0.19640  Biso   1.000  C
  C124     1.0000 0.60180  0.88030  0.25110  Biso   1.000  C
  H113     1.0000 0.59230  0.88710  0.22470  Biso   1.000  H
  C125     1.0000 0.64810  0.80860  0.22710  Biso   1.000  C
  C126     1.0000 0.63240  0.84080  0.25970  Biso   1.000  C
  C127     1.0000 0.62440  0.76500  0.22190  Biso   1.000  C
  C128     1.0000 0.64780  0.83190  0.29940  Biso   1.000  C
  H114     1.0000 0.66800  0.80550  0.30580  Biso   1.000  H
  C129     1.0000 0.63330  0.86190  0.32900  Biso   1.000  C
  H115     1.0000 0.64540  0.85620  0.35520  Biso   1.000  H
  C130     1.0000 0.58220  0.93150  0.35500  Biso   1.000  C
  C131     1.0000 0.72810  0.85350  0.18820  Biso   1.000  C
  H116     1.0000 0.72840  0.85950  0.15990  Biso   1.000  H
  H117     1.0000 0.71280  0.87920  0.20220  Biso   1.000  H
  H118     1.0000 0.76800  0.84720  0.19710  Biso   1.000  H
  C132     1.0000 0.57820  0.73990  0.24530  Biso   1.000  C
  H119     1.0000 0.59720  0.71700  0.26090  Biso   1.000  H
  H120     1.0000 0.55750  0.76030  0.26270  Biso   1.000  H
  H121     1.0000 0.55020  0.72630  0.22710  Biso   1.000  H
  O23      1.0000 0.60710  0.42770  0.88750  Biso   1.000  O
  O24      1.0000 0.54020  0.45910  0.84717  Biso   1.000  O
  N23      1.0000 0.65150  0.24750  0.69040  Biso   1.000  N
  H122     1.0000 0.64530  0.22080  0.68170  Biso   1.000  H
  N24      1.0000 0.69070  0.27720  0.67330  Biso   1.000  N
  C133     1.0000 0.60080  0.40090  0.82090  Biso   1.000  C
  C134     1.0000 0.58500  0.41020  0.78170  Biso   1.000  C
  H123     1.0000 0.56340  0.43600  0.77560  Biso   1.000  H
  C135     1.0000 0.68890  0.31380  0.69640  Biso   1.000  C
  C136     1.0000 0.60180  0.38030  0.75110  Biso   1.000  C
  H124     1.0000 0.59230  0.38710  0.72470  Biso   1.000  H
  C137     1.0000 0.64810  0.30860  0.72710  Biso   1.000  C
  C138     1.0000 0.63240  0.34080  0.75970  Biso   1.000  C
  C139     1.0000 0.62440  0.26500  0.72190  Biso   1.000  C
  C140     1.0000 0.64780  0.33190  0.79940  Biso   1.000  C
  H125     1.0000 0.66800  0.30550  0.80580  Biso   1.000  H
  C141     1.0000 0.63330  0.36190  0.82900  Biso   1.000  C
  H126     1.0000 0.64540  0.35620  0.85520  Biso   1.000  H
  C142     1.0000 0.58220  0.43150  0.85500  Biso   1.000  C
  C143     1.0000 0.72810  0.35350  0.68820  Biso   1.000  C
  H127     1.0000 0.72840  0.35950  0.65990  Biso   1.000  H
  H128     1.0000 0.71280  0.37920  0.70220  Biso   1.000  H
  H129     1.0000 0.76800  0.34720  0.69710  Biso   1.000  H
  C144     1.0000 0.57820  0.23990  0.74530  Biso   1.000  C
  H130     1.0000 0.59720  0.21700  0.76090  Biso   1.000  H
  H131     1.0000 0.55750  0.26030  0.76270  Biso   1.000  H
  H132     1.0000 0.55020  0.22630  0.72710  Biso   1.000  H
  O25      1.0000 0.39290  0.57230  0.88750  Biso   1.000  O
  O26      1.0000 0.45980  0.54090  0.84717  Biso   1.000  O
  N25      1.0000 0.34850  0.75250  0.69040  Biso   1.000  N
  H133     1.0000 0.35470  0.77920  0.68170  Biso   1.000  H
  N26      1.0000 0.30930  0.72280  0.67330  Biso   1.000  N
  C145     1.0000 0.39920  0.59910  0.82090  Biso   1.000  C
  C146     1.0000 0.41500  0.58980  0.78170  Biso   1.000  C
  H134     1.0000 0.43660  0.56400  0.77560  Biso   1.000  H
  C147     1.0000 0.31110  0.68620  0.69640  Biso   1.000  C
  C148     1.0000 0.39820  0.61970  0.75110  Biso   1.000  C
  H135     1.0000 0.40770  0.61290  0.72470  Biso   1.000  H
  C149     1.0000 0.35190  0.69140  0.72710  Biso   1.000  C
  C150     1.0000 0.36760  0.65920  0.75970  Biso   1.000  C
  C151     1.0000 0.37560  0.73500  0.72190  Biso   1.000  C
  C152     1.0000 0.35220  0.66810  0.79940  Biso   1.000  C
  H136     1.0000 0.33200  0.69450  0.80580  Biso   1.000  H
  C153     1.0000 0.36670  0.63810  0.82900  Biso   1.000  C
  H137     1.0000 0.35460  0.64380  0.85520  Biso   1.000  H
  C154     1.0000 0.41780  0.56850  0.85500  Biso   1.000  C
  C155     1.0000 0.27190  0.64650  0.68820  Biso   1.000  C
  H138     1.0000 0.27160  0.64050  0.65990  Biso   1.000  H
  H139     1.0000 0.28720  0.62080  0.70220  Biso   1.000  H
  H140     1.0000 0.23200  0.65280  0.69710  Biso   1.000  H
  C156     1.0000 0.42180  0.76010  0.74530  Biso   1.000  C
  H141     1.0000 0.40280  0.78300  0.76090  Biso   1.000  H
  H142     1.0000 0.44250  0.73970  0.76270  Biso   1.000  H
  H143     1.0000 0.44980  0.77370  0.72710  Biso   1.000  H
  O27      1.0000 0.39290  0.07230  0.38750  Biso   1.000  O
  O28      1.0000 0.45980  0.04090  0.34717  Biso   1.000  O
  N27      1.0000 0.34850  0.25250  0.19040  Biso   1.000  N
  H144     1.0000 0.35470  0.27920  0.18170  Biso   1.000  H
  N28      1.0000 0.30930  0.22280  0.17330  Biso   1.000  N
  C157     1.0000 0.39920  0.09910  0.32090  Biso   1.000  C
  C158     1.0000 0.41500  0.08980  0.28170  Biso   1.000  C
  H145     1.0000 0.43660  0.06400  0.27560  Biso   1.000  H
  C159     1.0000 0.31110  0.18620  0.19640  Biso   1.000  C
  C160     1.0000 0.39820  0.11970  0.25110  Biso   1.000  C
  H146     1.0000 0.40770  0.11290  0.22470  Biso   1.000  H
  C161     1.0000 0.35190  0.19140  0.22710  Biso   1.000  C
  C162     1.0000 0.36760  0.15920  0.25970  Biso   1.000  C
  C163     1.0000 0.37560  0.23500  0.22190  Biso   1.000  C
  C164     1.0000 0.35220  0.16810  0.29940  Biso   1.000  C
  H147     1.0000 0.33200  0.19450  0.30580  Biso   1.000  H
  C165     1.0000 0.36670  0.13810  0.32900  Biso   1.000  C
  H148     1.0000 0.35460  0.14380  0.35520  Biso   1.000  H
  C166     1.0000 0.41780  0.06850  0.35500  Biso   1.000  C
  C167     1.0000 0.27190  0.14650  0.18820  Biso   1.000  C
  H149     1.0000 0.27160  0.14050  0.15990  Biso   1.000  H
  H150     1.0000 0.28720  0.12080  0.20220  Biso   1.000  H
  H151     1.0000 0.23200  0.15280  0.19710  Biso   1.000  H
  C168     1.0000 0.42180  0.26010  0.24530  Biso   1.000  C
  H152     1.0000 0.40280  0.28300  0.26090  Biso   1.000  H
  H153     1.0000 0.44250  0.23970  0.26270  Biso   1.000  H
  H154     1.0000 0.44980  0.27370  0.22710  Biso   1.000  H
  O29      1.0000 0.89290  0.57230  0.38750  Biso   1.000  O
  O30      1.0000 0.95980  0.54090  0.34717  Biso   1.000  O
  N29      1.0000 0.84850  0.75250  0.19040  Biso   1.000  N
  H155     1.0000 0.85470  0.77920  0.18170  Biso   1.000  H
  N30      1.0000 0.80930  0.72280  0.17330  Biso   1.000  N
  C169     1.0000 0.89920  0.59910  0.32090  Biso   1.000  C
  C170     1.0000 0.91500  0.58980  0.28170  Biso   1.000  C
  H156     1.0000 0.93660  0.56400  0.27560  Biso   1.000  H
  C171     1.0000 0.81110  0.68620  0.19640  Biso   1.000  C
  C172     1.0000 0.89820  0.61970  0.25110  Biso   1.000  C
  H157     1.0000 0.90770  0.61290  0.22470  Biso   1.000  H
  C173     1.0000 0.85190  0.69140  0.22710  Biso   1.000  C
  C174     1.0000 0.86760  0.65920  0.25970  Biso   1.000  C
  C175     1.0000 0.87560  0.73500  0.22190  Biso   1.000  C
  C176     1.0000 0.85220  0.66810  0.29940  Biso   1.000  C
  H158     1.0000 0.83200  0.69450  0.30580  Biso   1.000  H
  C177     1.0000 0.86670  0.63810  0.32900  Biso   1.000  C
  H159     1.0000 0.85460  0.64380  0.35520  Biso   1.000  H
  C178     1.0000 0.91780  0.56850  0.35500  Biso   1.000  C
  C179     1.0000 0.77190  0.64650  0.18820  Biso   1.000  C
  H160     1.0000 0.77160  0.64050  0.15990  Biso   1.000  H
  H161     1.0000 0.78720  0.62080  0.20220  Biso   1.000  H
  H162     1.0000 0.73200  0.65280  0.19710  Biso   1.000  H
  C180     1.0000 0.92180  0.76010  0.24530  Biso   1.000  C
  H163     1.0000 0.90280  0.78300  0.26090  Biso   1.000  H
  H164     1.0000 0.94250  0.73970  0.26270  Biso   1.000  H
  H165     1.0000 0.94980  0.77370  0.22710  Biso   1.000  H
  O31      1.0000 0.89290  0.07230  0.88750  Biso   1.000  O
  O32      1.0000 0.95980  0.04090  0.84717  Biso   1.000  O
  N31      1.0000 0.84850  0.25250  0.69040  Biso   1.000  N
  H166     1.0000 0.85470  0.27920  0.68170  Biso   1.000  H
  N32      1.0000 0.80930  0.22280  0.67330  Biso   1.000  N
  C181     1.0000 0.89920  0.09910  0.82090  Biso   1.000  C
  C182     1.0000 0.91500  0.08980  0.78170  Biso   1.000  C
  H167     1.0000 0.93660  0.06400  0.77560  Biso   1.000  H
  C183     1.0000 0.81110  0.18620  0.69640  Biso   1.000  C
  C184     1.0000 0.89820  0.11970  0.75110  Biso   1.000  C
  H168     1.0000 0.90770  0.11290  0.72470  Biso   1.000  H
  C185     1.0000 0.85190  0.19140  0.72710  Biso   1.000  C
  C186     1.0000 0.86760  0.15920  0.75970  Biso   1.000  C
  C187     1.0000 0.87560  0.23500  0.72190  Biso   1.000  C
  C188     1.0000 0.85220  0.16810  0.79940  Biso   1.000  C
  H169     1.0000 0.83200  0.19450  0.80580  Biso   1.000  H
  C189     1.0000 0.86670  0.13810  0.82900  Biso   1.000  C
  H170     1.0000 0.85460  0.14380  0.85520  Biso   1.000  H
  C190     1.0000 0.91780  0.06850  0.85500  Biso   1.000  C
  C191     1.0000 0.77190  0.14650  0.68820  Biso   1.000  C
  H171     1.0000 0.77160  0.14050  0.65990  Biso   1.000  H
  H172     1.0000 0.78720  0.12080  0.70220  Biso   1.000  H
  H173     1.0000 0.73200  0.15280  0.69710  Biso   1.000  H
  C192     1.0000 0.92180  0.26010  0.74530  Biso   1.000  C
  H174     1.0000 0.90280  0.28300  0.76090  Biso   1.000  H
  H175     1.0000 0.94250  0.23970  0.76270  Biso   1.000  H
  H176     1.0000 0.94980  0.27370  0.72710  Biso   1.000  H
  Zn1      1.0000 0.00000  0.50000  0.38346  Biso   1.000  Zn
  Zn2      1.0000 0.00000  0.00000  0.88346  Biso   1.000  Zn
  Zn3      1.0000 0.50000  0.50000  0.88346  Biso   1.000  Zn
  Zn4      1.0000 0.50000  0.00000  0.38346  Biso   1.000  Zn
  Zn5      1.0000 0.25000  0.75000  0.63346  Biso   1.000  Zn
  Zn6      1.0000 0.25000  0.25000  0.13346  Biso   1.000  Zn
  Zn7      1.0000 0.75000  0.75000  0.13346  Biso   1.000  Zn
  Zn8      1.0000 0.75000  0.25000  0.63346  Biso   1.000  Zn
  O33      1.0000 0.29390  0.70880  0.28530  Biso   1.000  O
  O34      1.0000 0.38520  0.73850  0.29030  Biso   1.000  O
  N33      1.0000 0.38620  0.54000  0.47790  Biso   1.000  N
  H177     1.0000 0.37010  0.52530  0.49730  Biso   1.000  H
  N34      1.0000 0.44490  0.53690  0.46790  Biso   1.000  N
  C193     1.0000 0.36040  0.67710  0.33190  Biso   1.000  C
  C194     1.0000 0.32430  0.64000  0.33800  Biso   1.000  C
  H178     1.0000 0.29160  0.63520  0.32140  Biso   1.000  H
  C195     1.0000 0.45230  0.56480  0.43710  Biso   1.000  C
  C196     1.0000 0.33640  0.60990  0.36860  Biso   1.000  C
  H179     1.0000 0.31140  0.58530  0.37250  Biso   1.000  H
  C197     1.0000 0.39810  0.58500  0.42650  Biso   1.000  C
  C198     1.0000 0.38570  0.61630  0.39360  Biso   1.000  C
  C199     1.0000 0.35620  0.56850  0.45440  Biso   1.000  C
  C200     1.0000 0.42240  0.65270  0.38620  Biso   1.000  C
  H180     1.0000 0.45580  0.65720  0.40230  Biso   1.000  H
  C201     1.0000 0.41090  0.68240  0.35570  Biso   1.000  C
  H181     1.0000 0.43700  0.70610  0.35090  Biso   1.000  H
  C202     1.0000 0.34630  0.71110  0.30030  Biso   1.000  C
  C203     1.0000 0.51230  0.57030  0.41760  Biso   1.000  C
  H182     1.0000 0.51730  0.60090  0.40930  Biso   1.000  H
  H183     1.0000 0.51490  0.55080  0.39480  Biso   1.000  H
  H184     1.0000 0.54320  0.56260  0.43650  Biso   1.000  H
  C204     1.0000 0.29190  0.57930  0.46040  Biso   1.000  C
  H185     1.0000 0.26800  0.56070  0.44320  Biso   1.000  H
  H186     1.0000 0.28500  0.61030  0.45410  Biso   1.000  H
  H187     1.0000 0.28110  0.57370  0.48780  Biso   1.000  H
  O35      1.0000 0.29390  0.20880  0.78530  Biso   1.000  O
  O36      1.0000 0.38520  0.23850  0.79030  Biso   1.000  O
  N35      1.0000 0.38620  0.04000  0.97790  Biso   1.000  N
  H188     1.0000 0.37010  0.02530  0.99730  Biso   1.000  H
  N36      1.0000 0.44490  0.03690  0.96790  Biso   1.000  N
  C205     1.0000 0.36040  0.17710  0.83190  Biso   1.000  C
  C206     1.0000 0.32430  0.14000  0.83800  Biso   1.000  C
  H189     1.0000 0.29160  0.13520  0.82140  Biso   1.000  H
  C207     1.0000 0.45230  0.06480  0.93710  Biso   1.000  C
  C208     1.0000 0.33640  0.10990  0.86860  Biso   1.000  C
  H190     1.0000 0.31140  0.08530  0.87250  Biso   1.000  H
  C209     1.0000 0.39810  0.08500  0.92650  Biso   1.000  C
  C210     1.0000 0.38570  0.11630  0.89360  Biso   1.000  C
  C211     1.0000 0.35620  0.06850  0.95440  Biso   1.000  C
  C212     1.0000 0.42240  0.15270  0.88620  Biso   1.000  C
  H191     1.0000 0.45580  0.15720  0.90230  Biso   1.000  H
  C213     1.0000 0.41090  0.18240  0.85570  Biso   1.000  C
  H192     1.0000 0.43700  0.20610  0.85090  Biso   1.000  H
  C214     1.0000 0.34630  0.21110  0.80030  Biso   1.000  C
  C215     1.0000 0.51230  0.07030  0.91760  Biso   1.000  C
  H193     1.0000 0.51730  0.10090  0.90930  Biso   1.000  H
  H194     1.0000 0.51490  0.05080  0.89480  Biso   1.000  H
  H195     1.0000 0.54320  0.06260  0.93650  Biso   1.000  H
  C216     1.0000 0.29190  0.07930  0.96040  Biso   1.000  C
  H196     1.0000 0.26800  0.06070  0.94320  Biso   1.000  H
  H197     1.0000 0.28500  0.11030  0.95410  Biso   1.000  H
  H198     1.0000 0.28110  0.07370  0.98780  Biso   1.000  H
  O37      1.0000 0.79390  0.70880  0.78530  Biso   1.000  O
  O38      1.0000 0.88520  0.73850  0.79030  Biso   1.000  O
  N37      1.0000 0.88620  0.54000  0.97790  Biso   1.000  N
  H199     1.0000 0.87010  0.52530  0.99730  Biso   1.000  H
  N38      1.0000 0.94490  0.53690  0.96790  Biso   1.000  N
  C217     1.0000 0.86040  0.67710  0.83190  Biso   1.000  C
  C218     1.0000 0.82430  0.64000  0.83800  Biso   1.000  C
  H200     1.0000 0.79160  0.63520  0.82140  Biso   1.000  H
  C219     1.0000 0.95230  0.56480  0.93710  Biso   1.000  C
  C220     1.0000 0.83640  0.60990  0.86860  Biso   1.000  C
  H201     1.0000 0.81140  0.58530  0.87250  Biso   1.000  H
  C221     1.0000 0.89810  0.58500  0.92650  Biso   1.000  C
  C222     1.0000 0.88570  0.61630  0.89360  Biso   1.000  C
  C223     1.0000 0.85620  0.56850  0.95440  Biso   1.000  C
  C224     1.0000 0.92240  0.65270  0.88620  Biso   1.000  C
  H202     1.0000 0.95580  0.65720  0.90230  Biso   1.000  H
  C225     1.0000 0.91090  0.68240  0.85570  Biso   1.000  C
  H203     1.0000 0.93700  0.70610  0.85090  Biso   1.000  H
  C226     1.0000 0.84630  0.71110  0.80030  Biso   1.000  C
  C227     1.0000 0.01230  0.57030  0.91760  Biso   1.000  C
  H204     1.0000 0.01730  0.60090  0.90930  Biso   1.000  H
  H205     1.0000 0.01490  0.55080  0.89480  Biso   1.000  H
  H206     1.0000 0.04320  0.56260  0.93650  Biso   1.000  H
  C228     1.0000 0.79190  0.57930  0.96040  Biso   1.000  C
  H207     1.0000 0.76800  0.56070  0.94320  Biso   1.000  H
  H208     1.0000 0.78500  0.61030  0.95410  Biso   1.000  H
  H209     1.0000 0.78110  0.57370  0.98780  Biso   1.000  H
  O39      1.0000 0.79390  0.20880  0.28530  Biso   1.000  O
  O40      1.0000 0.88520  0.23850  0.29030  Biso   1.000  O
  N39      1.0000 0.88620  0.04000  0.47790  Biso   1.000  N
  H210     1.0000 0.87010  0.02530  0.49730  Biso   1.000  H
  N40      1.0000 0.94490  0.03690  0.46790  Biso   1.000  N
  C229     1.0000 0.86040  0.17710  0.33190  Biso   1.000  C
  C230     1.0000 0.82430  0.14000  0.33800  Biso   1.000  C
  H211     1.0000 0.79160  0.13520  0.32140  Biso   1.000  H
  C231     1.0000 0.95230  0.06480  0.43710  Biso   1.000  C
  C232     1.0000 0.83640  0.10990  0.36860  Biso   1.000  C
  H212     1.0000 0.81140  0.08530  0.37250  Biso   1.000  H
  C233     1.0000 0.89810  0.08500  0.42650  Biso   1.000  C
  C234     1.0000 0.88570  0.11630  0.39360  Biso   1.000  C
  C235     1.0000 0.85620  0.06850  0.45440  Biso   1.000  C
  C236     1.0000 0.92240  0.15270  0.38620  Biso   1.000  C
  H213     1.0000 0.95580  0.15720  0.40230  Biso   1.000  H
  C237     1.0000 0.91090  0.18240  0.35570  Biso   1.000  C
  H214     1.0000 0.93700  0.20610  0.35090  Biso   1.000  H
  C238     1.0000 0.84630  0.21110  0.30030  Biso   1.000  C
  C239     1.0000 0.01230  0.07030  0.41760  Biso   1.000  C
  H215     1.0000 0.01730  0.10090  0.40930  Biso   1.000  H
  H216     1.0000 0.01490  0.05080  0.39480  Biso   1.000  H
  H217     1.0000 0.04320  0.06260  0.43650  Biso   1.000  H
  C240     1.0000 0.79190  0.07930  0.46040  Biso   1.000  C
  H218     1.0000 0.76800  0.06070  0.44320  Biso   1.000  H
  H219     1.0000 0.78500  0.11030  0.45410  Biso   1.000  H
  H220     1.0000 0.78110  0.07370  0.48780  Biso   1.000  H
  O41      1.0000 0.70610  0.29120  0.28530  Biso   1.000  O
  O42      1.0000 0.61480  0.26150  0.29030  Biso   1.000  O
  N41      1.0000 0.61380  0.46000  0.47790  Biso   1.000  N
  H221     1.0000 0.62990  0.47470  0.49730  Biso   1.000  H
  N42      1.0000 0.55510  0.46310  0.46790  Biso   1.000  N
  C241     1.0000 0.63960  0.32290  0.33190  Biso   1.000  C
  C242     1.0000 0.67570  0.36000  0.33800  Biso   1.000  C
  H222     1.0000 0.70840  0.36480  0.32140  Biso   1.000  H
  C243     1.0000 0.54770  0.43520  0.43710  Biso   1.000  C
  C244     1.0000 0.66360  0.39010  0.36860  Biso   1.000  C
  H223     1.0000 0.68860  0.41470  0.37250  Biso   1.000  H
  C245     1.0000 0.60190  0.41500  0.42650  Biso   1.000  C
  C246     1.0000 0.61430  0.38370  0.39360  Biso   1.000  C
  C247     1.0000 0.64380  0.43150  0.45440  Biso   1.000  C
  C248     1.0000 0.57760  0.34730  0.38620  Biso   1.000  C
  H224     1.0000 0.54420  0.34280  0.40230  Biso   1.000  H
  C249     1.0000 0.58910  0.31760  0.35570  Biso   1.000  C
  H225     1.0000 0.56300  0.29390  0.35090  Biso   1.000  H
  C250     1.0000 0.65370  0.28890  0.30030  Biso   1.000  C
  C251     1.0000 0.48770  0.42970  0.41760  Biso   1.000  C
  H226     1.0000 0.48270  0.39910  0.40930  Biso   1.000  H
  H227     1.0000 0.48510  0.44920  0.39480  Biso   1.000  H
  H228     1.0000 0.45680  0.43740  0.43650  Biso   1.000  H
  C252     1.0000 0.70810  0.42070  0.46040  Biso   1.000  C
  H229     1.0000 0.73200  0.43930  0.44320  Biso   1.000  H
  H230     1.0000 0.71500  0.38970  0.45410  Biso   1.000  H
  H231     1.0000 0.71890  0.42630  0.48780  Biso   1.000  H
  O43      1.0000 0.70610  0.79120  0.78530  Biso   1.000  O
  O44      1.0000 0.61480  0.76150  0.79030  Biso   1.000  O
  N43      1.0000 0.61380  0.96000  0.97790  Biso   1.000  N
  H232     1.0000 0.62990  0.97470  0.99730  Biso   1.000  H
  N44      1.0000 0.55510  0.96310  0.96790  Biso   1.000  N
  C253     1.0000 0.63960  0.82290  0.83190  Biso   1.000  C
  C254     1.0000 0.67570  0.86000  0.83800  Biso   1.000  C
  H233     1.0000 0.70840  0.86480  0.82140  Biso   1.000  H
  C255     1.0000 0.54770  0.93520  0.93710  Biso   1.000  C
  C256     1.0000 0.66360  0.89010  0.86860  Biso   1.000  C
  H234     1.0000 0.68860  0.91470  0.87250  Biso   1.000  H
  C257     1.0000 0.60190  0.91500  0.92650  Biso   1.000  C
  C258     1.0000 0.61430  0.88370  0.89360  Biso   1.000  C
  C259     1.0000 0.64380  0.93150  0.95440  Biso   1.000  C
  C260     1.0000 0.57760  0.84730  0.88620  Biso   1.000  C
  H235     1.0000 0.54420  0.84280  0.90230  Biso   1.000  H
  C261     1.0000 0.58910  0.81760  0.85570  Biso   1.000  C
  H236     1.0000 0.56300  0.79390  0.85090  Biso   1.000  H
  C262     1.0000 0.65370  0.78890  0.80030  Biso   1.000  C
  C263     1.0000 0.48770  0.92970  0.91760  Biso   1.000  C
  H237     1.0000 0.48270  0.89910  0.90930  Biso   1.000  H
  H238     1.0000 0.48510  0.94920  0.89480  Biso   1.000  H
  H239     1.0000 0.45680  0.93740  0.93650  Biso   1.000  H
  C264     1.0000 0.70810  0.92070  0.96040  Biso   1.000  C
  H240     1.0000 0.73200  0.93930  0.94320  Biso   1.000  H
  H241     1.0000 0.71500  0.88970  0.95410  Biso   1.000  H
  H242     1.0000 0.71890  0.92630  0.98780  Biso   1.000  H
  O45      1.0000 0.20610  0.29120  0.78530  Biso   1.000  O
  O46      1.0000 0.11480  0.26150  0.79030  Biso   1.000  O
  N45      1.0000 0.11380  0.46000  0.97790  Biso   1.000  N
  H243     1.0000 0.12990  0.47470  0.99730  Biso   1.000  H
  N46      1.0000 0.05510  0.46310  0.96790  Biso   1.000  N
  C265     1.0000 0.13960  0.32290  0.83190  Biso   1.000  C
  C266     1.0000 0.17570  0.36000  0.83800  Biso   1.000  C
  H244     1.0000 0.20840  0.36480  0.82140  Biso   1.000  H
  C267     1.0000 0.04770  0.43520  0.93710  Biso   1.000  C
  C268     1.0000 0.16360  0.39010  0.86860  Biso   1.000  C
  H245     1.0000 0.18860  0.41470  0.87250  Biso   1.000  H
  C269     1.0000 0.10190  0.41500  0.92650  Biso   1.000  C
  C270     1.0000 0.11430  0.38370  0.89360  Biso   1.000  C
  C271     1.0000 0.14380  0.43150  0.95440  Biso   1.000  C
  C272     1.0000 0.07760  0.34730  0.88620  Biso   1.000  C
  H246     1.0000 0.04420  0.34280  0.90230  Biso   1.000  H
  C273     1.0000 0.08910  0.31760  0.85570  Biso   1.000  C
  H247     1.0000 0.06300  0.29390  0.85090  Biso   1.000  H
  C274     1.0000 0.15370  0.28890  0.80030  Biso   1.000  C
  C275     1.0000 0.98770  0.42970  0.91760  Biso   1.000  C
  H248     1.0000 0.98270  0.39910  0.90930  Biso   1.000  H
  H249     1.0000 0.98510  0.44920  0.89480  Biso   1.000  H
  H250     1.0000 0.95680  0.43740  0.93650  Biso   1.000  H
  C276     1.0000 0.20810  0.42070  0.96040  Biso   1.000  C
  H251     1.0000 0.23200  0.43930  0.94320  Biso   1.000  H
  H252     1.0000 0.21500  0.38970  0.95410  Biso   1.000  H
  H253     1.0000 0.21890  0.42630  0.98780  Biso   1.000  H
  O47      1.0000 0.20610  0.79120  0.28530  Biso   1.000  O
  O48      1.0000 0.11480  0.76150  0.29030  Biso   1.000  O
  N47      1.0000 0.11380  0.96000  0.47790  Biso   1.000  N
  H254     1.0000 0.12990  0.97470  0.49730  Biso   1.000  H
  N48      1.0000 0.05510  0.96310  0.46790  Biso   1.000  N
  C277     1.0000 0.13960  0.82290  0.33190  Biso   1.000  C
  C278     1.0000 0.17570  0.86000  0.33800  Biso   1.000  C
  H255     1.0000 0.20840  0.86480  0.32140  Biso   1.000  H
  C279     1.0000 0.04770  0.93520  0.43710  Biso   1.000  C
  C280     1.0000 0.16360  0.89010  0.36860  Biso   1.000  C
  H256     1.0000 0.18860  0.91470  0.37250  Biso   1.000  H
  C281     1.0000 0.10190  0.91500  0.42650  Biso   1.000  C
  C282     1.0000 0.11430  0.88370  0.39360  Biso   1.000  C
  C283     1.0000 0.14380  0.93150  0.45440  Biso   1.000  C
  C284     1.0000 0.07760  0.84730  0.38620  Biso   1.000  C
  H257     1.0000 0.04420  0.84280  0.40230  Biso   1.000  H
  C285     1.0000 0.08910  0.81760  0.35570  Biso   1.000  C
  H258     1.0000 0.06300  0.79390  0.35090  Biso   1.000  H
  C286     1.0000 0.15370  0.78890  0.30030  Biso   1.000  C
  C287     1.0000 0.98770  0.92970  0.41760  Biso   1.000  C
  H259     1.0000 0.98270  0.89910  0.40930  Biso   1.000  H
  H260     1.0000 0.98510  0.94920  0.39480  Biso   1.000  H
  H261     1.0000 0.95680  0.93740  0.43650  Biso   1.000  H
  C288     1.0000 0.20810  0.92070  0.46040  Biso   1.000  C
  H262     1.0000 0.23200  0.93930  0.44320  Biso   1.000  H
  H263     1.0000 0.21500  0.88970  0.45410  Biso   1.000  H
  H264     1.0000 0.21890  0.92630  0.48780  Biso   1.000  H
  O49      1.0000 0.54390  0.54120  0.53530  Biso   1.000  O
  O50      1.0000 0.63520  0.51150  0.54030  Biso   1.000  O
  N49      1.0000 0.63620  0.71000  0.72790  Biso   1.000  N
  H265     1.0000 0.62010  0.72470  0.74730  Biso   1.000  H
  N50      1.0000 0.69490  0.71310  0.71790  Biso   1.000  N
  C289     1.0000 0.61040  0.57290  0.58190  Biso   1.000  C
  C290     1.0000 0.57430  0.61000  0.58800  Biso   1.000  C
  H266     1.0000 0.54160  0.61480  0.57140  Biso   1.000  H
  C291     1.0000 0.70230  0.68520  0.68710  Biso   1.000  C
  C292     1.0000 0.58640  0.64010  0.61860  Biso   1.000  C
  H267     1.0000 0.56140  0.66470  0.62250  Biso   1.000  H
  C293     1.0000 0.64810  0.66500  0.67650  Biso   1.000  C
  C294     1.0000 0.63570  0.63370  0.64360  Biso   1.000  C
  C295     1.0000 0.60620  0.68150  0.70440  Biso   1.000  C
  C296     1.0000 0.67240  0.59730  0.63620  Biso   1.000  C
  H268     1.0000 0.70580  0.59280  0.65230  Biso   1.000  H
  C297     1.0000 0.66090  0.56760  0.60570  Biso   1.000  C
  H269     1.0000 0.68700  0.54390  0.60090  Biso   1.000  H
  C298     1.0000 0.59630  0.53890  0.55030  Biso   1.000  C
  C299     1.0000 0.76230  0.67970  0.66760  Biso   1.000  C
  H270     1.0000 0.76730  0.64910  0.65930  Biso   1.000  H
  H271     1.0000 0.76490  0.69920  0.64480  Biso   1.000  H
  H272     1.0000 0.79320  0.68740  0.68650  Biso   1.000  H
  C300     1.0000 0.54190  0.67070  0.71040  Biso   1.000  C
  H273     1.0000 0.51800  0.68930  0.69320  Biso   1.000  H
  H274     1.0000 0.53500  0.63970  0.70410  Biso   1.000  H
  H275     1.0000 0.53110  0.67630  0.73780  Biso   1.000  H
  O51      1.0000 0.54390  0.04120  0.03530  Biso   1.000  O
  O52      1.0000 0.63520  0.01150  0.04030  Biso   1.000  O
  N51      1.0000 0.63620  0.21000  0.22790  Biso   1.000  N
  H276     1.0000 0.62010  0.22470  0.24730  Biso   1.000  H
  N52      1.0000 0.69490  0.21310  0.21790  Biso   1.000  N
  C301     1.0000 0.61040  0.07290  0.08190  Biso   1.000  C
  C302     1.0000 0.57430  0.11000  0.08800  Biso   1.000  C
  H277     1.0000 0.54160  0.11480  0.07140  Biso   1.000  H
  C303     1.0000 0.70230  0.18520  0.18710  Biso   1.000  C
  C304     1.0000 0.58640  0.14010  0.11860  Biso   1.000  C
  H278     1.0000 0.56140  0.16470  0.12250  Biso   1.000  H
  C305     1.0000 0.64810  0.16500  0.17650  Biso   1.000  C
  C306     1.0000 0.63570  0.13370  0.14360  Biso   1.000  C
  C307     1.0000 0.60620  0.18150  0.20440  Biso   1.000  C
  C308     1.0000 0.67240  0.09730  0.13620  Biso   1.000  C
  H279     1.0000 0.70580  0.09280  0.15230  Biso   1.000  H
  C309     1.0000 0.66090  0.06760  0.10570  Biso   1.000  C
  H280     1.0000 0.68700  0.04390  0.10090  Biso   1.000  H
  C310     1.0000 0.59630  0.03890  0.05030  Biso   1.000  C
  C311     1.0000 0.76230  0.17970  0.16760  Biso   1.000  C
  H281     1.0000 0.76730  0.14910  0.15930  Biso   1.000  H
  H282     1.0000 0.76490  0.19920  0.14480  Biso   1.000  H
  H283     1.0000 0.79320  0.18740  0.18650  Biso   1.000  H
  C312     1.0000 0.54190  0.17070  0.21040  Biso   1.000  C
  H284     1.0000 0.51800  0.18930  0.19320  Biso   1.000  H
  H285     1.0000 0.53500  0.13970  0.20410  Biso   1.000  H
  H286     1.0000 0.53110  0.17630  0.23780  Biso   1.000  H
  O53      1.0000 0.04390  0.54120  0.03530  Biso   1.000  O
  O54      1.0000 0.13520  0.51150  0.04030  Biso   1.000  O
  N53      1.0000 0.13620  0.71000  0.22790  Biso   1.000  N
  H287     1.0000 0.12010  0.72470  0.24730  Biso   1.000  H
  N54      1.0000 0.19490  0.71310  0.21790  Biso   1.000  N
  C313     1.0000 0.11040  0.57290  0.08190  Biso   1.000  C
  C314     1.0000 0.07430  0.61000  0.08800  Biso   1.000  C
  H288     1.0000 0.04160  0.61480  0.07140  Biso   1.000  H
  C315     1.0000 0.20230  0.68520  0.18710  Biso   1.000  C
  C316     1.0000 0.08640  0.64010  0.11860  Biso   1.000  C
  H289     1.0000 0.06140  0.66470  0.12250  Biso   1.000  H
  C317     1.0000 0.14810  0.66500  0.17650  Biso   1.000  C
  C318     1.0000 0.13570  0.63370  0.14360  Biso   1.000  C
  C319     1.0000 0.10620  0.68150  0.20440  Biso   1.000  C
  C320     1.0000 0.17240  0.59730  0.13620  Biso   1.000  C
  H290     1.0000 0.20580  0.59280  0.15230  Biso   1.000  H
  C321     1.0000 0.16090  0.56760  0.10570  Biso   1.000  C
  H291     1.0000 0.18700  0.54390  0.10090  Biso   1.000  H
  C322     1.0000 0.09630  0.53890  0.05030  Biso   1.000  C
  C323     1.0000 0.26230  0.67970  0.16760  Biso   1.000  C
  H292     1.0000 0.26730  0.64910  0.15930  Biso   1.000  H
  H293     1.0000 0.26490  0.69920  0.14480  Biso   1.000  H
  H294     1.0000 0.29320  0.68740  0.18650  Biso   1.000  H
  C324     1.0000 0.04190  0.67070  0.21040  Biso   1.000  C
  H295     1.0000 0.01800  0.68930  0.19320  Biso   1.000  H
  H296     1.0000 0.03500  0.63970  0.20410  Biso   1.000  H
  H297     1.0000 0.03110  0.67630  0.23780  Biso   1.000  H
  O55      1.0000 0.04390  0.04120  0.53530  Biso   1.000  O
  O56      1.0000 0.13520  0.01150  0.54030  Biso   1.000  O
  N55      1.0000 0.13620  0.21000  0.72790  Biso   1.000  N
  H298     1.0000 0.12010  0.22470  0.74730  Biso   1.000  H
  N56      1.0000 0.19490  0.21310  0.71790  Biso   1.000  N
  C325     1.0000 0.11040  0.07290  0.58190  Biso   1.000  C
  C326     1.0000 0.07430  0.11000  0.58800  Biso   1.000  C
  H299     1.0000 0.04160  0.11480  0.57140  Biso   1.000  H
  C327     1.0000 0.20230  0.18520  0.68710  Biso   1.000  C
  C328     1.0000 0.08640  0.14010  0.61860  Biso   1.000  C
  H300     1.0000 0.06140  0.16470  0.62250  Biso   1.000  H
  C329     1.0000 0.14810  0.16500  0.67650  Biso   1.000  C
  C330     1.0000 0.13570  0.13370  0.64360  Biso   1.000  C
  C331     1.0000 0.10620  0.18150  0.70440  Biso   1.000  C
  C332     1.0000 0.17240  0.09730  0.63620  Biso   1.000  C
  H301     1.0000 0.20580  0.09280  0.65230  Biso   1.000  H
  C333     1.0000 0.16090  0.06760  0.60570  Biso   1.000  C
  H302     1.0000 0.18700  0.04390  0.60090  Biso   1.000  H
  C334     1.0000 0.09630  0.03890  0.55030  Biso   1.000  C
  C335     1.0000 0.26230  0.17970  0.66760  Biso   1.000  C
  H303     1.0000 0.26730  0.14910  0.65930  Biso   1.000  H
  H304     1.0000 0.26490  0.19920  0.64480  Biso   1.000  H
  H305     1.0000 0.29320  0.18740  0.68650  Biso   1.000  H
  C336     1.0000 0.04190  0.17070  0.71040  Biso   1.000  C
  H306     1.0000 0.01800  0.18930  0.69320  Biso   1.000  H
  H307     1.0000 0.03500  0.13970  0.70410  Biso   1.000  H
  H308     1.0000 0.03110  0.17630  0.73780  Biso   1.000  H
  O57      1.0000 0.95610  0.95880  0.53530  Biso   1.000  O
  O58      1.0000 0.86480  0.98850  0.54030  Biso   1.000  O
  N57      1.0000 0.86380  0.79000  0.72790  Biso   1.000  N
  H309     1.0000 0.87990  0.77530  0.74730  Biso   1.000  H
  N58      1.0000 0.80510  0.78690  0.71790  Biso   1.000  N
  C337     1.0000 0.88960  0.92710  0.58190  Biso   1.000  C
  C338     1.0000 0.92570  0.89000  0.58800  Biso   1.000  C
  H310     1.0000 0.95840  0.88520  0.57140  Biso   1.000  H
  C339     1.0000 0.79770  0.81480  0.68710  Biso   1.000  C
  C340     1.0000 0.91360  0.85990  0.61860  Biso   1.000  C
  H311     1.0000 0.93860  0.83530  0.62250  Biso   1.000  H
  C341     1.0000 0.85190  0.83500  0.67650  Biso   1.000  C
  C342     1.0000 0.86430  0.86630  0.64360  Biso   1.000  C
  C343     1.0000 0.89380  0.81850  0.70440  Biso   1.000  C
  C344     1.0000 0.82760  0.90270  0.63620  Biso   1.000  C
  H312     1.0000 0.79420  0.90720  0.65230  Biso   1.000  H
  C345     1.0000 0.83910  0.93240  0.60570  Biso   1.000  C
  H313     1.0000 0.81300  0.95610  0.60090  Biso   1.000  H
  C346     1.0000 0.90370  0.96110  0.55030  Biso   1.000  C
  C347     1.0000 0.73770  0.82030  0.66760  Biso   1.000  C
  H314     1.0000 0.73270  0.85090  0.65930  Biso   1.000  H
  H315     1.0000 0.73510  0.80080  0.64480  Biso   1.000  H
  H316     1.0000 0.70680  0.81260  0.68650  Biso   1.000  H
  C348     1.0000 0.95810  0.82930  0.71040  Biso   1.000  C
  H317     1.0000 0.98200  0.81070  0.69320  Biso   1.000  H
  H318     1.0000 0.96500  0.86030  0.70410  Biso   1.000  H
  H319     1.0000 0.96890  0.82370  0.73780  Biso   1.000  H
  O59      1.0000 0.95610  0.45880  0.03530  Biso   1.000  O
  O60      1.0000 0.86480  0.48850  0.04030  Biso   1.000  O
  N59      1.0000 0.86380  0.29000  0.22790  Biso   1.000  N
  H320     1.0000 0.87990  0.27530  0.24730  Biso   1.000  H
  N60      1.0000 0.80510  0.28690  0.21790  Biso   1.000  N
  C349     1.0000 0.88960  0.42710  0.08190  Biso   1.000  C
  C350     1.0000 0.92570  0.39000  0.08800  Biso   1.000  C
  H321     1.0000 0.95840  0.38520  0.07140  Biso   1.000  H
  C351     1.0000 0.79770  0.31480  0.18710  Biso   1.000  C
  C352     1.0000 0.91360  0.35990  0.11860  Biso   1.000  C
  H322     1.0000 0.93860  0.33530  0.12250  Biso   1.000  H
  C353     1.0000 0.85190  0.33500  0.17650  Biso   1.000  C
  C354     1.0000 0.86430  0.36630  0.14360  Biso   1.000  C
  C355     1.0000 0.89380  0.31850  0.20440  Biso   1.000  C
  C356     1.0000 0.82760  0.40270  0.13620  Biso   1.000  C
  H323     1.0000 0.79420  0.40720  0.15230  Biso   1.000  H
  C357     1.0000 0.83910  0.43240  0.10570  Biso   1.000  C
  H324     1.0000 0.81300  0.45610  0.10090  Biso   1.000  H
  C358     1.0000 0.90370  0.46110  0.05030  Biso   1.000  C
  C359     1.0000 0.73770  0.32030  0.16760  Biso   1.000  C
  H325     1.0000 0.73270  0.35090  0.15930  Biso   1.000  H
  H326     1.0000 0.73510  0.30080  0.14480  Biso   1.000  H
  H327     1.0000 0.70680  0.31260  0.18650  Biso   1.000  H
  C360     1.0000 0.95810  0.32930  0.21040  Biso   1.000  C
  H328     1.0000 0.98200  0.31070  0.19320  Biso   1.000  H
  H329     1.0000 0.96500  0.36030  0.20410  Biso   1.000  H
  H330     1.0000 0.96890  0.32370  0.23780  Biso   1.000  H
  O61      1.0000 0.45610  0.95880  0.03530  Biso   1.000  O
  O62      1.0000 0.36480  0.98850  0.04030  Biso   1.000  O
  N61      1.0000 0.36380  0.79000  0.22790  Biso   1.000  N
  H331     1.0000 0.37990  0.77530  0.24730  Biso   1.000  H
  N62      1.0000 0.30510  0.78690  0.21790  Biso   1.000  N
  C361     1.0000 0.38960  0.92710  0.08190  Biso   1.000  C
  C362     1.0000 0.42570  0.89000  0.08800  Biso   1.000  C
  H332     1.0000 0.45840  0.88520  0.07140  Biso   1.000  H
  C363     1.0000 0.29770  0.81480  0.18710  Biso   1.000  C
  C364     1.0000 0.41360  0.85990  0.11860  Biso   1.000  C
  H333     1.0000 0.43860  0.83530  0.12250  Biso   1.000  H
  C365     1.0000 0.35190  0.83500  0.17650  Biso   1.000  C
  C366     1.0000 0.36430  0.86630  0.14360  Biso   1.000  C
  C367     1.0000 0.39380  0.81850  0.20440  Biso   1.000  C
  C368     1.0000 0.32760  0.90270  0.13620  Biso   1.000  C
  H334     1.0000 0.29420  0.90720  0.15230  Biso   1.000  H
  C369     1.0000 0.33910  0.93240  0.10570  Biso   1.000  C
  H335     1.0000 0.31300  0.95610  0.10090  Biso   1.000  H
  C370     1.0000 0.40370  0.96110  0.05030  Biso   1.000  C
  C371     1.0000 0.23770  0.82030  0.16760  Biso   1.000  C
  H336     1.0000 0.23270  0.85090  0.15930  Biso   1.000  H
  H337     1.0000 0.23510  0.80080  0.14480  Biso   1.000  H
  H338     1.0000 0.20680  0.81260  0.18650  Biso   1.000  H
  C372     1.0000 0.45810  0.82930  0.21040  Biso   1.000  C
  H339     1.0000 0.48200  0.81070  0.19320  Biso   1.000  H
  H340     1.0000 0.46500  0.86030  0.20410  Biso   1.000  H
  H341     1.0000 0.46890  0.82370  0.23780  Biso   1.000  H
  O63      1.0000 0.45610  0.45880  0.53530  Biso   1.000  O
  O64      1.0000 0.36480  0.48850  0.54030  Biso   1.000  O
  N63      1.0000 0.36380  0.29000  0.72790  Biso   1.000  N
  H342     1.0000 0.37990  0.27530  0.74730  Biso   1.000  H
  N64      1.0000 0.30510  0.28690  0.71790  Biso   1.000  N
  C373     1.0000 0.38960  0.42710  0.58190  Biso   1.000  C
  C374     1.0000 0.42570  0.39000  0.58800  Biso   1.000  C
  H343     1.0000 0.45840  0.38520  0.57140  Biso   1.000  H
  C375     1.0000 0.29770  0.31480  0.68710  Biso   1.000  C
  C376     1.0000 0.41360  0.35990  0.61860  Biso   1.000  C
  H344     1.0000 0.43860  0.33530  0.62250  Biso   1.000  H
  C377     1.0000 0.35190  0.33500  0.67650  Biso   1.000  C
  C378     1.0000 0.36430  0.36630  0.64360  Biso   1.000  C
  C379     1.0000 0.39380  0.31850  0.70440  Biso   1.000  C
  C380     1.0000 0.32760  0.40270  0.63620  Biso   1.000  C
  H345     1.0000 0.29420  0.40720  0.65230  Biso   1.000  H
  C381     1.0000 0.33910  0.43240  0.60570  Biso   1.000  C
  H346     1.0000 0.31300  0.45610  0.60090  Biso   1.000  H
  C382     1.0000 0.40370  0.46110  0.55030  Biso   1.000  C
  C383     1.0000 0.23770  0.32030  0.66760  Biso   1.000  C
  H347     1.0000 0.23270  0.35090  0.65930  Biso   1.000  H
  H348     1.0000 0.23510  0.30080  0.64480  Biso   1.000  H
  H349     1.0000 0.20680  0.31260  0.68650  Biso   1.000  H
  C384     1.0000 0.45810  0.32930  0.71040  Biso   1.000  C
  H350     1.0000 0.48200  0.31070  0.69320  Biso   1.000  H
  H351     1.0000 0.46500  0.36030  0.70410  Biso   1.000  H
  H352     1.0000 0.46890  0.32370  0.73780  Biso   1.000  H
  Zn9      1.0000 0.50000  0.50000  0.50050  Biso   1.000  Zn
  Zn10     1.0000 0.50000  0.00000  0.00050  Biso   1.000  Zn
  Zn11     1.0000 0.00000  0.50000  0.00050  Biso   1.000  Zn
  Zn12     1.0000 0.00000  0.00000  0.50050  Biso   1.000  Zn
  Zn13     1.0000 0.75000  0.75000  0.75050  Biso   1.000  Zn
  Zn14     1.0000 0.75000  0.25000  0.25050  Biso   1.000  Zn
  Zn15     1.0000 0.25000  0.75000  0.25050  Biso   1.000  Zn
  Zn16     1.0000 0.25000  0.25000  0.75050  Biso   1.000  Zn
  Zn17     1.0000 0.75206  0.50489  0.68707  Biso   1.000  Zn
  O65      1.0000 0.94960  0.29000  0.90002  Biso   1.000  O
  O66      1.0000 0.62440  0.26510  0.48150  Biso   1.000  O
  O67      1.0000 0.86740  0.24880  0.88610  Biso   1.000  O
  O68      1.0000 0.53490  0.29820  0.47273  Biso   1.000  O
  N65      1.0000 0.85460  0.44670  0.69870  Biso   1.000  N
  H353     1.0000 0.86790  0.45670  0.67620  Biso   1.000  H
  N66      1.0000 0.63510  0.46760  0.66570  Biso   1.000  N
  H354     1.0000 0.62030  0.48090  0.68630  Biso   1.000  H
  N67      1.0000 0.80430  0.46170  0.71670  Biso   1.000  N
  N68      1.0000 0.69380  0.47080  0.65390  Biso   1.000  N
  C385     1.0000 0.88610  0.31480  0.84870  Biso   1.000  C
  C386     1.0000 0.60180  0.33080  0.51880  Biso   1.000  C
  C387     1.0000 0.92890  0.34590  0.83530  Biso   1.000  C
  H355     1.0000 0.96680  0.34610  0.84680  Biso   1.000  H
  C388     1.0000 0.56540  0.36720  0.52630  Biso   1.000  C
  H356     1.0000 0.53080  0.37060  0.51110  Biso   1.000  H
  C389     1.0000 0.79830  0.43730  0.75030  Biso   1.000  C
  C390     1.0000 0.69880  0.44540  0.62140  Biso   1.000  C
  C391     1.0000 0.91550  0.37610  0.80540  Biso   1.000  C
  H357     1.0000 0.94390  0.39710  0.79760  Biso   1.000  H
  C392     1.0000 0.57820  0.39860  0.55520  Biso   1.000  C
  H358     1.0000 0.55260  0.42280  0.55910  Biso   1.000  H
  C393     1.0000 0.84550  0.40750  0.75320  Biso   1.000  C
  C394     1.0000 0.64230  0.42530  0.61110  Biso   1.000  C
  C395     1.0000 0.85970  0.37550  0.78660  Biso   1.000  C
  C396     1.0000 0.63040  0.39410  0.57930  Biso   1.000  C
  C397     1.0000 0.88120  0.41440  0.71990  Biso   1.000  C
  C398     1.0000 0.60350  0.44090  0.64100  Biso   1.000  C
  C399     1.0000 0.81730  0.34440  0.79960  Biso   1.000  C
  H359     1.0000 0.77980  0.34360  0.78750  Biso   1.000  H
  C400     1.0000 0.66770  0.35790  0.57140  Biso   1.000  C
  H360     1.0000 0.70270  0.35480  0.58620  Biso   1.000  H
  C401     1.0000 0.83050  0.31470  0.83030  Biso   1.000  C
  H361     1.0000 0.80150  0.29440  0.83880  Biso   1.000  H
  C402     1.0000 0.65470  0.32600  0.54220  Biso   1.000  C
  H362     1.0000 0.68030  0.30180  0.53800  Biso   1.000  H
  C403     1.0000 0.90110  0.28210  0.88060  Biso   1.000  C
  C404     1.0000 0.58650  0.29560  0.48880  Biso   1.000  C
  C405     1.0000 0.74660  0.44400  0.77810  Biso   1.000  C
  H363     1.0000 0.76120  0.45270  0.80400  Biso   1.000  H
  H364     1.0000 0.72450  0.41650  0.78040  Biso   1.000  H
  H365     1.0000 0.72100  0.46720  0.76780  Biso   1.000  H
  C406     1.0000 0.75570  0.44330  0.59920  Biso   1.000  C
  H366     1.0000 0.78270  0.42330  0.61260  Biso   1.000  H
  H367     1.0000 0.77310  0.47280  0.59790  Biso   1.000  H
  H368     1.0000 0.74830  0.43260  0.57250  Biso   1.000  H
  C407     1.0000 0.93710  0.39130  0.70490  Biso   1.000  C
  H369     1.0000 0.96840  0.41310  0.70140  Biso   1.000  H
  H370     1.0000 0.92890  0.37710  0.67970  Biso   1.000  H
  H371     1.0000 0.94960  0.36910  0.72400  Biso   1.000  H
  C408     1.0000 0.53900  0.43210  0.64790  Biso   1.000  C
  H372     1.0000 0.51590  0.44570  0.62690  Biso   1.000  H
  H373     1.0000 0.52730  0.44470  0.67320  Biso   1.000  H
  H374     1.0000 0.53200  0.40030  0.64810  Biso   1.000  H
  Zn18     1.0000 0.75206  0.00489  0.18707  Biso   1.000  Zn
  O69      1.0000 0.94960  0.79000  0.40002  Biso   1.000  O
  O70      1.0000 0.62440  0.76510  0.98150  Biso   1.000  O
  O71      1.0000 0.86740  0.74880  0.38610  Biso   1.000  O
  O72      1.0000 0.53490  0.79820  0.97273  Biso   1.000  O
  N69      1.0000 0.85460  0.94670  0.19870  Biso   1.000  N
  H375     1.0000 0.86790  0.95670  0.17620  Biso   1.000  H
  N70      1.0000 0.63510  0.96760  0.16570  Biso   1.000  N
  H376     1.0000 0.62030  0.98090  0.18630  Biso   1.000  H
  N71      1.0000 0.80430  0.96170  0.21670  Biso   1.000  N
  N72      1.0000 0.69380  0.97080  0.15390  Biso   1.000  N
  C409     1.0000 0.88610  0.81480  0.34870  Biso   1.000  C
  C410     1.0000 0.60180  0.83080  0.01880  Biso   1.000  C
  C411     1.0000 0.92890  0.84590  0.33530  Biso   1.000  C
  H377     1.0000 0.96680  0.84610  0.34680  Biso   1.000  H
  C412     1.0000 0.56540  0.86720  0.02630  Biso   1.000  C
  H378     1.0000 0.53080  0.87060  0.01110  Biso   1.000  H
  C413     1.0000 0.79830  0.93730  0.25030  Biso   1.000  C
  C414     1.0000 0.69880  0.94540  0.12140  Biso   1.000  C
  C415     1.0000 0.91550  0.87610  0.30540  Biso   1.000  C
  H379     1.0000 0.94390  0.89710  0.29760  Biso   1.000  H
  C416     1.0000 0.57820  0.89860  0.05520  Biso   1.000  C
  H380     1.0000 0.55260  0.92280  0.05910  Biso   1.000  H
  C417     1.0000 0.84550  0.90750  0.25320  Biso   1.000  C
  C418     1.0000 0.64230  0.92530  0.11110  Biso   1.000  C
  C419     1.0000 0.85970  0.87550  0.28660  Biso   1.000  C
  C420     1.0000 0.63040  0.89410  0.07930  Biso   1.000  C
  C421     1.0000 0.88120  0.91440  0.21990  Biso   1.000  C
  C422     1.0000 0.60350  0.94090  0.14100  Biso   1.000  C
  C423     1.0000 0.81730  0.84440  0.29960  Biso   1.000  C
  H381     1.0000 0.77980  0.84360  0.28750  Biso   1.000  H
  C424     1.0000 0.66770  0.85790  0.07140  Biso   1.000  C
  H382     1.0000 0.70270  0.85480  0.08620  Biso   1.000  H
  C425     1.0000 0.83050  0.81470  0.33030  Biso   1.000  C
  H383     1.0000 0.80150  0.79440  0.33880  Biso   1.000  H
  C426     1.0000 0.65470  0.82600  0.04220  Biso   1.000  C
  H384     1.0000 0.68030  0.80180  0.03800  Biso   1.000  H
  C427     1.0000 0.90110  0.78210  0.38060  Biso   1.000  C
  C428     1.0000 0.58650  0.79560  0.98880  Biso   1.000  C
  C429     1.0000 0.74660  0.94400  0.27810  Biso   1.000  C
  H385     1.0000 0.76120  0.95270  0.30400  Biso   1.000  H
  H386     1.0000 0.72450  0.91650  0.28040  Biso   1.000  H
  H387     1.0000 0.72100  0.96720  0.26780  Biso   1.000  H
  C430     1.0000 0.75570  0.94330  0.09920  Biso   1.000  C
  H388     1.0000 0.78270  0.92330  0.11260  Biso   1.000  H
  H389     1.0000 0.77310  0.97280  0.09790  Biso   1.000  H
  H390     1.0000 0.74830  0.93260  0.07250  Biso   1.000  H
  C431     1.0000 0.93710  0.89130  0.20490  Biso   1.000  C
  H391     1.0000 0.96840  0.91310  0.20140  Biso   1.000  H
  H392     1.0000 0.92890  0.87710  0.17970  Biso   1.000  H
  H393     1.0000 0.94960  0.86910  0.22400  Biso   1.000  H
  C432     1.0000 0.53900  0.93210  0.14790  Biso   1.000  C
  H394     1.0000 0.51590  0.94570  0.12690  Biso   1.000  H
  H395     1.0000 0.52730  0.94470  0.17320  Biso   1.000  H
  H396     1.0000 0.53200  0.90030  0.14810  Biso   1.000  H
  Zn19     1.0000 0.25206  0.50489  0.18707  Biso   1.000  Zn
  O73      1.0000 0.44960  0.29000  0.40002  Biso   1.000  O
  O74      1.0000 0.12440  0.26510  0.98150  Biso   1.000  O
  O75      1.0000 0.36740  0.24880  0.38610  Biso   1.000  O
  O76      1.0000 0.03490  0.29820  0.97273  Biso   1.000  O
  N73      1.0000 0.35460  0.44670  0.19870  Biso   1.000  N
  H397     1.0000 0.36790  0.45670  0.17620  Biso   1.000  H
  N74      1.0000 0.13510  0.46760  0.16570  Biso   1.000  N
  H398     1.0000 0.12030  0.48090  0.18630  Biso   1.000  H
  N75      1.0000 0.30430  0.46170  0.21670  Biso   1.000  N
  N76      1.0000 0.19380  0.47080  0.15390  Biso   1.000  N
  C433     1.0000 0.38610  0.31480  0.34870  Biso   1.000  C
  C434     1.0000 0.10180  0.33080  0.01880  Biso   1.000  C
  C435     1.0000 0.42890  0.34590  0.33530  Biso   1.000  C
  H399     1.0000 0.46680  0.34610  0.34680  Biso   1.000  H
  C436     1.0000 0.06540  0.36720  0.02630  Biso   1.000  C
  H400     1.0000 0.03080  0.37060  0.01110  Biso   1.000  H
  C437     1.0000 0.29830  0.43730  0.25030  Biso   1.000  C
  C438     1.0000 0.19880  0.44540  0.12140  Biso   1.000  C
  C439     1.0000 0.41550  0.37610  0.30540  Biso   1.000  C
  H401     1.0000 0.44390  0.39710  0.29760  Biso   1.000  H
  C440     1.0000 0.07820  0.39860  0.05520  Biso   1.000  C
  H402     1.0000 0.05260  0.42280  0.05910  Biso   1.000  H
  C441     1.0000 0.34550  0.40750  0.25320  Biso   1.000  C
  C442     1.0000 0.14230  0.42530  0.11110  Biso   1.000  C
  C443     1.0000 0.35970  0.37550  0.28660  Biso   1.000  C
  C444     1.0000 0.13040  0.39410  0.07930  Biso   1.000  C
  C445     1.0000 0.38120  0.41440  0.21990  Biso   1.000  C
  C446     1.0000 0.10350  0.44090  0.14100  Biso   1.000  C
  C447     1.0000 0.31730  0.34440  0.29960  Biso   1.000  C
  H403     1.0000 0.27980  0.34360  0.28750  Biso   1.000  H
  C448     1.0000 0.16770  0.35790  0.07140  Biso   1.000  C
  H404     1.0000 0.20270  0.35480  0.08620  Biso   1.000  H
  C449     1.0000 0.33050  0.31470  0.33030  Biso   1.000  C
  H405     1.0000 0.30150  0.29440  0.33880  Biso   1.000  H
  C450     1.0000 0.15470  0.32600  0.04220  Biso   1.000  C
  H406     1.0000 0.18030  0.30180  0.03800  Biso   1.000  H
  C451     1.0000 0.40110  0.28210  0.38060  Biso   1.000  C
  C452     1.0000 0.08650  0.29560  0.98880  Biso   1.000  C
  C453     1.0000 0.24660  0.44400  0.27810  Biso   1.000  C
  H407     1.0000 0.26120  0.45270  0.30400  Biso   1.000  H
  H408     1.0000 0.22450  0.41650  0.28040  Biso   1.000  H
  H409     1.0000 0.22100  0.46720  0.26780  Biso   1.000  H
  C454     1.0000 0.25570  0.44330  0.09920  Biso   1.000  C
  H410     1.0000 0.28270  0.42330  0.11260  Biso   1.000  H
  H411     1.0000 0.27310  0.47280  0.09790  Biso   1.000  H
  H412     1.0000 0.24830  0.43260  0.07250  Biso   1.000  H
  C455     1.0000 0.43710  0.39130  0.20490  Biso   1.000  C
  H413     1.0000 0.46840  0.41310  0.20140  Biso   1.000  H
  H414     1.0000 0.42890  0.37710  0.17970  Biso   1.000  H
  H415     1.0000 0.44960  0.36910  0.22400  Biso   1.000  H
  C456     1.0000 0.03900  0.43210  0.14790  Biso   1.000  C
  H416     1.0000 0.01590  0.44570  0.12690  Biso   1.000  H
  H417     1.0000 0.02730  0.44470  0.17320  Biso   1.000  H
  H418     1.0000 0.03200  0.40030  0.14810  Biso   1.000  H
  Zn20     1.0000 0.25206  0.00489  0.68707  Biso   1.000  Zn
  O77      1.0000 0.44960  0.79000  0.90002  Biso   1.000  O
  O78      1.0000 0.12440  0.76510  0.48150  Biso   1.000  O
  O79      1.0000 0.36740  0.74880  0.88610  Biso   1.000  O
  O80      1.0000 0.03490  0.79820  0.47273  Biso   1.000  O
  N77      1.0000 0.35460  0.94670  0.69870  Biso   1.000  N
  H419     1.0000 0.36790  0.95670  0.67620  Biso   1.000  H
  N78      1.0000 0.13510  0.96760  0.66570  Biso   1.000  N
  H420     1.0000 0.12030  0.98090  0.68630  Biso   1.000  H
  N79      1.0000 0.30430  0.96170  0.71670  Biso   1.000  N
  N80      1.0000 0.19380  0.97080  0.65390  Biso   1.000  N
  C457     1.0000 0.38610  0.81480  0.84870  Biso   1.000  C
  C458     1.0000 0.10180  0.83080  0.51880  Biso   1.000  C
  C459     1.0000 0.42890  0.84590  0.83530  Biso   1.000  C
  H421     1.0000 0.46680  0.84610  0.84680  Biso   1.000  H
  C460     1.0000 0.06540  0.86720  0.52630  Biso   1.000  C
  H422     1.0000 0.03080  0.87060  0.51110  Biso   1.000  H
  C461     1.0000 0.29830  0.93730  0.75030  Biso   1.000  C
  C462     1.0000 0.19880  0.94540  0.62140  Biso   1.000  C
  C463     1.0000 0.41550  0.87610  0.80540  Biso   1.000  C
  H423     1.0000 0.44390  0.89710  0.79760  Biso   1.000  H
  C464     1.0000 0.07820  0.89860  0.55520  Biso   1.000  C
  H424     1.0000 0.05260  0.92280  0.55910  Biso   1.000  H
  C465     1.0000 0.34550  0.90750  0.75320  Biso   1.000  C
  C466     1.0000 0.14230  0.92530  0.61110  Biso   1.000  C
  C467     1.0000 0.35970  0.87550  0.78660  Biso   1.000  C
  C468     1.0000 0.13040  0.89410  0.57930  Biso   1.000  C
  C469     1.0000 0.38120  0.91440  0.71990  Biso   1.000  C
  C470     1.0000 0.10350  0.94090  0.64100  Biso   1.000  C
  C471     1.0000 0.31730  0.84440  0.79960  Biso   1.000  C
  H425     1.0000 0.27980  0.84360  0.78750  Biso   1.000  H
  C472     1.0000 0.16770  0.85790  0.57140  Biso   1.000  C
  H426     1.0000 0.20270  0.85480  0.58620  Biso   1.000  H
  C473     1.0000 0.33050  0.81470  0.83030  Biso   1.000  C
  H427     1.0000 0.30150  0.79440  0.83880  Biso   1.000  H
  C474     1.0000 0.15470  0.82600  0.54220  Biso   1.000  C
  H428     1.0000 0.18030  0.80180  0.53800  Biso   1.000  H
  C475     1.0000 0.40110  0.78210  0.88060  Biso   1.000  C
  C476     1.0000 0.08650  0.79560  0.48880  Biso   1.000  C
  C477     1.0000 0.24660  0.94400  0.77810  Biso   1.000  C
  H429     1.0000 0.26120  0.95270  0.80400  Biso   1.000  H
  H430     1.0000 0.22450  0.91650  0.78040  Biso   1.000  H
  H431     1.0000 0.22100  0.96720  0.76780  Biso   1.000  H
  C478     1.0000 0.25570  0.94330  0.59920  Biso   1.000  C
  H432     1.0000 0.28270  0.92330  0.61260  Biso   1.000  H
  H433     1.0000 0.27310  0.97280  0.59790  Biso   1.000  H
  H434     1.0000 0.24830  0.93260  0.57250  Biso   1.000  H
  C479     1.0000 0.43710  0.89130  0.70490  Biso   1.000  C
  H435     1.0000 0.46840  0.91310  0.70140  Biso   1.000  H
  H436     1.0000 0.42890  0.87710  0.67970  Biso   1.000  H
  H437     1.0000 0.44960  0.86910  0.72400  Biso   1.000  H
  C480     1.0000 0.03900  0.93210  0.64790  Biso   1.000  C
  H438     1.0000 0.01590  0.94570  0.62690  Biso   1.000  H
  H439     1.0000 0.02730  0.94470  0.67320  Biso   1.000  H
  H440     1.0000 0.03200  0.90030  0.64810  Biso   1.000  H
  Zn21     1.0000 0.49794  0.75489  0.93707  Biso   1.000  Zn
  O81      1.0000 0.30040  0.54000  0.15002  Biso   1.000  O
  O82      1.0000 0.62560  0.51510  0.73150  Biso   1.000  O
  O83      1.0000 0.38260  0.49880  0.13610  Biso   1.000  O
  O84      1.0000 0.71510  0.54820  0.72273  Biso   1.000  O
  N81      1.0000 0.39540  0.69670  0.94870  Biso   1.000  N
  H441     1.0000 0.38210  0.70670  0.92620  Biso   1.000  H
  N82      1.0000 0.61490  0.71760  0.91570  Biso   1.000  N
  H442     1.0000 0.62970  0.73090  0.93630  Biso   1.000  H
  N83      1.0000 0.44570  0.71170  0.96670  Biso   1.000  N
  N84      1.0000 0.55620  0.72080  0.90390  Biso   1.000  N
  C481     1.0000 0.36390  0.56480  0.09870  Biso   1.000  C
  C482     1.0000 0.64820  0.58080  0.76880  Biso   1.000  C
  C483     1.0000 0.32110  0.59590  0.08530  Biso   1.000  C
  H443     1.0000 0.28320  0.59610  0.09680  Biso   1.000  H
  C484     1.0000 0.68460  0.61720  0.77630  Biso   1.000  C
  H444     1.0000 0.71920  0.62060  0.76110  Biso   1.000  H
  C485     1.0000 0.45170  0.68730  0.00030  Biso   1.000  C
  C486     1.0000 0.55120  0.69540  0.87140  Biso   1.000  C
  C487     1.0000 0.33450  0.62610  0.05540  Biso   1.000  C
  H445     1.0000 0.30610  0.64710  0.04760  Biso   1.000  H
  C488     1.0000 0.67180  0.64860  0.80520  Biso   1.000  C
  H446     1.0000 0.69740  0.67280  0.80910  Biso   1.000  H
  C489     1.0000 0.40450  0.65750  0.00320  Biso   1.000  C
  C490     1.0000 0.60770  0.67530  0.86110  Biso   1.000  C
  C491     1.0000 0.39030  0.62550  0.03660  Biso   1.000  C
  C492     1.0000 0.61960  0.64410  0.82930  Biso   1.000  C
  C493     1.0000 0.36880  0.66440  0.96990  Biso   1.000  C
  C494     1.0000 0.64650  0.69090  0.89100  Biso   1.000  C
  C495     1.0000 0.43270  0.59440  0.04960  Biso   1.000  C
  H447     1.0000 0.47020  0.59360  0.03750  Biso   1.000  H
  C496     1.0000 0.58230  0.60790  0.82140  Biso   1.000  C
  H448     1.0000 0.54730  0.60480  0.83620  Biso   1.000  H
  C497     1.0000 0.41950  0.56470  0.08030  Biso   1.000  C
  H449     1.0000 0.44850  0.54440  0.08880  Biso   1.000  H
  C498     1.0000 0.59530  0.57600  0.79220  Biso   1.000  C
  H450     1.0000 0.56970  0.55180  0.78800  Biso   1.000  H
  C499     1.0000 0.34890  0.53210  0.13060  Biso   1.000  C
  C500     1.0000 0.66350  0.54560  0.73880  Biso   1.000  C
  C501     1.0000 0.50340  0.69400  0.02810  Biso   1.000  C
  H451     1.0000 0.48880  0.70270  0.05400  Biso   1.000  H
  H452     1.0000 0.52550  0.66650  0.03040  Biso   1.000  H
  H453     1.0000 0.52900  0.71720  0.01780  Biso   1.000  H
  C502     1.0000 0.49430  0.69330  0.84920  Biso   1.000  C
  H454     1.0000 0.46730  0.67330  0.86260  Biso   1.000  H
  H455     1.0000 0.47690  0.72280  0.84790  Biso   1.000  H
  H456     1.0000 0.50170  0.68260  0.82250  Biso   1.000  H
  C503     1.0000 0.31290  0.64130  0.95490  Biso   1.000  C
  H457     1.0000 0.28160  0.66310  0.95140  Biso   1.000  H
  H458     1.0000 0.32110  0.62710  0.92970  Biso   1.000  H
  H459     1.0000 0.30040  0.61910  0.97400  Biso   1.000  H
  C504     1.0000 0.71100  0.68210  0.89790  Biso   1.000  C
  H460     1.0000 0.73410  0.69570  0.87690  Biso   1.000  H
  H461     1.0000 0.72270  0.69470  0.92320  Biso   1.000  H
  H462     1.0000 0.71800  0.65030  0.89810  Biso   1.000  H
  Zn22     1.0000 0.49794  0.25489  0.43707  Biso   1.000  Zn
  O85      1.0000 0.30040  0.04000  0.65002  Biso   1.000  O
  O86      1.0000 0.62560  0.01510  0.23150  Biso   1.000  O
  O87      1.0000 0.38260  0.99880  0.63610  Biso   1.000  O
  O88      1.0000 0.71510  0.04820  0.22273  Biso   1.000  O
  N85      1.0000 0.39540  0.19670  0.44870  Biso   1.000  N
  H463     1.0000 0.38210  0.20670  0.42620  Biso   1.000  H
  N86      1.0000 0.61490  0.21760  0.41570  Biso   1.000  N
  H464     1.0000 0.62970  0.23090  0.43630  Biso   1.000  H
  N87      1.0000 0.44570  0.21170  0.46670  Biso   1.000  N
  N88      1.0000 0.55620  0.22080  0.40390  Biso   1.000  N
  C505     1.0000 0.36390  0.06480  0.59870  Biso   1.000  C
  C506     1.0000 0.64820  0.08080  0.26880  Biso   1.000  C
  C507     1.0000 0.32110  0.09590  0.58530  Biso   1.000  C
  H465     1.0000 0.28320  0.09610  0.59680  Biso   1.000  H
  C508     1.0000 0.68460  0.11720  0.27630  Biso   1.000  C
  H466     1.0000 0.71920  0.12060  0.26110  Biso   1.000  H
  C509     1.0000 0.45170  0.18730  0.50030  Biso   1.000  C
  C510     1.0000 0.55120  0.19540  0.37140  Biso   1.000  C
  C511     1.0000 0.33450  0.12610  0.55540  Biso   1.000  C
  H467     1.0000 0.30610  0.14710  0.54760  Biso   1.000  H
  C512     1.0000 0.67180  0.14860  0.30520  Biso   1.000  C
  H468     1.0000 0.69740  0.17280  0.30910  Biso   1.000  H
  C513     1.0000 0.40450  0.15750  0.50320  Biso   1.000  C
  C514     1.0000 0.60770  0.17530  0.36110  Biso   1.000  C
  C515     1.0000 0.39030  0.12550  0.53660  Biso   1.000  C
  C516     1.0000 0.61960  0.14410  0.32930  Biso   1.000  C
  C517     1.0000 0.36880  0.16440  0.46990  Biso   1.000  C
  C518     1.0000 0.64650  0.19090  0.39100  Biso   1.000  C
  C519     1.0000 0.43270  0.09440  0.54960  Biso   1.000  C
  H469     1.0000 0.47020  0.09360  0.53750  Biso   1.000  H
  C520     1.0000 0.58230  0.10790  0.32140  Biso   1.000  C
  H470     1.0000 0.54730  0.10480  0.33620  Biso   1.000  H
  C521     1.0000 0.41950  0.06470  0.58030  Biso   1.000  C
  H471     1.0000 0.44850  0.04440  0.58880  Biso   1.000  H
  C522     1.0000 0.59530  0.07600  0.29220  Biso   1.000  C
  H472     1.0000 0.56970  0.05180  0.28800  Biso   1.000  H
  C523     1.0000 0.34890  0.03210  0.63060  Biso   1.000  C
  C524     1.0000 0.66350  0.04560  0.23880  Biso   1.000  C
  C525     1.0000 0.50340  0.19400  0.52810  Biso   1.000  C
  H473     1.0000 0.48880  0.20270  0.55400  Biso   1.000  H
  H474     1.0000 0.52550  0.16650  0.53040  Biso   1.000  H
  H475     1.0000 0.52900  0.21720  0.51780  Biso   1.000  H
  C526     1.0000 0.49430  0.19330  0.34920  Biso   1.000  C
  H476     1.0000 0.46730  0.17330  0.36260  Biso   1.000  H
  H477     1.0000 0.47690  0.22280  0.34790  Biso   1.000  H
  H478     1.0000 0.50170  0.18260  0.32250  Biso   1.000  H
  C527     1.0000 0.31290  0.14130  0.45490  Biso   1.000  C
  H479     1.0000 0.28160  0.16310  0.45140  Biso   1.000  H
  H480     1.0000 0.32110  0.12710  0.42970  Biso   1.000  H
  H481     1.0000 0.30040  0.11910  0.47400  Biso   1.000  H
  C528     1.0000 0.71100  0.18210  0.39790  Biso   1.000  C
  H482     1.0000 0.73410  0.19570  0.37690  Biso   1.000  H
  H483     1.0000 0.72270  0.19470  0.42320  Biso   1.000  H
  H484     1.0000 0.71800  0.15030  0.39810  Biso   1.000  H
  Zn23     1.0000 0.99794  0.75489  0.43707  Biso   1.000  Zn
  O89      1.0000 0.80040  0.54000  0.65002  Biso   1.000  O
  O90      1.0000 0.12560  0.51510  0.23150  Biso   1.000  O
  O91      1.0000 0.88260  0.49880  0.63610  Biso   1.000  O
  O92      1.0000 0.21510  0.54820  0.22273  Biso   1.000  O
  N89      1.0000 0.89540  0.69670  0.44870  Biso   1.000  N
  H485     1.0000 0.88210  0.70670  0.42620  Biso   1.000  H
  N90      1.0000 0.11490  0.71760  0.41570  Biso   1.000  N
  H486     1.0000 0.12970  0.73090  0.43630  Biso   1.000  H
  N91      1.0000 0.94570  0.71170  0.46670  Biso   1.000  N
  N92      1.0000 0.05620  0.72080  0.40390  Biso   1.000  N
  C529     1.0000 0.86390  0.56480  0.59870  Biso   1.000  C
  C530     1.0000 0.14820  0.58080  0.26880  Biso   1.000  C
  C531     1.0000 0.82110  0.59590  0.58530  Biso   1.000  C
  H487     1.0000 0.78320  0.59610  0.59680  Biso   1.000  H
  C532     1.0000 0.18460  0.61720  0.27630  Biso   1.000  C
  H488     1.0000 0.21920  0.62060  0.26110  Biso   1.000  H
  C533     1.0000 0.95170  0.68730  0.50030  Biso   1.000  C
  C534     1.0000 0.05120  0.69540  0.37140  Biso   1.000  C
  C535     1.0000 0.83450  0.62610  0.55540  Biso   1.000  C
  H489     1.0000 0.80610  0.64710  0.54760  Biso   1.000  H
  C536     1.0000 0.17180  0.64860  0.30520  Biso   1.000  C
  H490     1.0000 0.19740  0.67280  0.30910  Biso   1.000  H
  C537     1.0000 0.90450  0.65750  0.50320  Biso   1.000  C
  C538     1.0000 0.10770  0.67530  0.36110  Biso   1.000  C
  C539     1.0000 0.89030  0.62550  0.53660  Biso   1.000  C
  C540     1.0000 0.11960  0.64410  0.32930  Biso   1.000  C
  C541     1.0000 0.86880  0.66440  0.46990  Biso   1.000  C
  C542     1.0000 0.14650  0.69090  0.39100  Biso   1.000  C
  C543     1.0000 0.93270  0.59440  0.54960  Biso   1.000  C
  H491     1.0000 0.97020  0.59360  0.53750  Biso   1.000  H
  C544     1.0000 0.08230  0.60790  0.32140  Biso   1.000  C
  H492     1.0000 0.04730  0.60480  0.33620  Biso   1.000  H
  C545     1.0000 0.91950  0.56470  0.58030  Biso   1.000  C
  H493     1.0000 0.94850  0.54440  0.58880  Biso   1.000  H
  C546     1.0000 0.09530  0.57600  0.29220  Biso   1.000  C
  H494     1.0000 0.06970  0.55180  0.28800  Biso   1.000  H
  C547     1.0000 0.84890  0.53210  0.63060  Biso   1.000  C
  C548     1.0000 0.16350  0.54560  0.23880  Biso   1.000  C
  C549     1.0000 0.00340  0.69400  0.52810  Biso   1.000  C
  H495     1.0000 0.98880  0.70270  0.55400  Biso   1.000  H
  H496     1.0000 0.02550  0.66650  0.53040  Biso   1.000  H
  H497     1.0000 0.02900  0.71720  0.51780  Biso   1.000  H
  C550     1.0000 0.99430  0.69330  0.34920  Biso   1.000  C
  H498     1.0000 0.96730  0.67330  0.36260  Biso   1.000  H
  H499     1.0000 0.97690  0.72280  0.34790  Biso   1.000  H
  H500     1.0000 0.00170  0.68260  0.32250  Biso   1.000  H
  C551     1.0000 0.81290  0.64130  0.45490  Biso   1.000  C
  H501     1.0000 0.78160  0.66310  0.45140  Biso   1.000  H
  H502     1.0000 0.82110  0.62710  0.42970  Biso   1.000  H
  H503     1.0000 0.80040  0.61910  0.47400  Biso   1.000  H
  C552     1.0000 0.21100  0.68210  0.39790  Biso   1.000  C
  H504     1.0000 0.23410  0.69570  0.37690  Biso   1.000  H
  H505     1.0000 0.22270  0.69470  0.42320  Biso   1.000  H
  H506     1.0000 0.21800  0.65030  0.39810  Biso   1.000  H
  Zn24     1.0000 0.99794  0.25489  0.93707  Biso   1.000  Zn
  O93      1.0000 0.80040  0.04000  0.15002  Biso   1.000  O
  O94      1.0000 0.12560  0.01510  0.73150  Biso   1.000  O
  O95      1.0000 0.88260  0.99880  0.13610  Biso   1.000  O
  O96      1.0000 0.21510  0.04820  0.72273  Biso   1.000  O
  N93      1.0000 0.89540  0.19670  0.94870  Biso   1.000  N
  H507     1.0000 0.88210  0.20670  0.92620  Biso   1.000  H
  N94      1.0000 0.11490  0.21760  0.91570  Biso   1.000  N
  H508     1.0000 0.12970  0.23090  0.93630  Biso   1.000  H
  N95      1.0000 0.94570  0.21170  0.96670  Biso   1.000  N
  N96      1.0000 0.05620  0.22080  0.90390  Biso   1.000  N
  C553     1.0000 0.86390  0.06480  0.09870  Biso   1.000  C
  C554     1.0000 0.14820  0.08080  0.76880  Biso   1.000  C
  C555     1.0000 0.82110  0.09590  0.08530  Biso   1.000  C
  H509     1.0000 0.78320  0.09610  0.09680  Biso   1.000  H
  C556     1.0000 0.18460  0.11720  0.77630  Biso   1.000  C
  H510     1.0000 0.21920  0.12060  0.76110  Biso   1.000  H
  C557     1.0000 0.95170  0.18730  0.00030  Biso   1.000  C
  C558     1.0000 0.05120  0.19540  0.87140  Biso   1.000  C
  C559     1.0000 0.83450  0.12610  0.05540  Biso   1.000  C
  H511     1.0000 0.80610  0.14710  0.04760  Biso   1.000  H
  C560     1.0000 0.17180  0.14860  0.80520  Biso   1.000  C
  H512     1.0000 0.19740  0.17280  0.80910  Biso   1.000  H
  C561     1.0000 0.90450  0.15750  0.00320  Biso   1.000  C
  C562     1.0000 0.10770  0.17530  0.86110  Biso   1.000  C
  C563     1.0000 0.89030  0.12550  0.03660  Biso   1.000  C
  C564     1.0000 0.11960  0.14410  0.82930  Biso   1.000  C
  C565     1.0000 0.86880  0.16440  0.96990  Biso   1.000  C
  C566     1.0000 0.14650  0.19090  0.89100  Biso   1.000  C
  C567     1.0000 0.93270  0.09440  0.04960  Biso   1.000  C
  H513     1.0000 0.97020  0.09360  0.03750  Biso   1.000  H
  C568     1.0000 0.08230  0.10790  0.82140  Biso   1.000  C
  H514     1.0000 0.04730  0.10480  0.83620  Biso   1.000  H
  C569     1.0000 0.91950  0.06470  0.08030  Biso   1.000  C
  H515     1.0000 0.94850  0.04440  0.08880  Biso   1.000  H
  C570     1.0000 0.09530  0.07600  0.79220  Biso   1.000  C
  H516     1.0000 0.06970  0.05180  0.78800  Biso   1.000  H
  C571     1.0000 0.84890  0.03210  0.13060  Biso   1.000  C
  C572     1.0000 0.16350  0.04560  0.73880  Biso   1.000  C
  C573     1.0000 0.00340  0.19400  0.02810  Biso   1.000  C
  H517     1.0000 0.98880  0.20270  0.05400  Biso   1.000  H
  H518     1.0000 0.02550  0.16650  0.03040  Biso   1.000  H
  H519     1.0000 0.02900  0.21720  0.01780  Biso   1.000  H
  C574     1.0000 0.99430  0.19330  0.84920  Biso   1.000  C
  H520     1.0000 0.96730  0.17330  0.86260  Biso   1.000  H
  H521     1.0000 0.97690  0.22280  0.84790  Biso   1.000  H
  H522     1.0000 0.00170  0.18260  0.82250  Biso   1.000  H
  C575     1.0000 0.81290  0.14130  0.95490  Biso   1.000  C
  H523     1.0000 0.78160  0.16310  0.95140  Biso   1.000  H
  H524     1.0000 0.82110  0.12710  0.92970  Biso   1.000  H
  H525     1.0000 0.80040  0.11910  0.97400  Biso   1.000  H
  C576     1.0000 0.21100  0.18210  0.89790  Biso   1.000  C
  H526     1.0000 0.23410  0.19570  0.87690  Biso   1.000  H
  H527     1.0000 0.22270  0.19470  0.92320  Biso   1.000  H
  H528     1.0000 0.21800  0.15030  0.89810  Biso   1.000  H
  Zn25     1.0000 0.24794  0.49511  0.68707  Biso   1.000  Zn
  O97      1.0000 0.05040  0.71000  0.90002  Biso   1.000  O
  O98      1.0000 0.37560  0.73490  0.48150  Biso   1.000  O
  O99      1.0000 0.13260  0.75120  0.88610  Biso   1.000  O
  O100     1.0000 0.46510  0.70180  0.47273  Biso   1.000  O
  N97      1.0000 0.14540  0.55330  0.69870  Biso   1.000  N
  H529     1.0000 0.13210  0.54330  0.67620  Biso   1.000  H
  N98      1.0000 0.36490  0.53240  0.66570  Biso   1.000  N
  H530     1.0000 0.37970  0.51910  0.68630  Biso   1.000  H
  N99      1.0000 0.19570  0.53830  0.71670  Biso   1.000  N
  N100     1.0000 0.30620  0.52920  0.65390  Biso   1.000  N
  C577     1.0000 0.11390  0.68520  0.84870  Biso   1.000  C
  C578     1.0000 0.39820  0.66920  0.51880  Biso   1.000  C
  C579     1.0000 0.07110  0.65410  0.83530  Biso   1.000  C
  H531     1.0000 0.03320  0.65390  0.84680  Biso   1.000  H
  C580     1.0000 0.43460  0.63280  0.52630  Biso   1.000  C
  H532     1.0000 0.46920  0.62940  0.51110  Biso   1.000  H
  C581     1.0000 0.20170  0.56270  0.75030  Biso   1.000  C
  C582     1.0000 0.30120  0.55460  0.62140  Biso   1.000  C
  C583     1.0000 0.08450  0.62390  0.80540  Biso   1.000  C
  H533     1.0000 0.05610  0.60290  0.79760  Biso   1.000  H
  C584     1.0000 0.42180  0.60140  0.55520  Biso   1.000  C
  H534     1.0000 0.44740  0.57720  0.55910  Biso   1.000  H
  C585     1.0000 0.15450  0.59250  0.75320  Biso   1.000  C
  C586     1.0000 0.35770  0.57470  0.61110  Biso   1.000  C
  C587     1.0000 0.14030  0.62450  0.78660  Biso   1.000  C
  C588     1.0000 0.36960  0.60590  0.57930  Biso   1.000  C
  C589     1.0000 0.11880  0.58560  0.71990  Biso   1.000  C
  C590     1.0000 0.39650  0.55910  0.64100  Biso   1.000  C
  C591     1.0000 0.18270  0.65560  0.79960  Biso   1.000  C
  H535     1.0000 0.22020  0.65640  0.78750  Biso   1.000  H
  C592     1.0000 0.33230  0.64210  0.57140  Biso   1.000  C
  H536     1.0000 0.29730  0.64520  0.58620  Biso   1.000  H
  C593     1.0000 0.16950  0.68530  0.83030  Biso   1.000  C
  H537     1.0000 0.19850  0.70560  0.83880  Biso   1.000  H
  C594     1.0000 0.34530  0.67400  0.54220  Biso   1.000  C
  H538     1.0000 0.31970  0.69820  0.53800  Biso   1.000  H
  C595     1.0000 0.09890  0.71790  0.88060  Biso   1.000  C
  C596     1.0000 0.41350  0.70440  0.48880  Biso   1.000  C
  C597     1.0000 0.25340  0.55600  0.77810  Biso   1.000  C
  H539     1.0000 0.23880  0.54730  0.80400  Biso   1.000  H
  H540     1.0000 0.27550  0.58350  0.78040  Biso   1.000  H
  H541     1.0000 0.27900  0.53280  0.76780  Biso   1.000  H
  C598     1.0000 0.24430  0.55670  0.59920  Biso   1.000  C
  H542     1.0000 0.21730  0.57670  0.61260  Biso   1.000  H
  H543     1.0000 0.22690  0.52720  0.59790  Biso   1.000  H
  H544     1.0000 0.25170  0.56740  0.57250  Biso   1.000  H
  C599     1.0000 0.06290  0.60870  0.70490  Biso   1.000  C
  H545     1.0000 0.03160  0.58690  0.70140  Biso   1.000  H
  H546     1.0000 0.07110  0.62290  0.67970  Biso   1.000  H
  H547     1.0000 0.05040  0.63090  0.72400  Biso   1.000  H
  C600     1.0000 0.46100  0.56790  0.64790  Biso   1.000  C
  H548     1.0000 0.48410  0.55430  0.62690  Biso   1.000  H
  H549     1.0000 0.47270  0.55530  0.67320  Biso   1.000  H
  H550     1.0000 0.46800  0.59970  0.64810  Biso   1.000  H
  Zn26     1.0000 0.24794  0.99511  0.18707  Biso   1.000  Zn
  O101     1.0000 0.05040  0.21000  0.40002  Biso   1.000  O
  O102     1.0000 0.37560  0.23490  0.98150  Biso   1.000  O
  O103     1.0000 0.13260  0.25120  0.38610  Biso   1.000  O
  O104     1.0000 0.46510  0.20180  0.97273  Biso   1.000  O
  N101     1.0000 0.14540  0.05330  0.19870  Biso   1.000  N
  H551     1.0000 0.13210  0.04330  0.17620  Biso   1.000  H
  N102     1.0000 0.36490  0.03240  0.16570  Biso   1.000  N
  H552     1.0000 0.37970  0.01910  0.18630  Biso   1.000  H
  N103     1.0000 0.19570  0.03830  0.21670  Biso   1.000  N
  N104     1.0000 0.30620  0.02920  0.15390  Biso   1.000  N
  C601     1.0000 0.11390  0.18520  0.34870  Biso   1.000  C
  C602     1.0000 0.39820  0.16920  0.01880  Biso   1.000  C
  C603     1.0000 0.07110  0.15410  0.33530  Biso   1.000  C
  H553     1.0000 0.03320  0.15390  0.34680  Biso   1.000  H
  C604     1.0000 0.43460  0.13280  0.02630  Biso   1.000  C
  H554     1.0000 0.46920  0.12940  0.01110  Biso   1.000  H
  C605     1.0000 0.20170  0.06270  0.25030  Biso   1.000  C
  C606     1.0000 0.30120  0.05460  0.12140  Biso   1.000  C
  C607     1.0000 0.08450  0.12390  0.30540  Biso   1.000  C
  H555     1.0000 0.05610  0.10290  0.29760  Biso   1.000  H
  C608     1.0000 0.42180  0.10140  0.05520  Biso   1.000  C
  H556     1.0000 0.44740  0.07720  0.05910  Biso   1.000  H
  C609     1.0000 0.15450  0.09250  0.25320  Biso   1.000  C
  C610     1.0000 0.35770  0.07470  0.11110  Biso   1.000  C
  C611     1.0000 0.14030  0.12450  0.28660  Biso   1.000  C
  C612     1.0000 0.36960  0.10590  0.07930  Biso   1.000  C
  C613     1.0000 0.11880  0.08560  0.21990  Biso   1.000  C
  C614     1.0000 0.39650  0.05910  0.14100  Biso   1.000  C
  C615     1.0000 0.18270  0.15560  0.29960  Biso   1.000  C
  H557     1.0000 0.22020  0.15640  0.28750  Biso   1.000  H
  C616     1.0000 0.33230  0.14210  0.07140  Biso   1.000  C
  H558     1.0000 0.29730  0.14520  0.08620  Biso   1.000  H
  C617     1.0000 0.16950  0.18530  0.33030  Biso   1.000  C
  H559     1.0000 0.19850  0.20560  0.33880  Biso   1.000  H
  C618     1.0000 0.34530  0.17400  0.04220  Biso   1.000  C
  H560     1.0000 0.31970  0.19820  0.03800  Biso   1.000  H
  C619     1.0000 0.09890  0.21790  0.38060  Biso   1.000  C
  C620     1.0000 0.41350  0.20440  0.98880  Biso   1.000  C
  C621     1.0000 0.25340  0.05600  0.27810  Biso   1.000  C
  H561     1.0000 0.23880  0.04730  0.30400  Biso   1.000  H
  H562     1.0000 0.27550  0.08350  0.28040  Biso   1.000  H
  H563     1.0000 0.27900  0.03280  0.26780  Biso   1.000  H
  C622     1.0000 0.24430  0.05670  0.09920  Biso   1.000  C
  H564     1.0000 0.21730  0.07670  0.11260  Biso   1.000  H
  H565     1.0000 0.22690  0.02720  0.09790  Biso   1.000  H
  H566     1.0000 0.25170  0.06740  0.07250  Biso   1.000  H
  C623     1.0000 0.06290  0.10870  0.20490  Biso   1.000  C
  H567     1.0000 0.03160  0.08690  0.20140  Biso   1.000  H
  H568     1.0000 0.07110  0.12290  0.17970  Biso   1.000  H
  H569     1.0000 0.05040  0.13090  0.22400  Biso   1.000  H
  C624     1.0000 0.46100  0.06790  0.14790  Biso   1.000  C
  H570     1.0000 0.48410  0.05430  0.12690  Biso   1.000  H
  H571     1.0000 0.47270  0.05530  0.17320  Biso   1.000  H
  H572     1.0000 0.46800  0.09970  0.14810  Biso   1.000  H
  Zn27     1.0000 0.74794  0.49511  0.18707  Biso   1.000  Zn
  O105     1.0000 0.55040  0.71000  0.40002  Biso   1.000  O
  O106     1.0000 0.87560  0.73490  0.98150  Biso   1.000  O
  O107     1.0000 0.63260  0.75120  0.38610  Biso   1.000  O
  O108     1.0000 0.96510  0.70180  0.97273  Biso   1.000  O
  N105     1.0000 0.64540  0.55330  0.19870  Biso   1.000  N
  H573     1.0000 0.63210  0.54330  0.17620  Biso   1.000  H
  N106     1.0000 0.86490  0.53240  0.16570  Biso   1.000  N
  H574     1.0000 0.87970  0.51910  0.18630  Biso   1.000  H
  N107     1.0000 0.69570  0.53830  0.21670  Biso   1.000  N
  N108     1.0000 0.80620  0.52920  0.15390  Biso   1.000  N
  C625     1.0000 0.61390  0.68520  0.34870  Biso   1.000  C
  C626     1.0000 0.89820  0.66920  0.01880  Biso   1.000  C
  C627     1.0000 0.57110  0.65410  0.33530  Biso   1.000  C
  H575     1.0000 0.53320  0.65390  0.34680  Biso   1.000  H
  C628     1.0000 0.93460  0.63280  0.02630  Biso   1.000  C
  H576     1.0000 0.96920  0.62940  0.01110  Biso   1.000  H
  C629     1.0000 0.70170  0.56270  0.25030  Biso   1.000  C
  C630     1.0000 0.80120  0.55460  0.12140  Biso   1.000  C
  C631     1.0000 0.58450  0.62390  0.30540  Biso   1.000  C
  H577     1.0000 0.55610  0.60290  0.29760  Biso   1.000  H
  C632     1.0000 0.92180  0.60140  0.05520  Biso   1.000  C
  H578     1.0000 0.94740  0.57720  0.05910  Biso   1.000  H
  C633     1.0000 0.65450  0.59250  0.25320  Biso   1.000  C
  C634     1.0000 0.85770  0.57470  0.11110  Biso   1.000  C
  C635     1.0000 0.64030  0.62450  0.28660  Biso   1.000  C
  C636     1.0000 0.86960  0.60590  0.07930  Biso   1.000  C
  C637     1.0000 0.61880  0.58560  0.21990  Biso   1.000  C
  C638     1.0000 0.89650  0.55910  0.14100  Biso   1.000  C
  C639     1.0000 0.68270  0.65560  0.29960  Biso   1.000  C
  H579     1.0000 0.72020  0.65640  0.28750  Biso   1.000  H
  C640     1.0000 0.83230  0.64210  0.07140  Biso   1.000  C
  H580     1.0000 0.79730  0.64520  0.08620  Biso   1.000  H
  C641     1.0000 0.66950  0.68530  0.33030  Biso   1.000  C
  H581     1.0000 0.69850  0.70560  0.33880  Biso   1.000  H
  C642     1.0000 0.84530  0.67400  0.04220  Biso   1.000  C
  H582     1.0000 0.81970  0.69820  0.03800  Biso   1.000  H
  C643     1.0000 0.59890  0.71790  0.38060  Biso   1.000  C
  C644     1.0000 0.91350  0.70440  0.98880  Biso   1.000  C
  C645     1.0000 0.75340  0.55600  0.27810  Biso   1.000  C
  H583     1.0000 0.73880  0.54730  0.30400  Biso   1.000  H
  H584     1.0000 0.77550  0.58350  0.28040  Biso   1.000  H
  H585     1.0000 0.77900  0.53280  0.26780  Biso   1.000  H
  C646     1.0000 0.74430  0.55670  0.09920  Biso   1.000  C
  H586     1.0000 0.71730  0.57670  0.11260  Biso   1.000  H
  H587     1.0000 0.72690  0.52720  0.09790  Biso   1.000  H
  H588     1.0000 0.75170  0.56740  0.07250  Biso   1.000  H
  C647     1.0000 0.56290  0.60870  0.20490  Biso   1.000  C
  H589     1.0000 0.53160  0.58690  0.20140  Biso   1.000  H
  H590     1.0000 0.57110  0.62290  0.17970  Biso   1.000  H
  H591     1.0000 0.55040  0.63090  0.22400  Biso   1.000  H
  C648     1.0000 0.96100  0.56790  0.14790  Biso   1.000  C
  H592     1.0000 0.98410  0.55430  0.12690  Biso   1.000  H
  H593     1.0000 0.97270  0.55530  0.17320  Biso   1.000  H
  H594     1.0000 0.96800  0.59970  0.14810  Biso   1.000  H
  Zn28     1.0000 0.74794  0.99511  0.68707  Biso   1.000  Zn
  O109     1.0000 0.55040  0.21000  0.90002  Biso   1.000  O
  O110     1.0000 0.87560  0.23490  0.48150  Biso   1.000  O
  O111     1.0000 0.63260  0.25120  0.88610  Biso   1.000  O
  O112     1.0000 0.96510  0.20180  0.47273  Biso   1.000  O
  N109     1.0000 0.64540  0.05330  0.69870  Biso   1.000  N
  H595     1.0000 0.63210  0.04330  0.67620  Biso   1.000  H
  N110     1.0000 0.86490  0.03240  0.66570  Biso   1.000  N
  H596     1.0000 0.87970  0.01910  0.68630  Biso   1.000  H
  N111     1.0000 0.69570  0.03830  0.71670  Biso   1.000  N
  N112     1.0000 0.80620  0.02920  0.65390  Biso   1.000  N
  C649     1.0000 0.61390  0.18520  0.84870  Biso   1.000  C
  C650     1.0000 0.89820  0.16920  0.51880  Biso   1.000  C
  C651     1.0000 0.57110  0.15410  0.83530  Biso   1.000  C
  H597     1.0000 0.53320  0.15390  0.84680  Biso   1.000  H
  C652     1.0000 0.93460  0.13280  0.52630  Biso   1.000  C
  H598     1.0000 0.96920  0.12940  0.51110  Biso   1.000  H
  C653     1.0000 0.70170  0.06270  0.75030  Biso   1.000  C
  C654     1.0000 0.80120  0.05460  0.62140  Biso   1.000  C
  C655     1.0000 0.58450  0.12390  0.80540  Biso   1.000  C
  H599     1.0000 0.55610  0.10290  0.79760  Biso   1.000  H
  C656     1.0000 0.92180  0.10140  0.55520  Biso   1.000  C
  H600     1.0000 0.94740  0.07720  0.55910  Biso   1.000  H
  C657     1.0000 0.65450  0.09250  0.75320  Biso   1.000  C
  C658     1.0000 0.85770  0.07470  0.61110  Biso   1.000  C
  C659     1.0000 0.64030  0.12450  0.78660  Biso   1.000  C
  C660     1.0000 0.86960  0.10590  0.57930  Biso   1.000  C
  C661     1.0000 0.61880  0.08560  0.71990  Biso   1.000  C
  C662     1.0000 0.89650  0.05910  0.64100  Biso   1.000  C
  C663     1.0000 0.68270  0.15560  0.79960  Biso   1.000  C
  H601     1.0000 0.72020  0.15640  0.78750  Biso   1.000  H
  C664     1.0000 0.83230  0.14210  0.57140  Biso   1.000  C
  H602     1.0000 0.79730  0.14520  0.58620  Biso   1.000  H
  C665     1.0000 0.66950  0.18530  0.83030  Biso   1.000  C
  H603     1.0000 0.69850  0.20560  0.83880  Biso   1.000  H
  C666     1.0000 0.84530  0.17400  0.54220  Biso   1.000  C
  H604     1.0000 0.81970  0.19820  0.53800  Biso   1.000  H
  C667     1.0000 0.59890  0.21790  0.88060  Biso   1.000  C
  C668     1.0000 0.91350  0.20440  0.48880  Biso   1.000  C
  C669     1.0000 0.75340  0.05600  0.77810  Biso   1.000  C
  H605     1.0000 0.73880  0.04730  0.80400  Biso   1.000  H
  H606     1.0000 0.77550  0.08350  0.78040  Biso   1.000  H
  H607     1.0000 0.77900  0.03280  0.76780  Biso   1.000  H
  C670     1.0000 0.74430  0.05670  0.59920  Biso   1.000  C
  H608     1.0000 0.71730  0.07670  0.61260  Biso   1.000  H
  H609     1.0000 0.72690  0.02720  0.59790  Biso   1.000  H
  H610     1.0000 0.75170  0.06740  0.57250  Biso   1.000  H
  C671     1.0000 0.56290  0.10870  0.70490  Biso   1.000  C
  H611     1.0000 0.53160  0.08690  0.70140  Biso   1.000  H
  H612     1.0000 0.57110  0.12290  0.67970  Biso   1.000  H
  H613     1.0000 0.55040  0.13090  0.72400  Biso   1.000  H
  C672     1.0000 0.96100  0.06790  0.64790  Biso   1.000  C
  H614     1.0000 0.98410  0.05430  0.62690  Biso   1.000  H
  H615     1.0000 0.97270  0.05530  0.67320  Biso   1.000  H
  H616     1.0000 0.96800  0.09970  0.64810  Biso   1.000  H
  Zn29     1.0000 0.00206  0.74511  0.93707  Biso   1.000  Zn
  O113     1.0000 0.19960  0.96000  0.15002  Biso   1.000  O
  O114     1.0000 0.87440  0.98490  0.73150  Biso   1.000  O
  O115     1.0000 0.11740  0.00120  0.13610  Biso   1.000  O
  O116     1.0000 0.78490  0.95180  0.72273  Biso   1.000  O
  N113     1.0000 0.10460  0.80330  0.94870  Biso   1.000  N
  H617     1.0000 0.11790  0.79330  0.92620  Biso   1.000  H
  N114     1.0000 0.88510  0.78240  0.91570  Biso   1.000  N
  H618     1.0000 0.87030  0.76910  0.93630  Biso   1.000  H
  N115     1.0000 0.05430  0.78830  0.96670  Biso   1.000  N
  N116     1.0000 0.94380  0.77920  0.90390  Biso   1.000  N
  C673     1.0000 0.13610  0.93520  0.09870  Biso   1.000  C
  C674     1.0000 0.85180  0.91920  0.76880  Biso   1.000  C
  C675     1.0000 0.17890  0.90410  0.08530  Biso   1.000  C
  H619     1.0000 0.21680  0.90390  0.09680  Biso   1.000  H
  C676     1.0000 0.81540  0.88280  0.77630  Biso   1.000  C
  H620     1.0000 0.78080  0.87940  0.76110  Biso   1.000  H
  C677     1.0000 0.04830  0.81270  0.00030  Biso   1.000  C
  C678     1.0000 0.94880  0.80460  0.87140  Biso   1.000  C
  C679     1.0000 0.16550  0.87390  0.05540  Biso   1.000  C
  H621     1.0000 0.19390  0.85290  0.04760  Biso   1.000  H
  C680     1.0000 0.82820  0.85140  0.80520  Biso   1.000  C
  H622     1.0000 0.80260  0.82720  0.80910  Biso   1.000  H
  C681     1.0000 0.09550  0.84250  0.00320  Biso   1.000  C
  C682     1.0000 0.89230  0.82470  0.86110  Biso   1.000  C
  C683     1.0000 0.10970  0.87450  0.03660  Biso   1.000  C
  C684     1.0000 0.88040  0.85590  0.82930  Biso   1.000  C
  C685     1.0000 0.13120  0.83560  0.96990  Biso   1.000  C
  C686     1.0000 0.85350  0.80910  0.89100  Biso   1.000  C
  C687     1.0000 0.06730  0.90560  0.04960  Biso   1.000  C
  H623     1.0000 0.02980  0.90640  0.03750  Biso   1.000  H
  C688     1.0000 0.91770  0.89210  0.82140  Biso   1.000  C
  H624     1.0000 0.95270  0.89520  0.83620  Biso   1.000  H
  C689     1.0000 0.08050  0.93530  0.08030  Biso   1.000  C
  H625     1.0000 0.05150  0.95560  0.08880  Biso   1.000  H
  C690     1.0000 0.90470  0.92400  0.79220  Biso   1.000  C
  H626     1.0000 0.93030  0.94820  0.78800  Biso   1.000  H
  C691     1.0000 0.15110  0.96790  0.13060  Biso   1.000  C
  C692     1.0000 0.83650  0.95440  0.73880  Biso   1.000  C
  C693     1.0000 0.99660  0.80600  0.02810  Biso   1.000  C
  H627     1.0000 0.01120  0.79730  0.05400  Biso   1.000  H
  H628     1.0000 0.97450  0.83350  0.03040  Biso   1.000  H
  H629     1.0000 0.97100  0.78280  0.01780  Biso   1.000  H
  C694     1.0000 0.00570  0.80670  0.84920  Biso   1.000  C
  H630     1.0000 0.03270  0.82670  0.86260  Biso   1.000  H
  H631     1.0000 0.02310  0.77720  0.84790  Biso   1.000  H
  H632     1.0000 0.99830  0.81740  0.82250  Biso   1.000  H
  C695     1.0000 0.18710  0.85870  0.95490  Biso   1.000  C
  H633     1.0000 0.21840  0.83690  0.95140  Biso   1.000  H
  H634     1.0000 0.17890  0.87290  0.92970  Biso   1.000  H
  H635     1.0000 0.19960  0.88090  0.97400  Biso   1.000  H
  C696     1.0000 0.78900  0.81790  0.89790  Biso   1.000  C
  H636     1.0000 0.76590  0.80430  0.87690  Biso   1.000  H
  H637     1.0000 0.77730  0.80530  0.92320  Biso   1.000  H
  H638     1.0000 0.78200  0.84970  0.89810  Biso   1.000  H
  Zn30     1.0000 0.00206  0.24511  0.43707  Biso   1.000  Zn
  O117     1.0000 0.19960  0.46000  0.65002  Biso   1.000  O
  O118     1.0000 0.87440  0.48490  0.23150  Biso   1.000  O
  O119     1.0000 0.11740  0.50120  0.63610  Biso   1.000  O
  O120     1.0000 0.78490  0.45180  0.22273  Biso   1.000  O
  N117     1.0000 0.10460  0.30330  0.44870  Biso   1.000  N
  H639     1.0000 0.11790  0.29330  0.42620  Biso   1.000  H
  N118     1.0000 0.88510  0.28240  0.41570  Biso   1.000  N
  H640     1.0000 0.87030  0.26910  0.43630  Biso   1.000  H
  N119     1.0000 0.05430  0.28830  0.46670  Biso   1.000  N
  N120     1.0000 0.94380  0.27920  0.40390  Biso   1.000  N
  C697     1.0000 0.13610  0.43520  0.59870  Biso   1.000  C
  C698     1.0000 0.85180  0.41920  0.26880  Biso   1.000  C
  C699     1.0000 0.17890  0.40410  0.58530  Biso   1.000  C
  H641     1.0000 0.21680  0.40390  0.59680  Biso   1.000  H
  C700     1.0000 0.81540  0.38280  0.27630  Biso   1.000  C
  H642     1.0000 0.78080  0.37940  0.26110  Biso   1.000  H
  C701     1.0000 0.04830  0.31270  0.50030  Biso   1.000  C
  C702     1.0000 0.94880  0.30460  0.37140  Biso   1.000  C
  C703     1.0000 0.16550  0.37390  0.55540  Biso   1.000  C
  H643     1.0000 0.19390  0.35290  0.54760  Biso   1.000  H
  C704     1.0000 0.82820  0.35140  0.30520  Biso   1.000  C
  H644     1.0000 0.80260  0.32720  0.30910  Biso   1.000  H
  C705     1.0000 0.09550  0.34250  0.50320  Biso   1.000  C
  C706     1.0000 0.89230  0.32470  0.36110  Biso   1.000  C
  C707     1.0000 0.10970  0.37450  0.53660  Biso   1.000  C
  C708     1.0000 0.88040  0.35590  0.32930  Biso   1.000  C
  C709     1.0000 0.13120  0.33560  0.46990  Biso   1.000  C
  C710     1.0000 0.85350  0.30910  0.39100  Biso   1.000  C
  C711     1.0000 0.06730  0.40560  0.54960  Biso   1.000  C
  H645     1.0000 0.02980  0.40640  0.53750  Biso   1.000  H
  C712     1.0000 0.91770  0.39210  0.32140  Biso   1.000  C
  H646     1.0000 0.95270  0.39520  0.33620  Biso   1.000  H
  C713     1.0000 0.08050  0.43530  0.58030  Biso   1.000  C
  H647     1.0000 0.05150  0.45560  0.58880  Biso   1.000  H
  C714     1.0000 0.90470  0.42400  0.29220  Biso   1.000  C
  H648     1.0000 0.93030  0.44820  0.28800  Biso   1.000  H
  C715     1.0000 0.15110  0.46790  0.63060  Biso   1.000  C
  C716     1.0000 0.83650  0.45440  0.23880  Biso   1.000  C
  C717     1.0000 0.99660  0.30600  0.52810  Biso   1.000  C
  H649     1.0000 0.01120  0.29730  0.55400  Biso   1.000  H
  H650     1.0000 0.97450  0.33350  0.53040  Biso   1.000  H
  H651     1.0000 0.97100  0.28280  0.51780  Biso   1.000  H
  C718     1.0000 0.00570  0.30670  0.34920  Biso   1.000  C
  H652     1.0000 0.03270  0.32670  0.36260  Biso   1.000  H
  H653     1.0000 0.02310  0.27720  0.34790  Biso   1.000  H
  H654     1.0000 0.99830  0.31740  0.32250  Biso   1.000  H
  C719     1.0000 0.18710  0.35870  0.45490  Biso   1.000  C
  H655     1.0000 0.21840  0.33690  0.45140  Biso   1.000  H
  H656     1.0000 0.17890  0.37290  0.42970  Biso   1.000  H
  H657     1.0000 0.19960  0.38090  0.47400  Biso   1.000  H
  C720     1.0000 0.78900  0.31790  0.39790  Biso   1.000  C
  H658     1.0000 0.76590  0.30430  0.37690  Biso   1.000  H
  H659     1.0000 0.77730  0.30530  0.42320  Biso   1.000  H
  H660     1.0000 0.78200  0.34970  0.39810  Biso   1.000  H
  Zn31     1.0000 0.50206  0.74511  0.43707  Biso   1.000  Zn
  O121     1.0000 0.69960  0.96000  0.65002  Biso   1.000  O
  O122     1.0000 0.37440  0.98490  0.23150  Biso   1.000  O
  O123     1.0000 0.61740  0.00120  0.63610  Biso   1.000  O
  O124     1.0000 0.28490  0.95180  0.22273  Biso   1.000  O
  N121     1.0000 0.60460  0.80330  0.44870  Biso   1.000  N
  H661     1.0000 0.61790  0.79330  0.42620  Biso   1.000  H
  N122     1.0000 0.38510  0.78240  0.41570  Biso   1.000  N
  H662     1.0000 0.37030  0.76910  0.43630  Biso   1.000  H
  N123     1.0000 0.55430  0.78830  0.46670  Biso   1.000  N
  N124     1.0000 0.44380  0.77920  0.40390  Biso   1.000  N
  C721     1.0000 0.63610  0.93520  0.59870  Biso   1.000  C
  C722     1.0000 0.35180  0.91920  0.26880  Biso   1.000  C
  C723     1.0000 0.67890  0.90410  0.58530  Biso   1.000  C
  H663     1.0000 0.71680  0.90390  0.59680  Biso   1.000  H
  C724     1.0000 0.31540  0.88280  0.27630  Biso   1.000  C
  H664     1.0000 0.28080  0.87940  0.26110  Biso   1.000  H
  C725     1.0000 0.54830  0.81270  0.50030  Biso   1.000  C
  C726     1.0000 0.44880  0.80460  0.37140  Biso   1.000  C
  C727     1.0000 0.66550  0.87390  0.55540  Biso   1.000  C
  H665     1.0000 0.69390  0.85290  0.54760  Biso   1.000  H
  C728     1.0000 0.32820  0.85140  0.30520  Biso   1.000  C
  H666     1.0000 0.30260  0.82720  0.30910  Biso   1.000  H
  C729     1.0000 0.59550  0.84250  0.50320  Biso   1.000  C
  C730     1.0000 0.39230  0.82470  0.36110  Biso   1.000  C
  C731     1.0000 0.60970  0.87450  0.53660  Biso   1.000  C
  C732     1.0000 0.38040  0.85590  0.32930  Biso   1.000  C
  C733     1.0000 0.63120  0.83560  0.46990  Biso   1.000  C
  C734     1.0000 0.35350  0.80910  0.39100  Biso   1.000  C
  C735     1.0000 0.56730  0.90560  0.54960  Biso   1.000  C
  H667     1.0000 0.52980  0.90640  0.53750  Biso   1.000  H
  C736     1.0000 0.41770  0.89210  0.32140  Biso   1.000  C
  H668     1.0000 0.45270  0.89520  0.33620  Biso   1.000  H
  C737     1.0000 0.58050  0.93530  0.58030  Biso   1.000  C
  H669     1.0000 0.55150  0.95560  0.58880  Biso   1.000  H
  C738     1.0000 0.40470  0.92400  0.29220  Biso   1.000  C
  H670     1.0000 0.43030  0.94820  0.28800  Biso   1.000  H
  C739     1.0000 0.65110  0.96790  0.63060  Biso   1.000  C
  C740     1.0000 0.33650  0.95440  0.23880  Biso   1.000  C
  C741     1.0000 0.49660  0.80600  0.52810  Biso   1.000  C
  H671     1.0000 0.51120  0.79730  0.55400  Biso   1.000  H
  H672     1.0000 0.47450  0.83350  0.53040  Biso   1.000  H
  H673     1.0000 0.47100  0.78280  0.51780  Biso   1.000  H
  C742     1.0000 0.50570  0.80670  0.34920  Biso   1.000  C
  H674     1.0000 0.53270  0.82670  0.36260  Biso   1.000  H
  H675     1.0000 0.52310  0.77720  0.34790  Biso   1.000  H
  H676     1.0000 0.49830  0.81740  0.32250  Biso   1.000  H
  C743     1.0000 0.68710  0.85870  0.45490  Biso   1.000  C
  H677     1.0000 0.71840  0.83690  0.45140  Biso   1.000  H
  H678     1.0000 0.67890  0.87290  0.42970  Biso   1.000  H
  H679     1.0000 0.69960  0.88090  0.47400  Biso   1.000  H
  C744     1.0000 0.28900  0.81790  0.39790  Biso   1.000  C
  H680     1.0000 0.26590  0.80430  0.37690  Biso   1.000  H
  H681     1.0000 0.27730  0.80530  0.42320  Biso   1.000  H
  H682     1.0000 0.28200  0.84970  0.39810  Biso   1.000  H
  Zn32     1.0000 0.50206  0.24511  0.93707  Biso   1.000  Zn
  O125     1.0000 0.69960  0.46000  0.15002  Biso   1.000  O
  O126     1.0000 0.37440  0.48490  0.73150  Biso   1.000  O
  O127     1.0000 0.61740  0.50120  0.13610  Biso   1.000  O
  O128     1.0000 0.28490  0.45180  0.72273  Biso   1.000  O
  N125     1.0000 0.60460  0.30330  0.94870  Biso   1.000  N
  H683     1.0000 0.61790  0.29330  0.92620  Biso   1.000  H
  N126     1.0000 0.38510  0.28240  0.91570  Biso   1.000  N
  H684     1.0000 0.37030  0.26910  0.93630  Biso   1.000  H
  N127     1.0000 0.55430  0.28830  0.96670  Biso   1.000  N
  N128     1.0000 0.44380  0.27920  0.90390  Biso   1.000  N
  C745     1.0000 0.63610  0.43520  0.09870  Biso   1.000  C
  C746     1.0000 0.35180  0.41920  0.76880  Biso   1.000  C
  C747     1.0000 0.67890  0.40410  0.08530  Biso   1.000  C
  H685     1.0000 0.71680  0.40390  0.09680  Biso   1.000  H
  C748     1.0000 0.31540  0.38280  0.77630  Biso   1.000  C
  H686     1.0000 0.28080  0.37940  0.76110  Biso   1.000  H
  C749     1.0000 0.54830  0.31270  0.00030  Biso   1.000  C
  C750     1.0000 0.44880  0.30460  0.87140  Biso   1.000  C
  C751     1.0000 0.66550  0.37390  0.05540  Biso   1.000  C
  H687     1.0000 0.69390  0.35290  0.04760  Biso   1.000  H
  C752     1.0000 0.32820  0.35140  0.80520  Biso   1.000  C
  H688     1.0000 0.30260  0.32720  0.80910  Biso   1.000  H
  C753     1.0000 0.59550  0.34250  0.00320  Biso   1.000  C
  C754     1.0000 0.39230  0.32470  0.86110  Biso   1.000  C
  C755     1.0000 0.60970  0.37450  0.03660  Biso   1.000  C
  C756     1.0000 0.38040  0.35590  0.82930  Biso   1.000  C
  C757     1.0000 0.63120  0.33560  0.96990  Biso   1.000  C
  C758     1.0000 0.35350  0.30910  0.89100  Biso   1.000  C
  C759     1.0000 0.56730  0.40560  0.04960  Biso   1.000  C
  H689     1.0000 0.52980  0.40640  0.03750  Biso   1.000  H
  C760     1.0000 0.41770  0.39210  0.82140  Biso   1.000  C
  H690     1.0000 0.45270  0.39520  0.83620  Biso   1.000  H
  C761     1.0000 0.58050  0.43530  0.08030  Biso   1.000  C
  H691     1.0000 0.55150  0.45560  0.08880  Biso   1.000  H
  C762     1.0000 0.40470  0.42400  0.79220  Biso   1.000  C
  H692     1.0000 0.43030  0.44820  0.78800  Biso   1.000  H
  C763     1.0000 0.65110  0.46790  0.13060  Biso   1.000  C
  C764     1.0000 0.33650  0.45440  0.73880  Biso   1.000  C
  C765     1.0000 0.49660  0.30600  0.02810  Biso   1.000  C
  H693     1.0000 0.51120  0.29730  0.05400  Biso   1.000  H
  H694     1.0000 0.47450  0.33350  0.03040  Biso   1.000  H
  H695     1.0000 0.47100  0.28280  0.01780  Biso   1.000  H
  C766     1.0000 0.50570  0.30670  0.84920  Biso   1.000  C
  H696     1.0000 0.53270  0.32670  0.86260  Biso   1.000  H
  H697     1.0000 0.52310  0.27720  0.84790  Biso   1.000  H
  H698     1.0000 0.49830  0.31740  0.82250  Biso   1.000  H
  C767     1.0000 0.68710  0.35870  0.95490  Biso   1.000  C
  H699     1.0000 0.71840  0.33690  0.95140  Biso   1.000  H
  H700     1.0000 0.67890  0.37290  0.92970  Biso   1.000  H
  H701     1.0000 0.69960  0.38090  0.97400  Biso   1.000  H
  C768     1.0000 0.28900  0.31790  0.89790  Biso   1.000  C
  H702     1.0000 0.26590  0.30430  0.87690  Biso   1.000  H
  H703     1.0000 0.27730  0.30530  0.92320  Biso   1.000  H
  H704     1.0000 0.28200  0.34970  0.89810  Biso   1.000  H
