data_image0
_cell_length_a       29.608
_cell_length_b       29.608
_cell_length_c       18.158
_cell_angle_alpha    90
_cell_angle_beta     90
_cell_angle_gamma    120

_symmetry_space_group_name_H-M    "P 1"
_symmetry_int_tables_number       1

loop_
  _symmetry_equiv_pos_as_xyz
  'x, y, z'

loop_
  _atom_site_label
  _atom_site_occupancy
  _atom_site_fract_x
  _atom_site_fract_y
  _atom_site_fract_z
  _atom_site_thermal_displace_type
  _atom_site_B_iso_or_equiv
  _atom_site_type_symbol
  Zn1      1.0000 0.62572  0.85443  0.52170  Biso   1.000  Zn
  N1       1.0000 0.63578  0.89499  0.42459  Biso   1.000  N
  N2       1.0000 0.59880  0.79368  0.44659  Biso   1.000  N
  N3       1.0000 0.58255  0.77135  0.33025  Biso   1.000  N
  O1       1.0000 0.47532  0.49313  0.24123  Biso   1.000  O
  O2       1.0000 0.45216  0.52788  0.14993  Biso   1.000  O
  O3       1.0000 0.58095  0.63218  0.74761  Biso   1.000  O
  O4       1.0000 0.49635  0.59070  0.72999  Biso   1.000  O
  C1       1.0000 0.65220  0.94585  0.41770  Biso   1.000  C
  H1       1.0000 0.66090  0.96660  0.46090  Biso   1.000  H
  C2       1.0000 0.65720  0.96944  0.35040  Biso   1.000  C
  H2       1.0000 0.66910  0.00570  0.34750  Biso   1.000  H
  C3       1.0000 0.64460  0.93965  0.28780  Biso   1.000  C
  H3       1.0000 0.64770  0.95520  0.24090  Biso   1.000  H
  C4       1.0000 0.62730  0.88676  0.29330  Biso   1.000  C
  H4       1.0000 0.61860  0.86540  0.25070  Biso   1.000  H
  C5       1.0000 0.62316  0.86609  0.36290  Biso   1.000  C
  C6       1.0000 0.60265  0.81091  0.37852  Biso   1.000  C
  C7       1.0000 0.57537  0.74056  0.44260  Biso   1.000  C
  C8       1.0000 0.56454  0.72549  0.36948  Biso   1.000  C
  C9       1.0000 0.54021  0.67518  0.33110  Biso   1.000  C
  C10      1.0000 0.51611  0.66986  0.26250  Biso   1.000  C
  H5       1.0000 0.51530  0.69880  0.24160  Biso   1.000  H
  C11      1.0000 0.49384  0.62339  0.22530  Biso   1.000  C
  H6       1.0000 0.47810  0.62080  0.17870  Biso   1.000  H
  C12      1.0000 0.49382  0.57999  0.25438  Biso   1.000  C
  C13      1.0000 0.51711  0.58478  0.32330  Biso   1.000  C
  H7       1.0000 0.51670  0.55530  0.34480  Biso   1.000  H
  C14      1.0000 0.54060  0.63165  0.36030  Biso   1.000  C
  H8       1.0000 0.55730  0.63450  0.40610  Biso   1.000  H
  C15      1.0000 0.47143  0.53028  0.21151  Biso   1.000  C
  C16      1.0000 0.56469  0.70977  0.51073  Biso   1.000  C
  C17      1.0000 0.60254  0.72890  0.56560  Biso   1.000  C
  H9       1.0000 0.63420  0.76080  0.55840  Biso   1.000  H
  C18      1.0000 0.59420  0.70152  0.63080  Biso   1.000  C
  H10      1.0000 0.62020  0.71490  0.66800  Biso   1.000  H
  C19      1.0000 0.54873  0.65530  0.64220  Biso   1.000  C
  C20      1.0000 0.50980  0.63630  0.58850  Biso   1.000  C
  H11      1.0000 0.47780  0.60490  0.59690  Biso   1.000  H
  C21      1.0000 0.51780  0.66323  0.52280  Biso   1.000  C
  H12      1.0000 0.49140  0.65010  0.48610  Biso   1.000  H
  C22      1.0000 0.54192  0.62470  0.71120  Biso   1.000  C
  H13      1.0000 0.58530  0.77530  0.27700  Biso   1.000  H
  Zn2      1.0000 0.29239  0.18776  0.85503  Biso   1.000  Zn
  N4       1.0000 0.30245  0.22832  0.75792  Biso   1.000  N
  N5       1.0000 0.26547  0.12701  0.77992  Biso   1.000  N
  N6       1.0000 0.24922  0.10468  0.66358  Biso   1.000  N
  O5       1.0000 0.14199  0.82646  0.57456  Biso   1.000  O
  O6       1.0000 0.11883  0.86121  0.48326  Biso   1.000  O
  O7       1.0000 0.24762  0.96551  0.08094  Biso   1.000  O
  O8       1.0000 0.16302  0.92403  0.06332  Biso   1.000  O
  C23      1.0000 0.31887  0.27918  0.75103  Biso   1.000  C
  H14      1.0000 0.32757  0.29993  0.79423  Biso   1.000  H
  C24      1.0000 0.32387  0.30277  0.68373  Biso   1.000  C
  H15      1.0000 0.33577  0.33903  0.68083  Biso   1.000  H
  C25      1.0000 0.31127  0.27298  0.62113  Biso   1.000  C
  H16      1.0000 0.31437  0.28853  0.57423  Biso   1.000  H
  C26      1.0000 0.29397  0.22009  0.62663  Biso   1.000  C
  H17      1.0000 0.28527  0.19873  0.58403  Biso   1.000  H
  C27      1.0000 0.28983  0.19942  0.69623  Biso   1.000  C
  C28      1.0000 0.26932  0.14424  0.71185  Biso   1.000  C
  C29      1.0000 0.24204  0.07389  0.77593  Biso   1.000  C
  C30      1.0000 0.23121  0.05882  0.70281  Biso   1.000  C
  C31      1.0000 0.20688  0.00851  0.66443  Biso   1.000  C
  C32      1.0000 0.18278  0.00319  0.59583  Biso   1.000  C
  H18      1.0000 0.18197  0.03213  0.57493  Biso   1.000  H
  C33      1.0000 0.16051  0.95672  0.55863  Biso   1.000  C
  H19      1.0000 0.14477  0.95413  0.51203  Biso   1.000  H
  C34      1.0000 0.16049  0.91332  0.58771  Biso   1.000  C
  C35      1.0000 0.18378  0.91811  0.65663  Biso   1.000  C
  H20      1.0000 0.18337  0.88863  0.67813  Biso   1.000  H
  C36      1.0000 0.20727  0.96498  0.69363  Biso   1.000  C
  H21      1.0000 0.22397  0.96783  0.73943  Biso   1.000  H
  C37      1.0000 0.13810  0.86361  0.54484  Biso   1.000  C
  C38      1.0000 0.23136  0.04310  0.84406  Biso   1.000  C
  C39      1.0000 0.26921  0.06223  0.89893  Biso   1.000  C
  H22      1.0000 0.30087  0.09413  0.89173  Biso   1.000  H
  C40      1.0000 0.26087  0.03485  0.96413  Biso   1.000  C
  H23      1.0000 0.28687  0.04823  0.00133  Biso   1.000  H
  C41      1.0000 0.21540  0.98863  0.97553  Biso   1.000  C
  C42      1.0000 0.17647  0.96963  0.92183  Biso   1.000  C
  H24      1.0000 0.14447  0.93823  0.93023  Biso   1.000  H
  C43      1.0000 0.18447  0.99656  0.85613  Biso   1.000  C
  H25      1.0000 0.15807  0.98343  0.81943  Biso   1.000  H
  C44      1.0000 0.20859  0.95803  0.04453  Biso   1.000  C
  H26      1.0000 0.25197  0.10863  0.61033  Biso   1.000  H
  Zn3      1.0000 0.95905  0.52110  0.18837  Biso   1.000  Zn
  N7       1.0000 0.96911  0.56166  0.09126  Biso   1.000  N
  N8       1.0000 0.93213  0.46035  0.11326  Biso   1.000  N
  N9       1.0000 0.91588  0.43802  0.99692  Biso   1.000  N
  O9       1.0000 0.80865  0.15980  0.90790  Biso   1.000  O
  O10      1.0000 0.78549  0.19455  0.81660  Biso   1.000  O
  O11      1.0000 0.91428  0.29885  0.41428  Biso   1.000  O
  O12      1.0000 0.82968  0.25737  0.39666  Biso   1.000  O
  C45      1.0000 0.98553  0.61252  0.08437  Biso   1.000  C
  H27      1.0000 0.99423  0.63327  0.12757  Biso   1.000  H
  C46      1.0000 0.99053  0.63611  0.01707  Biso   1.000  C
  H28      1.0000 0.00243  0.67237  0.01417  Biso   1.000  H
  C47      1.0000 0.97793  0.60632  0.95447  Biso   1.000  C
  H29      1.0000 0.98103  0.62187  0.90757  Biso   1.000  H
  C48      1.0000 0.96063  0.55343  0.95997  Biso   1.000  C
  H30      1.0000 0.95193  0.53207  0.91737  Biso   1.000  H
  C49      1.0000 0.95649  0.53276  0.02957  Biso   1.000  C
  C50      1.0000 0.93598  0.47758  0.04519  Biso   1.000  C
  C51      1.0000 0.90870  0.40723  0.10927  Biso   1.000  C
  C52      1.0000 0.89787  0.39216  0.03615  Biso   1.000  C
  C53      1.0000 0.87354  0.34185  0.99777  Biso   1.000  C
  C54      1.0000 0.84944  0.33653  0.92917  Biso   1.000  C
  H31      1.0000 0.84863  0.36547  0.90827  Biso   1.000  H
  C55      1.0000 0.82717  0.29006  0.89197  Biso   1.000  C
  H32      1.0000 0.81143  0.28747  0.84537  Biso   1.000  H
  C56      1.0000 0.82715  0.24666  0.92105  Biso   1.000  C
  C57      1.0000 0.85044  0.25145  0.98997  Biso   1.000  C
  H33      1.0000 0.85003  0.22197  0.01147  Biso   1.000  H
  C58      1.0000 0.87393  0.29832  0.02697  Biso   1.000  C
  H34      1.0000 0.89063  0.30117  0.07277  Biso   1.000  H
  C59      1.0000 0.80476  0.19695  0.87818  Biso   1.000  C
  C60      1.0000 0.89802  0.37644  0.17740  Biso   1.000  C
  C61      1.0000 0.93587  0.39557  0.23227  Biso   1.000  C
  H35      1.0000 0.96753  0.42747  0.22507  Biso   1.000  H
  C62      1.0000 0.92753  0.36819  0.29747  Biso   1.000  C
  H36      1.0000 0.95353  0.38157  0.33467  Biso   1.000  H
  C63      1.0000 0.88206  0.32197  0.30887  Biso   1.000  C
  C64      1.0000 0.84313  0.30297  0.25517  Biso   1.000  C
  H37      1.0000 0.81113  0.27157  0.26357  Biso   1.000  H
  C65      1.0000 0.85113  0.32990  0.18947  Biso   1.000  C
  H38      1.0000 0.82473  0.31677  0.15277  Biso   1.000  H
  C66      1.0000 0.87525  0.29137  0.37787  Biso   1.000  C
  H39      1.0000 0.91863  0.44197  0.94367  Biso   1.000  H
  Zn4      1.0000 0.14557  0.77129  0.52170  Biso   1.000  Zn
  N10      1.0000 0.10501  0.74079  0.42459  Biso   1.000  N
  N11      1.0000 0.20632  0.80512  0.44659  Biso   1.000  N
  N12      1.0000 0.22865  0.81120  0.33025  Biso   1.000  N
  O13      1.0000 0.50687  0.98219  0.24123  Biso   1.000  O
  O14      1.0000 0.47212  0.92428  0.14993  Biso   1.000  O
  O15      1.0000 0.36782  0.94877  0.74761  Biso   1.000  O
  O16      1.0000 0.40930  0.90565  0.72999  Biso   1.000  O
  C67      1.0000 0.05415  0.70635  0.41770  Biso   1.000  C
  H40      1.0000 0.03340  0.69430  0.46090  Biso   1.000  H
  C68      1.0000 0.03056  0.68776  0.35040  Biso   1.000  C
  H41      1.0000 0.99430  0.66340  0.34750  Biso   1.000  H
  C69      1.0000 0.06035  0.70495  0.28780  Biso   1.000  C
  H42      1.0000 0.04480  0.69250  0.24090  Biso   1.000  H
  C70      1.0000 0.11324  0.74054  0.29330  Biso   1.000  C
  H43      1.0000 0.13460  0.75320  0.25070  Biso   1.000  H
  C71      1.0000 0.13391  0.75707  0.36290  Biso   1.000  C
  C72      1.0000 0.18909  0.79174  0.37852  Biso   1.000  C
  C73      1.0000 0.25944  0.83481  0.44260  Biso   1.000  C
  C74      1.0000 0.27451  0.83905  0.36948  Biso   1.000  C
  C75      1.0000 0.32482  0.86503  0.33110  Biso   1.000  C
  C76      1.0000 0.33014  0.84625  0.26250  Biso   1.000  C
  H44      1.0000 0.30120  0.81650  0.24160  Biso   1.000  H
  C77      1.0000 0.37661  0.87045  0.22530  Biso   1.000  C
  H45      1.0000 0.37920  0.85730  0.17870  Biso   1.000  H
  C78      1.0000 0.42001  0.91383  0.25438  Biso   1.000  C
  C79      1.0000 0.41522  0.93233  0.32330  Biso   1.000  C
  H46      1.0000 0.44470  0.96140  0.34480  Biso   1.000  H
  C80      1.0000 0.36835  0.90895  0.36030  Biso   1.000  C
  H47      1.0000 0.36550  0.92280  0.40610  Biso   1.000  H
  C81      1.0000 0.46972  0.94115  0.21151  Biso   1.000  C
  C82      1.0000 0.29023  0.85492  0.51073  Biso   1.000  C
  C83      1.0000 0.27110  0.87364  0.56560  Biso   1.000  C
  H48      1.0000 0.23920  0.87340  0.55840  Biso   1.000  H
  C84      1.0000 0.29848  0.89268  0.63080  Biso   1.000  C
  H49      1.0000 0.28510  0.90530  0.66800  Biso   1.000  H
  C85      1.0000 0.34470  0.89343  0.64220  Biso   1.000  C
  C86      1.0000 0.36370  0.87350  0.58850  Biso   1.000  C
  H50      1.0000 0.39510  0.87290  0.59690  Biso   1.000  H
  C87      1.0000 0.33677  0.85457  0.52280  Biso   1.000  C
  H51      1.0000 0.34990  0.84130  0.48610  Biso   1.000  H
  C88      1.0000 0.37530  0.91722  0.71120  Biso   1.000  C
  H52      1.0000 0.22470  0.81000  0.27700  Biso   1.000  H
  Zn5      1.0000 0.81224  0.10462  0.85503  Biso   1.000  Zn
  N13      1.0000 0.77168  0.07412  0.75792  Biso   1.000  N
  N14      1.0000 0.87299  0.13845  0.77992  Biso   1.000  N
  N15      1.0000 0.89532  0.14453  0.66358  Biso   1.000  N
  O17      1.0000 0.17354  0.31552  0.57456  Biso   1.000  O
  O18      1.0000 0.13879  0.25761  0.48326  Biso   1.000  O
  O19      1.0000 0.03449  0.28210  0.08094  Biso   1.000  O
  O20      1.0000 0.07597  0.23898  0.06332  Biso   1.000  O
  C89      1.0000 0.72082  0.03968  0.75103  Biso   1.000  C
  H53      1.0000 0.70007  0.02763  0.79423  Biso   1.000  H
  C90      1.0000 0.69723  0.02109  0.68373  Biso   1.000  C
  H54      1.0000 0.66097  0.99673  0.68083  Biso   1.000  H
  C91      1.0000 0.72702  0.03828  0.62113  Biso   1.000  C
  H55      1.0000 0.71147  0.02583  0.57423  Biso   1.000  H
  C92      1.0000 0.77991  0.07387  0.62663  Biso   1.000  C
  H56      1.0000 0.80127  0.08653  0.58403  Biso   1.000  H
  C93      1.0000 0.80058  0.09040  0.69623  Biso   1.000  C
  C94      1.0000 0.85576  0.12507  0.71185  Biso   1.000  C
  C95      1.0000 0.92611  0.16814  0.77593  Biso   1.000  C
  C96      1.0000 0.94118  0.17238  0.70281  Biso   1.000  C
  C97      1.0000 0.99149  0.19836  0.66443  Biso   1.000  C
  C98      1.0000 0.99681  0.17958  0.59583  Biso   1.000  C
  H57      1.0000 0.96787  0.14983  0.57493  Biso   1.000  H
  C99      1.0000 0.04328  0.20378  0.55863  Biso   1.000  C
  H58      1.0000 0.04587  0.19063  0.51203  Biso   1.000  H
  C100     1.0000 0.08668  0.24716  0.58771  Biso   1.000  C
  C101     1.0000 0.08189  0.26566  0.65663  Biso   1.000  C
  H59      1.0000 0.11137  0.29473  0.67813  Biso   1.000  H
  C102     1.0000 0.03502  0.24228  0.69363  Biso   1.000  C
  H60      1.0000 0.03217  0.25613  0.73943  Biso   1.000  H
  C103     1.0000 0.13639  0.27448  0.54484  Biso   1.000  C
  C104     1.0000 0.95690  0.18825  0.84406  Biso   1.000  C
  C105     1.0000 0.93777  0.20697  0.89893  Biso   1.000  C
  H61      1.0000 0.90587  0.20673  0.89173  Biso   1.000  H
  C106     1.0000 0.96515  0.22601  0.96413  Biso   1.000  C
  H62      1.0000 0.95177  0.23863  0.00133  Biso   1.000  H
  C107     1.0000 0.01137  0.22676  0.97553  Biso   1.000  C
  C108     1.0000 0.03037  0.20683  0.92183  Biso   1.000  C
  H63      1.0000 0.06177  0.20623  0.93023  Biso   1.000  H
  C109     1.0000 0.00344  0.18790  0.85613  Biso   1.000  C
  H64      1.0000 0.01657  0.17463  0.81943  Biso   1.000  H
  C110     1.0000 0.04197  0.25055  0.04453  Biso   1.000  C
  H65      1.0000 0.89137  0.14333  0.61033  Biso   1.000  H
  Zn6      1.0000 0.47890  0.43796  0.18837  Biso   1.000  Zn
  N16      1.0000 0.43834  0.40746  0.09126  Biso   1.000  N
  N17      1.0000 0.53965  0.47179  0.11326  Biso   1.000  N
  N18      1.0000 0.56198  0.47787  0.99692  Biso   1.000  N
  O21      1.0000 0.84020  0.64886  0.90790  Biso   1.000  O
  O22      1.0000 0.80545  0.59095  0.81660  Biso   1.000  O
  O23      1.0000 0.70115  0.61544  0.41428  Biso   1.000  O
  O24      1.0000 0.74263  0.57232  0.39666  Biso   1.000  O
  C111     1.0000 0.38748  0.37302  0.08437  Biso   1.000  C
  H66      1.0000 0.36673  0.36097  0.12757  Biso   1.000  H
  C112     1.0000 0.36389  0.35443  0.01707  Biso   1.000  C
  H67      1.0000 0.32763  0.33007  0.01417  Biso   1.000  H
  C113     1.0000 0.39368  0.37162  0.95447  Biso   1.000  C
  H68      1.0000 0.37813  0.35917  0.90757  Biso   1.000  H
  C114     1.0000 0.44657  0.40721  0.95997  Biso   1.000  C
  H69      1.0000 0.46793  0.41987  0.91737  Biso   1.000  H
  C115     1.0000 0.46724  0.42374  0.02957  Biso   1.000  C
  C116     1.0000 0.52242  0.45841  0.04519  Biso   1.000  C
  C117     1.0000 0.59277  0.50148  0.10927  Biso   1.000  C
  C118     1.0000 0.60784  0.50572  0.03615  Biso   1.000  C
  C119     1.0000 0.65815  0.53170  0.99777  Biso   1.000  C
  C120     1.0000 0.66347  0.51292  0.92917  Biso   1.000  C
  H70      1.0000 0.63453  0.48317  0.90827  Biso   1.000  H
  C121     1.0000 0.70994  0.53712  0.89197  Biso   1.000  C
  H71      1.0000 0.71253  0.52397  0.84537  Biso   1.000  H
  C122     1.0000 0.75334  0.58050  0.92105  Biso   1.000  C
  C123     1.0000 0.74855  0.59900  0.98997  Biso   1.000  C
  H72      1.0000 0.77803  0.62807  0.01147  Biso   1.000  H
  C124     1.0000 0.70168  0.57562  0.02697  Biso   1.000  C
  H73      1.0000 0.69883  0.58947  0.07277  Biso   1.000  H
  C125     1.0000 0.80305  0.60782  0.87818  Biso   1.000  C
  C126     1.0000 0.62356  0.52159  0.17740  Biso   1.000  C
  C127     1.0000 0.60443  0.54031  0.23227  Biso   1.000  C
  H74      1.0000 0.57253  0.54007  0.22507  Biso   1.000  H
  C128     1.0000 0.63181  0.55935  0.29747  Biso   1.000  C
  H75      1.0000 0.61843  0.57197  0.33467  Biso   1.000  H
  C129     1.0000 0.67803  0.56010  0.30887  Biso   1.000  C
  C130     1.0000 0.69703  0.54017  0.25517  Biso   1.000  C
  H76      1.0000 0.72843  0.53957  0.26357  Biso   1.000  H
  C131     1.0000 0.67010  0.52124  0.18947  Biso   1.000  C
  H77      1.0000 0.68323  0.50797  0.15277  Biso   1.000  H
  C132     1.0000 0.70863  0.58389  0.37787  Biso   1.000  C
  H78      1.0000 0.55803  0.47667  0.94367  Biso   1.000  H
  Zn7      1.0000 0.22871  0.37428  0.52170  Biso   1.000  Zn
  N19      1.0000 0.25921  0.36422  0.42459  Biso   1.000  N
  N20      1.0000 0.19488  0.40120  0.44659  Biso   1.000  N
  N21      1.0000 0.18880  0.41745  0.33025  Biso   1.000  N
  O25      1.0000 0.01781  0.52468  0.24123  Biso   1.000  O
  O26      1.0000 0.07572  0.54784  0.14993  Biso   1.000  O
  O27      1.0000 0.05123  0.41905  0.74761  Biso   1.000  O
  O28      1.0000 0.09435  0.50365  0.72999  Biso   1.000  O
  C133     1.0000 0.29365  0.34780  0.41770  Biso   1.000  C
  H79      1.0000 0.30570  0.33910  0.46090  Biso   1.000  H
  C134     1.0000 0.31224  0.34280  0.35040  Biso   1.000  C
  H80      1.0000 0.33660  0.33090  0.34750  Biso   1.000  H
  C135     1.0000 0.29505  0.35540  0.28780  Biso   1.000  C
  H81      1.0000 0.30750  0.35230  0.24090  Biso   1.000  H
  C136     1.0000 0.25946  0.37270  0.29330  Biso   1.000  C
  H82      1.0000 0.24680  0.38140  0.25070  Biso   1.000  H
  C137     1.0000 0.24293  0.37684  0.36290  Biso   1.000  C
  C138     1.0000 0.20826  0.39735  0.37852  Biso   1.000  C
  C139     1.0000 0.16519  0.42463  0.44260  Biso   1.000  C
  C140     1.0000 0.16095  0.43546  0.36948  Biso   1.000  C
  C141     1.0000 0.13497  0.45979  0.33110  Biso   1.000  C
  C142     1.0000 0.15375  0.48389  0.26250  Biso   1.000  C
  H83      1.0000 0.18350  0.48470  0.24160  Biso   1.000  H
  C143     1.0000 0.12955  0.50616  0.22530  Biso   1.000  C
  H84      1.0000 0.14270  0.52190  0.17870  Biso   1.000  H
  C144     1.0000 0.08617  0.50618  0.25438  Biso   1.000  C
  C145     1.0000 0.06767  0.48289  0.32330  Biso   1.000  C
  H85      1.0000 0.03860  0.48330  0.34480  Biso   1.000  H
  C146     1.0000 0.09105  0.45940  0.36030  Biso   1.000  C
  H86      1.0000 0.07720  0.44270  0.40610  Biso   1.000  H
  C147     1.0000 0.05885  0.52857  0.21151  Biso   1.000  C
  C148     1.0000 0.14508  0.43531  0.51073  Biso   1.000  C
  C149     1.0000 0.12636  0.39746  0.56560  Biso   1.000  C
  H87      1.0000 0.12660  0.36580  0.55840  Biso   1.000  H
  C150     1.0000 0.10732  0.40580  0.63080  Biso   1.000  C
  H88      1.0000 0.09470  0.37980  0.66800  Biso   1.000  H
  C151     1.0000 0.10657  0.45127  0.64220  Biso   1.000  C
  C152     1.0000 0.12650  0.49020  0.58850  Biso   1.000  C
  H89      1.0000 0.12710  0.52220  0.59690  Biso   1.000  H
  C153     1.0000 0.14543  0.48220  0.52280  Biso   1.000  C
  H90      1.0000 0.15870  0.50860  0.48610  Biso   1.000  H
  C154     1.0000 0.08278  0.45808  0.71120  Biso   1.000  C
  H91      1.0000 0.19000  0.41470  0.27700  Biso   1.000  H
  Zn8      1.0000 0.89538  0.70761  0.85503  Biso   1.000  Zn
  N22      1.0000 0.92588  0.69755  0.75792  Biso   1.000  N
  N23      1.0000 0.86155  0.73453  0.77992  Biso   1.000  N
  N24      1.0000 0.85547  0.75078  0.66358  Biso   1.000  N
  O29      1.0000 0.68448  0.85801  0.57456  Biso   1.000  O
  O30      1.0000 0.74239  0.88117  0.48326  Biso   1.000  O
  O31      1.0000 0.71790  0.75238  0.08094  Biso   1.000  O
  O32      1.0000 0.76102  0.83698  0.06332  Biso   1.000  O
  C155     1.0000 0.96032  0.68113  0.75103  Biso   1.000  C
  H92      1.0000 0.97237  0.67243  0.79423  Biso   1.000  H
  C156     1.0000 0.97891  0.67613  0.68373  Biso   1.000  C
  H93      1.0000 0.00327  0.66423  0.68083  Biso   1.000  H
  C157     1.0000 0.96172  0.68873  0.62113  Biso   1.000  C
  H94      1.0000 0.97417  0.68563  0.57423  Biso   1.000  H
  C158     1.0000 0.92613  0.70603  0.62663  Biso   1.000  C
  H95      1.0000 0.91347  0.71473  0.58403  Biso   1.000  H
  C159     1.0000 0.90960  0.71017  0.69623  Biso   1.000  C
  C160     1.0000 0.87493  0.73068  0.71185  Biso   1.000  C
  C161     1.0000 0.83186  0.75796  0.77593  Biso   1.000  C
  C162     1.0000 0.82762  0.76879  0.70281  Biso   1.000  C
  C163     1.0000 0.80164  0.79312  0.66443  Biso   1.000  C
  C164     1.0000 0.82042  0.81722  0.59583  Biso   1.000  C
  H96      1.0000 0.85017  0.81803  0.57493  Biso   1.000  H
  C165     1.0000 0.79622  0.83949  0.55863  Biso   1.000  C
  H97      1.0000 0.80937  0.85523  0.51203  Biso   1.000  H
  C166     1.0000 0.75284  0.83951  0.58771  Biso   1.000  C
  C167     1.0000 0.73434  0.81622  0.65663  Biso   1.000  C
  H98      1.0000 0.70527  0.81663  0.67813  Biso   1.000  H
  C168     1.0000 0.75772  0.79273  0.69363  Biso   1.000  C
  H99      1.0000 0.74387  0.77603  0.73943  Biso   1.000  H
  C169     1.0000 0.72552  0.86190  0.54484  Biso   1.000  C
  C170     1.0000 0.81175  0.76864  0.84406  Biso   1.000  C
  C171     1.0000 0.79303  0.73079  0.89893  Biso   1.000  C
  H100     1.0000 0.79327  0.69913  0.89173  Biso   1.000  H
  C172     1.0000 0.77399  0.73913  0.96413  Biso   1.000  C
  H101     1.0000 0.76137  0.71313  0.00133  Biso   1.000  H
  C173     1.0000 0.77324  0.78460  0.97553  Biso   1.000  C
  C174     1.0000 0.79317  0.82353  0.92183  Biso   1.000  C
  H102     1.0000 0.79377  0.85553  0.93023  Biso   1.000  H
  C175     1.0000 0.81210  0.81553  0.85613  Biso   1.000  C
  H103     1.0000 0.82537  0.84193  0.81943  Biso   1.000  H
  C176     1.0000 0.74945  0.79141  0.04453  Biso   1.000  C
  H104     1.0000 0.85667  0.74803  0.61033  Biso   1.000  H
  Zn9      1.0000 0.56204  0.04095  0.18837  Biso   1.000  Zn
  N25      1.0000 0.59254  0.03089  0.09126  Biso   1.000  N
  N26      1.0000 0.52821  0.06787  0.11326  Biso   1.000  N
  N27      1.0000 0.52213  0.08412  0.99692  Biso   1.000  N
  O33      1.0000 0.35114  0.19135  0.90790  Biso   1.000  O
  O34      1.0000 0.40905  0.21451  0.81660  Biso   1.000  O
  O35      1.0000 0.38456  0.08572  0.41428  Biso   1.000  O
  O36      1.0000 0.42768  0.17032  0.39666  Biso   1.000  O
  C177     1.0000 0.62698  0.01447  0.08437  Biso   1.000  C
  H105     1.0000 0.63903  0.00577  0.12757  Biso   1.000  H
  C178     1.0000 0.64557  0.00947  0.01707  Biso   1.000  C
  H106     1.0000 0.66993  0.99757  0.01417  Biso   1.000  H
  C179     1.0000 0.62838  0.02207  0.95447  Biso   1.000  C
  H107     1.0000 0.64083  0.01897  0.90757  Biso   1.000  H
  C180     1.0000 0.59279  0.03937  0.95997  Biso   1.000  C
  H108     1.0000 0.58013  0.04807  0.91737  Biso   1.000  H
  C181     1.0000 0.57626  0.04351  0.02957  Biso   1.000  C
  C182     1.0000 0.54159  0.06402  0.04519  Biso   1.000  C
  C183     1.0000 0.49852  0.09130  0.10927  Biso   1.000  C
  C184     1.0000 0.49428  0.10213  0.03615  Biso   1.000  C
  C185     1.0000 0.46830  0.12646  0.99777  Biso   1.000  C
  C186     1.0000 0.48708  0.15056  0.92917  Biso   1.000  C
  H109     1.0000 0.51683  0.15137  0.90827  Biso   1.000  H
  C187     1.0000 0.46288  0.17283  0.89197  Biso   1.000  C
  H110     1.0000 0.47603  0.18857  0.84537  Biso   1.000  H
  C188     1.0000 0.41950  0.17285  0.92105  Biso   1.000  C
  C189     1.0000 0.40100  0.14956  0.98997  Biso   1.000  C
  H111     1.0000 0.37193  0.14997  0.01147  Biso   1.000  H
  C190     1.0000 0.42438  0.12607  0.02697  Biso   1.000  C
  H112     1.0000 0.41053  0.10937  0.07277  Biso   1.000  H
  C191     1.0000 0.39218  0.19524  0.87818  Biso   1.000  C
  C192     1.0000 0.47841  0.10198  0.17740  Biso   1.000  C
  C193     1.0000 0.45969  0.06413  0.23227  Biso   1.000  C
  H113     1.0000 0.45993  0.03247  0.22507  Biso   1.000  H
  C194     1.0000 0.44065  0.07247  0.29747  Biso   1.000  C
  H114     1.0000 0.42803  0.04647  0.33467  Biso   1.000  H
  C195     1.0000 0.43990  0.11794  0.30887  Biso   1.000  C
  C196     1.0000 0.45983  0.15687  0.25517  Biso   1.000  C
  H115     1.0000 0.46043  0.18887  0.26357  Biso   1.000  H
  C197     1.0000 0.47876  0.14887  0.18947  Biso   1.000  C
  H116     1.0000 0.49203  0.17527  0.15277  Biso   1.000  H
  C198     1.0000 0.41611  0.12475  0.37787  Biso   1.000  C
  H117     1.0000 0.52333  0.08137  0.94367  Biso   1.000  H
  Zn10     1.0000 0.37428  0.14557  0.47830  Biso   1.000  Zn
  N28      1.0000 0.36422  0.10501  0.57541  Biso   1.000  N
  N29      1.0000 0.40120  0.20632  0.55341  Biso   1.000  N
  N30      1.0000 0.41745  0.22865  0.66975  Biso   1.000  N
  O37      1.0000 0.52468  0.50687  0.75877  Biso   1.000  O
  O38      1.0000 0.54784  0.47212  0.85007  Biso   1.000  O
  O39      1.0000 0.41905  0.36782  0.25239  Biso   1.000  O
  O40      1.0000 0.50365  0.40930  0.27001  Biso   1.000  O
  C199     1.0000 0.34780  0.05415  0.58230  Biso   1.000  C
  H118     1.0000 0.33910  0.03340  0.53910  Biso   1.000  H
  C200     1.0000 0.34280  0.03056  0.64960  Biso   1.000  C
  H119     1.0000 0.33090  0.99430  0.65250  Biso   1.000  H
  C201     1.0000 0.35540  0.06035  0.71220  Biso   1.000  C
  H120     1.0000 0.35230  0.04480  0.75910  Biso   1.000  H
  C202     1.0000 0.37270  0.11324  0.70670  Biso   1.000  C
  H121     1.0000 0.38140  0.13460  0.74930  Biso   1.000  H
  C203     1.0000 0.37684  0.13391  0.63710  Biso   1.000  C
  C204     1.0000 0.39735  0.18909  0.62148  Biso   1.000  C
  C205     1.0000 0.42463  0.25944  0.55740  Biso   1.000  C
  C206     1.0000 0.43546  0.27451  0.63052  Biso   1.000  C
  C207     1.0000 0.45979  0.32482  0.66890  Biso   1.000  C
  C208     1.0000 0.48389  0.33014  0.73750  Biso   1.000  C
  H122     1.0000 0.48470  0.30120  0.75840  Biso   1.000  H
  C209     1.0000 0.50616  0.37661  0.77470  Biso   1.000  C
  H123     1.0000 0.52190  0.37920  0.82130  Biso   1.000  H
  C210     1.0000 0.50618  0.42001  0.74562  Biso   1.000  C
  C211     1.0000 0.48289  0.41522  0.67670  Biso   1.000  C
  H124     1.0000 0.48330  0.44470  0.65520  Biso   1.000  H
  C212     1.0000 0.45940  0.36835  0.63970  Biso   1.000  C
  H125     1.0000 0.44270  0.36550  0.59390  Biso   1.000  H
  C213     1.0000 0.52857  0.46972  0.78849  Biso   1.000  C
  C214     1.0000 0.43531  0.29023  0.48927  Biso   1.000  C
  C215     1.0000 0.39746  0.27110  0.43440  Biso   1.000  C
  H126     1.0000 0.36580  0.23920  0.44160  Biso   1.000  H
  C216     1.0000 0.40580  0.29848  0.36920  Biso   1.000  C
  H127     1.0000 0.37980  0.28510  0.33200  Biso   1.000  H
  C217     1.0000 0.45127  0.34470  0.35780  Biso   1.000  C
  C218     1.0000 0.49020  0.36370  0.41150  Biso   1.000  C
  H128     1.0000 0.52220  0.39510  0.40310  Biso   1.000  H
  C219     1.0000 0.48220  0.33677  0.47720  Biso   1.000  C
  H129     1.0000 0.50860  0.34990  0.51390  Biso   1.000  H
  C220     1.0000 0.45808  0.37530  0.28880  Biso   1.000  C
  H130     1.0000 0.41470  0.22470  0.72300  Biso   1.000  H
  Zn11     1.0000 0.04095  0.47890  0.81163  Biso   1.000  Zn
  N31      1.0000 0.03089  0.43834  0.90874  Biso   1.000  N
  N32      1.0000 0.06787  0.53965  0.88674  Biso   1.000  N
  N33      1.0000 0.08412  0.56198  0.00308  Biso   1.000  N
  O41      1.0000 0.19135  0.84020  0.09210  Biso   1.000  O
  O42      1.0000 0.21451  0.80545  0.18340  Biso   1.000  O
  O43      1.0000 0.08572  0.70115  0.58572  Biso   1.000  O
  O44      1.0000 0.17032  0.74263  0.60334  Biso   1.000  O
  C221     1.0000 0.01447  0.38748  0.91563  Biso   1.000  C
  H131     1.0000 0.00577  0.36673  0.87243  Biso   1.000  H
  C222     1.0000 0.00947  0.36389  0.98293  Biso   1.000  C
  H132     1.0000 0.99757  0.32763  0.98583  Biso   1.000  H
  C223     1.0000 0.02207  0.39368  0.04553  Biso   1.000  C
  H133     1.0000 0.01897  0.37813  0.09243  Biso   1.000  H
  C224     1.0000 0.03937  0.44657  0.04003  Biso   1.000  C
  H134     1.0000 0.04807  0.46793  0.08263  Biso   1.000  H
  C225     1.0000 0.04351  0.46724  0.97043  Biso   1.000  C
  C226     1.0000 0.06402  0.52242  0.95481  Biso   1.000  C
  C227     1.0000 0.09130  0.59277  0.89073  Biso   1.000  C
  C228     1.0000 0.10213  0.60784  0.96385  Biso   1.000  C
  C229     1.0000 0.12646  0.65815  0.00223  Biso   1.000  C
  C230     1.0000 0.15056  0.66347  0.07083  Biso   1.000  C
  H135     1.0000 0.15137  0.63453  0.09173  Biso   1.000  H
  C231     1.0000 0.17283  0.70994  0.10803  Biso   1.000  C
  H136     1.0000 0.18857  0.71253  0.15463  Biso   1.000  H
  C232     1.0000 0.17285  0.75334  0.07895  Biso   1.000  C
  C233     1.0000 0.14956  0.74855  0.01003  Biso   1.000  C
  H137     1.0000 0.14997  0.77803  0.98853  Biso   1.000  H
  C234     1.0000 0.12607  0.70168  0.97303  Biso   1.000  C
  H138     1.0000 0.10937  0.69883  0.92723  Biso   1.000  H
  C235     1.0000 0.19524  0.80305  0.12182  Biso   1.000  C
  C236     1.0000 0.10198  0.62356  0.82260  Biso   1.000  C
  C237     1.0000 0.06413  0.60443  0.76773  Biso   1.000  C
  H139     1.0000 0.03247  0.57253  0.77493  Biso   1.000  H
  C238     1.0000 0.07247  0.63181  0.70253  Biso   1.000  C
  H140     1.0000 0.04647  0.61843  0.66533  Biso   1.000  H
  C239     1.0000 0.11794  0.67803  0.69113  Biso   1.000  C
  C240     1.0000 0.15687  0.69703  0.74483  Biso   1.000  C
  H141     1.0000 0.18887  0.72843  0.73643  Biso   1.000  H
  C241     1.0000 0.14887  0.67010  0.81053  Biso   1.000  C
  H142     1.0000 0.17527  0.68323  0.84723  Biso   1.000  H
  C242     1.0000 0.12475  0.70863  0.62213  Biso   1.000  C
  H143     1.0000 0.08137  0.55803  0.05633  Biso   1.000  H
  Zn12     1.0000 0.70761  0.81224  0.14497  Biso   1.000  Zn
  N34      1.0000 0.69755  0.77168  0.24208  Biso   1.000  N
  N35      1.0000 0.73453  0.87299  0.22008  Biso   1.000  N
  N36      1.0000 0.75078  0.89532  0.33642  Biso   1.000  N
  O45      1.0000 0.85801  0.17354  0.42544  Biso   1.000  O
  O46      1.0000 0.88117  0.13879  0.51674  Biso   1.000  O
  O47      1.0000 0.75238  0.03449  0.91906  Biso   1.000  O
  O48      1.0000 0.83698  0.07597  0.93668  Biso   1.000  O
  C243     1.0000 0.68113  0.72082  0.24897  Biso   1.000  C
  H144     1.0000 0.67243  0.70007  0.20577  Biso   1.000  H
  C244     1.0000 0.67613  0.69723  0.31627  Biso   1.000  C
  H145     1.0000 0.66423  0.66097  0.31917  Biso   1.000  H
  C245     1.0000 0.68873  0.72702  0.37887  Biso   1.000  C
  H146     1.0000 0.68563  0.71147  0.42577  Biso   1.000  H
  C246     1.0000 0.70603  0.77991  0.37337  Biso   1.000  C
  H147     1.0000 0.71473  0.80127  0.41597  Biso   1.000  H
  C247     1.0000 0.71017  0.80058  0.30377  Biso   1.000  C
  C248     1.0000 0.73068  0.85576  0.28815  Biso   1.000  C
  C249     1.0000 0.75796  0.92611  0.22407  Biso   1.000  C
  C250     1.0000 0.76879  0.94118  0.29719  Biso   1.000  C
  C251     1.0000 0.79312  0.99149  0.33557  Biso   1.000  C
  C252     1.0000 0.81722  0.99681  0.40417  Biso   1.000  C
  H148     1.0000 0.81803  0.96787  0.42507  Biso   1.000  H
  C253     1.0000 0.83949  0.04328  0.44137  Biso   1.000  C
  H149     1.0000 0.85523  0.04587  0.48797  Biso   1.000  H
  C254     1.0000 0.83951  0.08668  0.41229  Biso   1.000  C
  C255     1.0000 0.81622  0.08189  0.34337  Biso   1.000  C
  H150     1.0000 0.81663  0.11137  0.32187  Biso   1.000  H
  C256     1.0000 0.79273  0.03502  0.30637  Biso   1.000  C
  H151     1.0000 0.77603  0.03217  0.26057  Biso   1.000  H
  C257     1.0000 0.86190  0.13639  0.45516  Biso   1.000  C
  C258     1.0000 0.76864  0.95690  0.15594  Biso   1.000  C
  C259     1.0000 0.73079  0.93777  0.10107  Biso   1.000  C
  H152     1.0000 0.69913  0.90587  0.10827  Biso   1.000  H
  C260     1.0000 0.73913  0.96515  0.03587  Biso   1.000  C
  H153     1.0000 0.71313  0.95177  0.99867  Biso   1.000  H
  C261     1.0000 0.78460  0.01137  0.02447  Biso   1.000  C
  C262     1.0000 0.82353  0.03037  0.07817  Biso   1.000  C
  H154     1.0000 0.85553  0.06177  0.06977  Biso   1.000  H
  C263     1.0000 0.81553  0.00344  0.14387  Biso   1.000  C
  H155     1.0000 0.84193  0.01657  0.18057  Biso   1.000  H
  C264     1.0000 0.79141  0.04197  0.95547  Biso   1.000  C
  H156     1.0000 0.74803  0.89137  0.38967  Biso   1.000  H
  Zn13     1.0000 0.85443  0.22871  0.47830  Biso   1.000  Zn
  N37      1.0000 0.89499  0.25921  0.57541  Biso   1.000  N
  N38      1.0000 0.79368  0.19488  0.55341  Biso   1.000  N
  N39      1.0000 0.77135  0.18880  0.66975  Biso   1.000  N
  O49      1.0000 0.49313  0.01781  0.75877  Biso   1.000  O
  O50      1.0000 0.52788  0.07572  0.85007  Biso   1.000  O
  O51      1.0000 0.63218  0.05123  0.25239  Biso   1.000  O
  O52      1.0000 0.59070  0.09435  0.27001  Biso   1.000  O
  C265     1.0000 0.94585  0.29365  0.58230  Biso   1.000  C
  H157     1.0000 0.96660  0.30570  0.53910  Biso   1.000  H
  C266     1.0000 0.96944  0.31224  0.64960  Biso   1.000  C
  H158     1.0000 0.00570  0.33660  0.65250  Biso   1.000  H
  C267     1.0000 0.93965  0.29505  0.71220  Biso   1.000  C
  H159     1.0000 0.95520  0.30750  0.75910  Biso   1.000  H
  C268     1.0000 0.88676  0.25946  0.70670  Biso   1.000  C
  H160     1.0000 0.86540  0.24680  0.74930  Biso   1.000  H
  C269     1.0000 0.86609  0.24293  0.63710  Biso   1.000  C
  C270     1.0000 0.81091  0.20826  0.62148  Biso   1.000  C
  C271     1.0000 0.74056  0.16519  0.55740  Biso   1.000  C
  C272     1.0000 0.72549  0.16095  0.63052  Biso   1.000  C
  C273     1.0000 0.67518  0.13497  0.66890  Biso   1.000  C
  C274     1.0000 0.66986  0.15375  0.73750  Biso   1.000  C
  H161     1.0000 0.69880  0.18350  0.75840  Biso   1.000  H
  C275     1.0000 0.62339  0.12955  0.77470  Biso   1.000  C
  H162     1.0000 0.62080  0.14270  0.82130  Biso   1.000  H
  C276     1.0000 0.57999  0.08617  0.74562  Biso   1.000  C
  C277     1.0000 0.58478  0.06767  0.67670  Biso   1.000  C
  H163     1.0000 0.55530  0.03860  0.65520  Biso   1.000  H
  C278     1.0000 0.63165  0.09105  0.63970  Biso   1.000  C
  H164     1.0000 0.63450  0.07720  0.59390  Biso   1.000  H
  C279     1.0000 0.53028  0.05885  0.78849  Biso   1.000  C
  C280     1.0000 0.70977  0.14508  0.48927  Biso   1.000  C
  C281     1.0000 0.72890  0.12636  0.43440  Biso   1.000  C
  H165     1.0000 0.76080  0.12660  0.44160  Biso   1.000  H
  C282     1.0000 0.70152  0.10732  0.36920  Biso   1.000  C
  H166     1.0000 0.71490  0.09470  0.33200  Biso   1.000  H
  C283     1.0000 0.65530  0.10657  0.35780  Biso   1.000  C
  C284     1.0000 0.63630  0.12650  0.41150  Biso   1.000  C
  H167     1.0000 0.60490  0.12710  0.40310  Biso   1.000  H
  C285     1.0000 0.66323  0.14543  0.47720  Biso   1.000  C
  H168     1.0000 0.65010  0.15870  0.51390  Biso   1.000  H
  C286     1.0000 0.62470  0.08278  0.28880  Biso   1.000  C
  H169     1.0000 0.77530  0.19000  0.72300  Biso   1.000  H
  Zn14     1.0000 0.52110  0.56204  0.81163  Biso   1.000  Zn
  N40      1.0000 0.56166  0.59254  0.90874  Biso   1.000  N
  N41      1.0000 0.46035  0.52821  0.88674  Biso   1.000  N
  N42      1.0000 0.43802  0.52213  0.00308  Biso   1.000  N
  O53      1.0000 0.15980  0.35114  0.09210  Biso   1.000  O
  O54      1.0000 0.19455  0.40905  0.18340  Biso   1.000  O
  O55      1.0000 0.29885  0.38456  0.58572  Biso   1.000  O
  O56      1.0000 0.25737  0.42768  0.60334  Biso   1.000  O
  C287     1.0000 0.61252  0.62698  0.91563  Biso   1.000  C
  H170     1.0000 0.63327  0.63903  0.87243  Biso   1.000  H
  C288     1.0000 0.63611  0.64557  0.98293  Biso   1.000  C
  H171     1.0000 0.67237  0.66993  0.98583  Biso   1.000  H
  C289     1.0000 0.60632  0.62838  0.04553  Biso   1.000  C
  H172     1.0000 0.62187  0.64083  0.09243  Biso   1.000  H
  C290     1.0000 0.55343  0.59279  0.04003  Biso   1.000  C
  H173     1.0000 0.53207  0.58013  0.08263  Biso   1.000  H
  C291     1.0000 0.53276  0.57626  0.97043  Biso   1.000  C
  C292     1.0000 0.47758  0.54159  0.95481  Biso   1.000  C
  C293     1.0000 0.40723  0.49852  0.89073  Biso   1.000  C
  C294     1.0000 0.39216  0.49428  0.96385  Biso   1.000  C
  C295     1.0000 0.34185  0.46830  0.00223  Biso   1.000  C
  C296     1.0000 0.33653  0.48708  0.07083  Biso   1.000  C
  H174     1.0000 0.36547  0.51683  0.09173  Biso   1.000  H
  C297     1.0000 0.29006  0.46288  0.10803  Biso   1.000  C
  H175     1.0000 0.28747  0.47603  0.15463  Biso   1.000  H
  C298     1.0000 0.24666  0.41950  0.07895  Biso   1.000  C
  C299     1.0000 0.25145  0.40100  0.01003  Biso   1.000  C
  H176     1.0000 0.22197  0.37193  0.98853  Biso   1.000  H
  C300     1.0000 0.29832  0.42438  0.97303  Biso   1.000  C
  H177     1.0000 0.30117  0.41053  0.92723  Biso   1.000  H
  C301     1.0000 0.19695  0.39218  0.12182  Biso   1.000  C
  C302     1.0000 0.37644  0.47841  0.82260  Biso   1.000  C
  C303     1.0000 0.39557  0.45969  0.76773  Biso   1.000  C
  H178     1.0000 0.42747  0.45993  0.77493  Biso   1.000  H
  C304     1.0000 0.36819  0.44065  0.70253  Biso   1.000  C
  H179     1.0000 0.38157  0.42803  0.66533  Biso   1.000  H
  C305     1.0000 0.32197  0.43990  0.69113  Biso   1.000  C
  C306     1.0000 0.30297  0.45983  0.74483  Biso   1.000  C
  H180     1.0000 0.27157  0.46043  0.73643  Biso   1.000  H
  C307     1.0000 0.32990  0.47876  0.81053  Biso   1.000  C
  H181     1.0000 0.31677  0.49203  0.84723  Biso   1.000  H
  C308     1.0000 0.29137  0.41611  0.62213  Biso   1.000  C
  H182     1.0000 0.44197  0.52333  0.05633  Biso   1.000  H
  Zn15     1.0000 0.18776  0.89538  0.14497  Biso   1.000  Zn
  N43      1.0000 0.22832  0.92588  0.24208  Biso   1.000  N
  N44      1.0000 0.12701  0.86155  0.22008  Biso   1.000  N
  N45      1.0000 0.10468  0.85547  0.33642  Biso   1.000  N
  O57      1.0000 0.82646  0.68448  0.42544  Biso   1.000  O
  O58      1.0000 0.86121  0.74239  0.51674  Biso   1.000  O
  O59      1.0000 0.96551  0.71790  0.91906  Biso   1.000  O
  O60      1.0000 0.92403  0.76102  0.93668  Biso   1.000  O
  C309     1.0000 0.27918  0.96032  0.24897  Biso   1.000  C
  H183     1.0000 0.29993  0.97237  0.20577  Biso   1.000  H
  C310     1.0000 0.30277  0.97891  0.31627  Biso   1.000  C
  H184     1.0000 0.33903  0.00327  0.31917  Biso   1.000  H
  C311     1.0000 0.27298  0.96172  0.37887  Biso   1.000  C
  H185     1.0000 0.28853  0.97417  0.42577  Biso   1.000  H
  C312     1.0000 0.22009  0.92613  0.37337  Biso   1.000  C
  H186     1.0000 0.19873  0.91347  0.41597  Biso   1.000  H
  C313     1.0000 0.19942  0.90960  0.30377  Biso   1.000  C
  C314     1.0000 0.14424  0.87493  0.28815  Biso   1.000  C
  C315     1.0000 0.07389  0.83186  0.22407  Biso   1.000  C
  C316     1.0000 0.05882  0.82762  0.29719  Biso   1.000  C
  C317     1.0000 0.00851  0.80164  0.33557  Biso   1.000  C
  C318     1.0000 0.00319  0.82042  0.40417  Biso   1.000  C
  H187     1.0000 0.03213  0.85017  0.42507  Biso   1.000  H
  C319     1.0000 0.95672  0.79622  0.44137  Biso   1.000  C
  H188     1.0000 0.95413  0.80937  0.48797  Biso   1.000  H
  C320     1.0000 0.91332  0.75284  0.41229  Biso   1.000  C
  C321     1.0000 0.91811  0.73434  0.34337  Biso   1.000  C
  H189     1.0000 0.88863  0.70527  0.32187  Biso   1.000  H
  C322     1.0000 0.96498  0.75772  0.30637  Biso   1.000  C
  H190     1.0000 0.96783  0.74387  0.26057  Biso   1.000  H
  C323     1.0000 0.86361  0.72552  0.45516  Biso   1.000  C
  C324     1.0000 0.04310  0.81175  0.15594  Biso   1.000  C
  C325     1.0000 0.06223  0.79303  0.10107  Biso   1.000  C
  H191     1.0000 0.09413  0.79327  0.10827  Biso   1.000  H
  C326     1.0000 0.03485  0.77399  0.03587  Biso   1.000  C
  H192     1.0000 0.04823  0.76137  0.99867  Biso   1.000  H
  C327     1.0000 0.98863  0.77324  0.02447  Biso   1.000  C
  C328     1.0000 0.96963  0.79317  0.07817  Biso   1.000  C
  H193     1.0000 0.93823  0.79377  0.06977  Biso   1.000  H
  C329     1.0000 0.99656  0.81210  0.14387  Biso   1.000  C
  H194     1.0000 0.98343  0.82537  0.18057  Biso   1.000  H
  C330     1.0000 0.95803  0.74945  0.95547  Biso   1.000  C
  H195     1.0000 0.10863  0.85667  0.38967  Biso   1.000  H
  Zn16     1.0000 0.77129  0.62572  0.47830  Biso   1.000  Zn
  N46      1.0000 0.74079  0.63578  0.57541  Biso   1.000  N
  N47      1.0000 0.80512  0.59880  0.55341  Biso   1.000  N
  N48      1.0000 0.81120  0.58255  0.66975  Biso   1.000  N
  O61      1.0000 0.98219  0.47532  0.75877  Biso   1.000  O
  O62      1.0000 0.92428  0.45216  0.85007  Biso   1.000  O
  O63      1.0000 0.94877  0.58095  0.25239  Biso   1.000  O
  O64      1.0000 0.90565  0.49635  0.27001  Biso   1.000  O
  C331     1.0000 0.70635  0.65220  0.58230  Biso   1.000  C
  H196     1.0000 0.69430  0.66090  0.53910  Biso   1.000  H
  C332     1.0000 0.68776  0.65720  0.64960  Biso   1.000  C
  H197     1.0000 0.66340  0.66910  0.65250  Biso   1.000  H
  C333     1.0000 0.70495  0.64460  0.71220  Biso   1.000  C
  H198     1.0000 0.69250  0.64770  0.75910  Biso   1.000  H
  C334     1.0000 0.74054  0.62730  0.70670  Biso   1.000  C
  H199     1.0000 0.75320  0.61860  0.74930  Biso   1.000  H
  C335     1.0000 0.75707  0.62316  0.63710  Biso   1.000  C
  C336     1.0000 0.79174  0.60265  0.62148  Biso   1.000  C
  C337     1.0000 0.83481  0.57537  0.55740  Biso   1.000  C
  C338     1.0000 0.83905  0.56454  0.63052  Biso   1.000  C
  C339     1.0000 0.86503  0.54021  0.66890  Biso   1.000  C
  C340     1.0000 0.84625  0.51611  0.73750  Biso   1.000  C
  H200     1.0000 0.81650  0.51530  0.75840  Biso   1.000  H
  C341     1.0000 0.87045  0.49384  0.77470  Biso   1.000  C
  H201     1.0000 0.85730  0.47810  0.82130  Biso   1.000  H
  C342     1.0000 0.91383  0.49382  0.74562  Biso   1.000  C
  C343     1.0000 0.93233  0.51711  0.67670  Biso   1.000  C
  H202     1.0000 0.96140  0.51670  0.65520  Biso   1.000  H
  C344     1.0000 0.90895  0.54060  0.63970  Biso   1.000  C
  H203     1.0000 0.92280  0.55730  0.59390  Biso   1.000  H
  C345     1.0000 0.94115  0.47143  0.78849  Biso   1.000  C
  C346     1.0000 0.85492  0.56469  0.48927  Biso   1.000  C
  C347     1.0000 0.87364  0.60254  0.43440  Biso   1.000  C
  H204     1.0000 0.87340  0.63420  0.44160  Biso   1.000  H
  C348     1.0000 0.89268  0.59420  0.36920  Biso   1.000  C
  H205     1.0000 0.90530  0.62020  0.33200  Biso   1.000  H
  C349     1.0000 0.89343  0.54873  0.35780  Biso   1.000  C
  C350     1.0000 0.87350  0.50980  0.41150  Biso   1.000  C
  H206     1.0000 0.87290  0.47780  0.40310  Biso   1.000  H
  C351     1.0000 0.85457  0.51780  0.47720  Biso   1.000  C
  H207     1.0000 0.84130  0.49140  0.51390  Biso   1.000  H
  C352     1.0000 0.91722  0.54192  0.28880  Biso   1.000  C
  H208     1.0000 0.81000  0.58530  0.72300  Biso   1.000  H
  Zn17     1.0000 0.43796  0.95905  0.81163  Biso   1.000  Zn
  N49      1.0000 0.40746  0.96911  0.90874  Biso   1.000  N
  N50      1.0000 0.47179  0.93213  0.88674  Biso   1.000  N
  N51      1.0000 0.47787  0.91588  0.00308  Biso   1.000  N
  O65      1.0000 0.64886  0.80865  0.09210  Biso   1.000  O
  O66      1.0000 0.59095  0.78549  0.18340  Biso   1.000  O
  O67      1.0000 0.61544  0.91428  0.58572  Biso   1.000  O
  O68      1.0000 0.57232  0.82968  0.60334  Biso   1.000  O
  C353     1.0000 0.37302  0.98553  0.91563  Biso   1.000  C
  H209     1.0000 0.36097  0.99423  0.87243  Biso   1.000  H
  C354     1.0000 0.35443  0.99053  0.98293  Biso   1.000  C
  H210     1.0000 0.33007  0.00243  0.98583  Biso   1.000  H
  C355     1.0000 0.37162  0.97793  0.04553  Biso   1.000  C
  H211     1.0000 0.35917  0.98103  0.09243  Biso   1.000  H
  C356     1.0000 0.40721  0.96063  0.04003  Biso   1.000  C
  H212     1.0000 0.41987  0.95193  0.08263  Biso   1.000  H
  C357     1.0000 0.42374  0.95649  0.97043  Biso   1.000  C
  C358     1.0000 0.45841  0.93598  0.95481  Biso   1.000  C
  C359     1.0000 0.50148  0.90870  0.89073  Biso   1.000  C
  C360     1.0000 0.50572  0.89787  0.96385  Biso   1.000  C
  C361     1.0000 0.53170  0.87354  0.00223  Biso   1.000  C
  C362     1.0000 0.51292  0.84944  0.07083  Biso   1.000  C
  H213     1.0000 0.48317  0.84863  0.09173  Biso   1.000  H
  C363     1.0000 0.53712  0.82717  0.10803  Biso   1.000  C
  H214     1.0000 0.52397  0.81143  0.15463  Biso   1.000  H
  C364     1.0000 0.58050  0.82715  0.07895  Biso   1.000  C
  C365     1.0000 0.59900  0.85044  0.01003  Biso   1.000  C
  H215     1.0000 0.62807  0.85003  0.98853  Biso   1.000  H
  C366     1.0000 0.57562  0.87393  0.97303  Biso   1.000  C
  H216     1.0000 0.58947  0.89063  0.92723  Biso   1.000  H
  C367     1.0000 0.60782  0.80476  0.12182  Biso   1.000  C
  C368     1.0000 0.52159  0.89802  0.82260  Biso   1.000  C
  C369     1.0000 0.54031  0.93587  0.76773  Biso   1.000  C
  H217     1.0000 0.54007  0.96753  0.77493  Biso   1.000  H
  C370     1.0000 0.55935  0.92753  0.70253  Biso   1.000  C
  H218     1.0000 0.57197  0.95353  0.66533  Biso   1.000  H
  C371     1.0000 0.56010  0.88206  0.69113  Biso   1.000  C
  C372     1.0000 0.54017  0.84313  0.74483  Biso   1.000  C
  H219     1.0000 0.53957  0.81113  0.73643  Biso   1.000  H
  C373     1.0000 0.52124  0.85113  0.81053  Biso   1.000  C
  H220     1.0000 0.50797  0.82473  0.84723  Biso   1.000  H
  C374     1.0000 0.58389  0.87525  0.62213  Biso   1.000  C
  H221     1.0000 0.47667  0.91863  0.05633  Biso   1.000  H
  Zn18     1.0000 0.10462  0.29239  0.14497  Biso   1.000  Zn
  N52      1.0000 0.07412  0.30245  0.24208  Biso   1.000  N
  N53      1.0000 0.13845  0.26547  0.22008  Biso   1.000  N
  N54      1.0000 0.14453  0.24922  0.33642  Biso   1.000  N
  O69      1.0000 0.31552  0.14199  0.42544  Biso   1.000  O
  O70      1.0000 0.25761  0.11883  0.51674  Biso   1.000  O
  O71      1.0000 0.28210  0.24762  0.91906  Biso   1.000  O
  O72      1.0000 0.23898  0.16302  0.93668  Biso   1.000  O
  C375     1.0000 0.03968  0.31887  0.24897  Biso   1.000  C
  H222     1.0000 0.02763  0.32757  0.20577  Biso   1.000  H
  C376     1.0000 0.02109  0.32387  0.31627  Biso   1.000  C
  H223     1.0000 0.99673  0.33577  0.31917  Biso   1.000  H
  C377     1.0000 0.03828  0.31127  0.37887  Biso   1.000  C
  H224     1.0000 0.02583  0.31437  0.42577  Biso   1.000  H
  C378     1.0000 0.07387  0.29397  0.37337  Biso   1.000  C
  H225     1.0000 0.08653  0.28527  0.41597  Biso   1.000  H
  C379     1.0000 0.09040  0.28983  0.30377  Biso   1.000  C
  C380     1.0000 0.12507  0.26932  0.28815  Biso   1.000  C
  C381     1.0000 0.16814  0.24204  0.22407  Biso   1.000  C
  C382     1.0000 0.17238  0.23121  0.29719  Biso   1.000  C
  C383     1.0000 0.19836  0.20688  0.33557  Biso   1.000  C
  C384     1.0000 0.17958  0.18278  0.40417  Biso   1.000  C
  H226     1.0000 0.14983  0.18197  0.42507  Biso   1.000  H
  C385     1.0000 0.20378  0.16051  0.44137  Biso   1.000  C
  H227     1.0000 0.19063  0.14477  0.48797  Biso   1.000  H
  C386     1.0000 0.24716  0.16049  0.41229  Biso   1.000  C
  C387     1.0000 0.26566  0.18378  0.34337  Biso   1.000  C
  H228     1.0000 0.29473  0.18337  0.32187  Biso   1.000  H
  C388     1.0000 0.24228  0.20727  0.30637  Biso   1.000  C
  H229     1.0000 0.25613  0.22397  0.26057  Biso   1.000  H
  C389     1.0000 0.27448  0.13810  0.45516  Biso   1.000  C
  C390     1.0000 0.18825  0.23136  0.15594  Biso   1.000  C
  C391     1.0000 0.20697  0.26921  0.10107  Biso   1.000  C
  H230     1.0000 0.20673  0.30087  0.10827  Biso   1.000  H
  C392     1.0000 0.22601  0.26087  0.03587  Biso   1.000  C
  H231     1.0000 0.23863  0.28687  0.99867  Biso   1.000  H
  C393     1.0000 0.22676  0.21540  0.02447  Biso   1.000  C
  C394     1.0000 0.20683  0.17647  0.07817  Biso   1.000  C
  H232     1.0000 0.20623  0.14447  0.06977  Biso   1.000  H
  C395     1.0000 0.18790  0.18447  0.14387  Biso   1.000  C
  H233     1.0000 0.17463  0.15807  0.18057  Biso   1.000  H
  C396     1.0000 0.25055  0.20859  0.95547  Biso   1.000  C
  H234     1.0000 0.14333  0.25197  0.38967  Biso   1.000  H
