data_image0
_cell_length_a       26.047
_cell_length_b       26.047
_cell_length_c       41.751
_cell_angle_alpha    90
_cell_angle_beta     90
_cell_angle_gamma    120

_symmetry_space_group_name_H-M    "P 1"
_symmetry_int_tables_number       1

loop_
  _symmetry_equiv_pos_as_xyz
  'x, y, z'

loop_
  _atom_site_label
  _atom_site_occupancy
  _atom_site_fract_x
  _atom_site_fract_y
  _atom_site_fract_z
  _atom_site_thermal_displace_type
  _atom_site_B_iso_or_equiv
  _atom_site_type_symbol
  Ag1      1.0000 0.83945  0.65649  0.37964  Biso   1.000  Ag
  N1       1.0000 0.42119  0.49820  0.28476  Biso   1.000  N
  N2       1.0000 0.52355  0.59059  0.30931  Biso   1.000  N
  N3       1.0000 0.74974  0.56751  0.36570  Biso   1.000  N
  N4       1.0000 0.84894  0.57531  0.39511  Biso   1.000  N
  O1       1.0000 0.58510  0.55216  0.35191  Biso   1.000  O
  S1       1.0000 0.48366  0.65946  0.32306  Biso   1.000  S
  S2       1.0000 0.68163  0.45695  0.37349  Biso   1.000  S
  C1       1.0000 0.37021  0.45030  0.27716  Biso   1.000  C
  H1       1.0000 0.37117  0.41750  0.26786  Biso   1.000  H
  C2       1.0000 0.31540  0.44610  0.28226  Biso   1.000  C
  H2       1.0000 0.27980  0.41050  0.27721  Biso   1.000  H
  C3       1.0000 0.31320  0.49330  0.29454  Biso   1.000  C
  H3       1.0000 0.27630  0.49160  0.29782  Biso   1.000  H
  C4       1.0000 0.36590  0.54390  0.30215  Biso   1.000  C
  H4       1.0000 0.36570  0.57790  0.31034  Biso   1.000  H
  C5       1.0000 0.41855  0.54450  0.29771  Biso   1.000  C
  C6       1.0000 0.47497  0.59399  0.30864  Biso   1.000  C
  C7       1.0000 0.55540  0.68270  0.33041  Biso   1.000  C
  H5       1.0000 0.58230  0.72010  0.33957  Biso   1.000  H
  C8       1.0000 0.57035  0.64125  0.32157  Biso   1.000  C
  C9       1.0000 0.62864  0.64573  0.32431  Biso   1.000  C
  C10      1.0000 0.63386  0.60079  0.33903  Biso   1.000  C
  C11      1.0000 0.68828  0.60278  0.33948  Biso   1.000  C
  C12      1.0000 0.73723  0.65127  0.32505  Biso   1.000  C
  H6       1.0000 0.77437  0.65265  0.32502  Biso   1.000  H
  C13      1.0000 0.73313  0.69669  0.31099  Biso   1.000  C
  C14      1.0000 0.67837  0.69330  0.31114  Biso   1.000  C
  H7       1.0000 0.67485  0.72472  0.30188  Biso   1.000  H
  C15      1.0000 0.78610  0.74740  0.29535  Biso   1.000  C
  H8       1.0000 0.82220  0.75440  0.30650  Biso   1.000  H
  H9       1.0000 0.78810  0.73770  0.27290  Biso   1.000  H
  H10      1.0000 0.78270  0.78310  0.29650  Biso   1.000  H
  C16      1.0000 0.56420  0.56470  0.38079  Biso   1.000  C
  H11      1.0000 0.59740  0.59730  0.39210  Biso   1.000  H
  H12      1.0000 0.53450  0.57600  0.37565  Biso   1.000  H
  H13      1.0000 0.54620  0.52930  0.39440  Biso   1.000  H
  C17      1.0000 0.69528  0.55489  0.35439  Biso   1.000  C
  C18      1.0000 0.65375  0.49677  0.35677  Biso   1.000  C
  H14      1.0000 0.61384  0.48045  0.34988  Biso   1.000  H
  C19      1.0000 0.74931  0.52050  0.37672  Biso   1.000  C
  C20      1.0000 0.80234  0.52181  0.38985  Biso   1.000  C
  C21      1.0000 0.80259  0.46956  0.39627  Biso   1.000  C
  H15      1.0000 0.76806  0.43207  0.39302  Biso   1.000  H
  C22      1.0000 0.85460  0.47364  0.40755  Biso   1.000  C
  H16      1.0000 0.85650  0.43883  0.41208  Biso   1.000  H
  C23      1.0000 0.90357  0.52879  0.41207  Biso   1.000  C
  H17      1.0000 0.93998  0.53275  0.41928  Biso   1.000  H
  C24      1.0000 0.89868  0.57827  0.40592  Biso   1.000  C
  H18      1.0000 0.93229  0.61627  0.40955  Biso   1.000  H
  Ag2      1.0000 0.50611  0.98982  0.71298  Biso   1.000  Ag
  N5       1.0000 0.08786  0.83153  0.61809  Biso   1.000  N
  N6       1.0000 0.19022  0.92392  0.64264  Biso   1.000  N
  N7       1.0000 0.41641  0.90084  0.69903  Biso   1.000  N
  N8       1.0000 0.51561  0.90864  0.72844  Biso   1.000  N
  O2       1.0000 0.25177  0.88549  0.68524  Biso   1.000  O
  S3       1.0000 0.15033  0.99279  0.65639  Biso   1.000  S
  S4       1.0000 0.34830  0.79028  0.70682  Biso   1.000  S
  C25      1.0000 0.03688  0.78363  0.61049  Biso   1.000  C
  H19      1.0000 0.03784  0.75083  0.60119  Biso   1.000  H
  C26      1.0000 0.98207  0.77943  0.61559  Biso   1.000  C
  H20      1.0000 0.94647  0.74383  0.61054  Biso   1.000  H
  C27      1.0000 0.97987  0.82663  0.62787  Biso   1.000  C
  H21      1.0000 0.94297  0.82493  0.63115  Biso   1.000  H
  C28      1.0000 0.03257  0.87723  0.63548  Biso   1.000  C
  H22      1.0000 0.03237  0.91123  0.64367  Biso   1.000  H
  C29      1.0000 0.08522  0.87783  0.63104  Biso   1.000  C
  C30      1.0000 0.14164  0.92732  0.64197  Biso   1.000  C
  C31      1.0000 0.22207  0.01603  0.66374  Biso   1.000  C
  H23      1.0000 0.24897  0.05343  0.67290  Biso   1.000  H
  C32      1.0000 0.23702  0.97458  0.65490  Biso   1.000  C
  C33      1.0000 0.29531  0.97906  0.65764  Biso   1.000  C
  C34      1.0000 0.30053  0.93412  0.67236  Biso   1.000  C
  C35      1.0000 0.35495  0.93611  0.67281  Biso   1.000  C
  C36      1.0000 0.40390  0.98460  0.65838  Biso   1.000  C
  H24      1.0000 0.44104  0.98598  0.65835  Biso   1.000  H
  C37      1.0000 0.39980  0.03002  0.64432  Biso   1.000  C
  C38      1.0000 0.34504  0.02663  0.64447  Biso   1.000  C
  H25      1.0000 0.34152  0.05805  0.63521  Biso   1.000  H
  C39      1.0000 0.45277  0.08073  0.62868  Biso   1.000  C
  H26      1.0000 0.48887  0.08773  0.63983  Biso   1.000  H
  H27      1.0000 0.45477  0.07103  0.60623  Biso   1.000  H
  H28      1.0000 0.44937  0.11643  0.62983  Biso   1.000  H
  C40      1.0000 0.23087  0.89803  0.71412  Biso   1.000  C
  H29      1.0000 0.26407  0.93063  0.72543  Biso   1.000  H
  H30      1.0000 0.20117  0.90933  0.70898  Biso   1.000  H
  H31      1.0000 0.21287  0.86263  0.72773  Biso   1.000  H
  C41      1.0000 0.36195  0.88822  0.68772  Biso   1.000  C
  C42      1.0000 0.32042  0.83010  0.69010  Biso   1.000  C
  H32      1.0000 0.28051  0.81378  0.68321  Biso   1.000  H
  C43      1.0000 0.41598  0.85383  0.71005  Biso   1.000  C
  C44      1.0000 0.46901  0.85514  0.72318  Biso   1.000  C
  C45      1.0000 0.46926  0.80289  0.72960  Biso   1.000  C
  H33      1.0000 0.43473  0.76540  0.72635  Biso   1.000  H
  C46      1.0000 0.52127  0.80697  0.74088  Biso   1.000  C
  H34      1.0000 0.52317  0.77216  0.74541  Biso   1.000  H
  C47      1.0000 0.57024  0.86212  0.74540  Biso   1.000  C
  H35      1.0000 0.60665  0.86608  0.75261  Biso   1.000  H
  C48      1.0000 0.56535  0.91160  0.73925  Biso   1.000  C
  H36      1.0000 0.59896  0.94960  0.74288  Biso   1.000  H
  Ag3      1.0000 0.17278  0.32315  0.04631  Biso   1.000  Ag
  N9       1.0000 0.75452  0.16487  0.95143  Biso   1.000  N
  N10      1.0000 0.85688  0.25726  0.97598  Biso   1.000  N
  N11      1.0000 0.08307  0.23418  0.03237  Biso   1.000  N
  N12      1.0000 0.18227  0.24198  0.06178  Biso   1.000  N
  O3       1.0000 0.91843  0.21883  0.01858  Biso   1.000  O
  S5       1.0000 0.81699  0.32613  0.98973  Biso   1.000  S
  S6       1.0000 0.01496  0.12362  0.04016  Biso   1.000  S
  C49      1.0000 0.70354  0.11697  0.94383  Biso   1.000  C
  H37      1.0000 0.70450  0.08417  0.93453  Biso   1.000  H
  C50      1.0000 0.64873  0.11277  0.94893  Biso   1.000  C
  H38      1.0000 0.61313  0.07717  0.94388  Biso   1.000  H
  C51      1.0000 0.64653  0.15997  0.96121  Biso   1.000  C
  H39      1.0000 0.60963  0.15827  0.96449  Biso   1.000  H
  C52      1.0000 0.69923  0.21057  0.96882  Biso   1.000  C
  H40      1.0000 0.69903  0.24457  0.97701  Biso   1.000  H
  C53      1.0000 0.75188  0.21117  0.96438  Biso   1.000  C
  C54      1.0000 0.80830  0.26066  0.97531  Biso   1.000  C
  C55      1.0000 0.88873  0.34937  0.99708  Biso   1.000  C
  H41      1.0000 0.91563  0.38677  0.00624  Biso   1.000  H
  C56      1.0000 0.90368  0.30792  0.98824  Biso   1.000  C
  C57      1.0000 0.96197  0.31240  0.99098  Biso   1.000  C
  C58      1.0000 0.96719  0.26746  0.00570  Biso   1.000  C
  C59      1.0000 0.02161  0.26945  0.00615  Biso   1.000  C
  C60      1.0000 0.07056  0.31794  0.99172  Biso   1.000  C
  H42      1.0000 0.10770  0.31932  0.99169  Biso   1.000  H
  C61      1.0000 0.06646  0.36336  0.97766  Biso   1.000  C
  C62      1.0000 0.01170  0.35997  0.97781  Biso   1.000  C
  H43      1.0000 0.00818  0.39139  0.96855  Biso   1.000  H
  C63      1.0000 0.11943  0.41407  0.96202  Biso   1.000  C
  H44      1.0000 0.15553  0.42107  0.97317  Biso   1.000  H
  H45      1.0000 0.12143  0.40437  0.93957  Biso   1.000  H
  H46      1.0000 0.11603  0.44977  0.96317  Biso   1.000  H
  C64      1.0000 0.89753  0.23137  0.04746  Biso   1.000  C
  H47      1.0000 0.93073  0.26397  0.05877  Biso   1.000  H
  H48      1.0000 0.86783  0.24267  0.04232  Biso   1.000  H
  H49      1.0000 0.87953  0.19597  0.06107  Biso   1.000  H
  C65      1.0000 0.02861  0.22156  0.02106  Biso   1.000  C
  C66      1.0000 0.98708  0.16344  0.02344  Biso   1.000  C
  H50      1.0000 0.94717  0.14712  0.01655  Biso   1.000  H
  C67      1.0000 0.08264  0.18717  0.04339  Biso   1.000  C
  C68      1.0000 0.13567  0.18848  0.05652  Biso   1.000  C
  C69      1.0000 0.13592  0.13623  0.06294  Biso   1.000  C
  H51      1.0000 0.10139  0.09874  0.05969  Biso   1.000  H
  C70      1.0000 0.18793  0.14031  0.07422  Biso   1.000  C
  H52      1.0000 0.18983  0.10550  0.07875  Biso   1.000  H
  C71      1.0000 0.23690  0.19546  0.07874  Biso   1.000  C
  H53      1.0000 0.27331  0.19942  0.08595  Biso   1.000  H
  C72      1.0000 0.23201  0.24494  0.07259  Biso   1.000  C
  H54      1.0000 0.26562  0.28294  0.07622  Biso   1.000  H
  Ag4      1.0000 0.34351  0.18296  0.37964  Biso   1.000  Ag
  N13      1.0000 0.50180  0.92299  0.28476  Biso   1.000  N
  N14      1.0000 0.40941  0.93296  0.30931  Biso   1.000  N
  N15      1.0000 0.43249  0.18223  0.36570  Biso   1.000  N
  N16      1.0000 0.42469  0.27363  0.39511  Biso   1.000  N
  O4       1.0000 0.44784  0.03294  0.35191  Biso   1.000  O
  S7       1.0000 0.34054  0.82420  0.32306  Biso   1.000  S
  S8       1.0000 0.54305  0.22468  0.37349  Biso   1.000  S
  C73      1.0000 0.54970  0.91991  0.27716  Biso   1.000  C
  H55      1.0000 0.58250  0.95367  0.26786  Biso   1.000  H
  C74      1.0000 0.55390  0.86930  0.28226  Biso   1.000  C
  H56      1.0000 0.58950  0.86930  0.27721  Biso   1.000  H
  C75      1.0000 0.50670  0.81990  0.29454  Biso   1.000  C
  H57      1.0000 0.50840  0.78470  0.29782  Biso   1.000  H
  C76      1.0000 0.45610  0.82200  0.30215  Biso   1.000  C
  H58      1.0000 0.42210  0.78780  0.31034  Biso   1.000  H
  C77      1.0000 0.45550  0.87405  0.29771  Biso   1.000  C
  C78      1.0000 0.40601  0.88098  0.30864  Biso   1.000  C
  C79      1.0000 0.31730  0.87270  0.33041  Biso   1.000  C
  H59      1.0000 0.27990  0.86220  0.33957  Biso   1.000  H
  C80      1.0000 0.35875  0.92910  0.32157  Biso   1.000  C
  C81      1.0000 0.35427  0.98291  0.32431  Biso   1.000  C
  C82      1.0000 0.39921  0.03307  0.33903  Biso   1.000  C
  C83      1.0000 0.39722  0.08550  0.33948  Biso   1.000  C
  C84      1.0000 0.34873  0.08596  0.32505  Biso   1.000  C
  H60      1.0000 0.34735  0.12172  0.32502  Biso   1.000  H
  C85      1.0000 0.30331  0.03644  0.31099  Biso   1.000  C
  C86      1.0000 0.30670  0.98507  0.31114  Biso   1.000  C
  H61      1.0000 0.27528  0.95013  0.30188  Biso   1.000  H
  C87      1.0000 0.25260  0.03870  0.29535  Biso   1.000  C
  H62      1.0000 0.24560  0.06780  0.30650  Biso   1.000  H
  H63      1.0000 0.26230  0.05040  0.27290  Biso   1.000  H
  H64      1.0000 0.21690  0.99960  0.29650  Biso   1.000  H
  C88      1.0000 0.43530  0.99950  0.38079  Biso   1.000  C
  H65      1.0000 0.40270  0.00010  0.39210  Biso   1.000  H
  H66      1.0000 0.42400  0.95850  0.37565  Biso   1.000  H
  H67      1.0000 0.47070  0.01690  0.39440  Biso   1.000  H
  C89      1.0000 0.44511  0.14039  0.35439  Biso   1.000  C
  C90      1.0000 0.50323  0.15698  0.35677  Biso   1.000  C
  H68      1.0000 0.51955  0.13339  0.34988  Biso   1.000  H
  C91      1.0000 0.47950  0.22881  0.37672  Biso   1.000  C
  C92      1.0000 0.47819  0.28053  0.38985  Biso   1.000  C
  C93      1.0000 0.53044  0.33303  0.39627  Biso   1.000  C
  H69      1.0000 0.56793  0.33599  0.39302  Biso   1.000  H
  C94      1.0000 0.52636  0.38096  0.40755  Biso   1.000  C
  H70      1.0000 0.56117  0.41767  0.41208  Biso   1.000  H
  C95      1.0000 0.47121  0.37478  0.41207  Biso   1.000  C
  H71      1.0000 0.46725  0.40723  0.41928  Biso   1.000  H
  C96      1.0000 0.42173  0.32041  0.40592  Biso   1.000  C
  H72      1.0000 0.38373  0.31602  0.40955  Biso   1.000  H
  Ag5      1.0000 0.01018  0.51629  0.71298  Biso   1.000  Ag
  N17      1.0000 0.16847  0.25632  0.61809  Biso   1.000  N
  N18      1.0000 0.07608  0.26629  0.64264  Biso   1.000  N
  N19      1.0000 0.09916  0.51556  0.69903  Biso   1.000  N
  N20      1.0000 0.09136  0.60696  0.72844  Biso   1.000  N
  O5       1.0000 0.11451  0.36627  0.68524  Biso   1.000  O
  S9       1.0000 0.00721  0.15753  0.65639  Biso   1.000  S
  S10      1.0000 0.20972  0.55801  0.70682  Biso   1.000  S
  C97      1.0000 0.21637  0.25324  0.61049  Biso   1.000  C
  H73      1.0000 0.24917  0.28700  0.60119  Biso   1.000  H
  C98      1.0000 0.22057  0.20263  0.61559  Biso   1.000  C
  H74      1.0000 0.25617  0.20263  0.61054  Biso   1.000  H
  C99      1.0000 0.17337  0.15323  0.62787  Biso   1.000  C
  H75      1.0000 0.17507  0.11803  0.63115  Biso   1.000  H
  C100     1.0000 0.12277  0.15533  0.63548  Biso   1.000  C
  H76      1.0000 0.08877  0.12113  0.64367  Biso   1.000  H
  C101     1.0000 0.12217  0.20738  0.63104  Biso   1.000  C
  C102     1.0000 0.07268  0.21431  0.64197  Biso   1.000  C
  C103     1.0000 0.98397  0.20603  0.66374  Biso   1.000  C
  H77      1.0000 0.94657  0.19553  0.67290  Biso   1.000  H
  C104     1.0000 0.02542  0.26243  0.65490  Biso   1.000  C
  C105     1.0000 0.02094  0.31624  0.65764  Biso   1.000  C
  C106     1.0000 0.06588  0.36640  0.67236  Biso   1.000  C
  C107     1.0000 0.06389  0.41883  0.67281  Biso   1.000  C
  C108     1.0000 0.01540  0.41929  0.65838  Biso   1.000  C
  H78      1.0000 0.01402  0.45505  0.65835  Biso   1.000  H
  C109     1.0000 0.96998  0.36977  0.64432  Biso   1.000  C
  C110     1.0000 0.97337  0.31840  0.64447  Biso   1.000  C
  H79      1.0000 0.94195  0.28346  0.63521  Biso   1.000  H
  C111     1.0000 0.91927  0.37203  0.62868  Biso   1.000  C
  H80      1.0000 0.91227  0.40113  0.63983  Biso   1.000  H
  H81      1.0000 0.92897  0.38373  0.60623  Biso   1.000  H
  H82      1.0000 0.88357  0.33293  0.62983  Biso   1.000  H
  C112     1.0000 0.10197  0.33283  0.71412  Biso   1.000  C
  H83      1.0000 0.06937  0.33343  0.72543  Biso   1.000  H
  H84      1.0000 0.09067  0.29183  0.70898  Biso   1.000  H
  H85      1.0000 0.13737  0.35023  0.72773  Biso   1.000  H
  C113     1.0000 0.11178  0.47372  0.68772  Biso   1.000  C
  C114     1.0000 0.16990  0.49031  0.69010  Biso   1.000  C
  H86      1.0000 0.18622  0.46672  0.68321  Biso   1.000  H
  C115     1.0000 0.14617  0.56214  0.71005  Biso   1.000  C
  C116     1.0000 0.14486  0.61386  0.72318  Biso   1.000  C
  C117     1.0000 0.19711  0.66636  0.72960  Biso   1.000  C
  H87      1.0000 0.23460  0.66932  0.72635  Biso   1.000  H
  C118     1.0000 0.19303  0.71429  0.74088  Biso   1.000  C
  H88      1.0000 0.22784  0.75100  0.74541  Biso   1.000  H
  C119     1.0000 0.13788  0.70811  0.74540  Biso   1.000  C
  H89      1.0000 0.13392  0.74056  0.75261  Biso   1.000  H
  C120     1.0000 0.08840  0.65374  0.73925  Biso   1.000  C
  H90      1.0000 0.05040  0.64935  0.74288  Biso   1.000  H
  Ag6      1.0000 0.67685  0.84963  0.04631  Biso   1.000  Ag
  N21      1.0000 0.83513  0.58966  0.95143  Biso   1.000  N
  N22      1.0000 0.74274  0.59963  0.97598  Biso   1.000  N
  N23      1.0000 0.76582  0.84890  0.03237  Biso   1.000  N
  N24      1.0000 0.75802  0.94030  0.06178  Biso   1.000  N
  O6       1.0000 0.78117  0.69961  0.01858  Biso   1.000  O
  S11      1.0000 0.67387  0.49087  0.98973  Biso   1.000  S
  S12      1.0000 0.87638  0.89135  0.04016  Biso   1.000  S
  C121     1.0000 0.88303  0.58658  0.94383  Biso   1.000  C
  H91      1.0000 0.91583  0.62034  0.93453  Biso   1.000  H
  C122     1.0000 0.88723  0.53597  0.94893  Biso   1.000  C
  H92      1.0000 0.92283  0.53597  0.94388  Biso   1.000  H
  C123     1.0000 0.84003  0.48657  0.96121  Biso   1.000  C
  H93      1.0000 0.84173  0.45137  0.96449  Biso   1.000  H
  C124     1.0000 0.78943  0.48867  0.96882  Biso   1.000  C
  H94      1.0000 0.75543  0.45447  0.97701  Biso   1.000  H
  C125     1.0000 0.78883  0.54072  0.96438  Biso   1.000  C
  C126     1.0000 0.73934  0.54765  0.97531  Biso   1.000  C
  C127     1.0000 0.65063  0.53937  0.99708  Biso   1.000  C
  H95      1.0000 0.61323  0.52887  0.00624  Biso   1.000  H
  C128     1.0000 0.69208  0.59577  0.98824  Biso   1.000  C
  C129     1.0000 0.68760  0.64958  0.99098  Biso   1.000  C
  C130     1.0000 0.73254  0.69974  0.00570  Biso   1.000  C
  C131     1.0000 0.73055  0.75217  0.00615  Biso   1.000  C
  C132     1.0000 0.68206  0.75263  0.99172  Biso   1.000  C
  H96      1.0000 0.68068  0.78839  0.99169  Biso   1.000  H
  C133     1.0000 0.63664  0.70311  0.97766  Biso   1.000  C
  C134     1.0000 0.64003  0.65174  0.97781  Biso   1.000  C
  H97      1.0000 0.60861  0.61680  0.96855  Biso   1.000  H
  C135     1.0000 0.58593  0.70537  0.96202  Biso   1.000  C
  H98      1.0000 0.57893  0.73447  0.97317  Biso   1.000  H
  H99      1.0000 0.59563  0.71707  0.93957  Biso   1.000  H
  H100     1.0000 0.55023  0.66627  0.96317  Biso   1.000  H
  C136     1.0000 0.76863  0.66617  0.04746  Biso   1.000  C
  H101     1.0000 0.73603  0.66677  0.05877  Biso   1.000  H
  H102     1.0000 0.75733  0.62517  0.04232  Biso   1.000  H
  H103     1.0000 0.80403  0.68357  0.06107  Biso   1.000  H
  C137     1.0000 0.77844  0.80706  0.02106  Biso   1.000  C
  C138     1.0000 0.83656  0.82365  0.02344  Biso   1.000  C
  H104     1.0000 0.85288  0.80006  0.01655  Biso   1.000  H
  C139     1.0000 0.81283  0.89548  0.04339  Biso   1.000  C
  C140     1.0000 0.81152  0.94720  0.05652  Biso   1.000  C
  C141     1.0000 0.86377  0.99970  0.06294  Biso   1.000  C
  H105     1.0000 0.90126  0.00266  0.05969  Biso   1.000  H
  C142     1.0000 0.85969  0.04763  0.07422  Biso   1.000  C
  H106     1.0000 0.89450  0.08434  0.07875  Biso   1.000  H
  C143     1.0000 0.80454  0.04145  0.07874  Biso   1.000  C
  H107     1.0000 0.80058  0.07390  0.08595  Biso   1.000  H
  C144     1.0000 0.75506  0.98708  0.07259  Biso   1.000  C
  H108     1.0000 0.71706  0.98269  0.07622  Biso   1.000  H
  Ag7      1.0000 0.81704  0.16055  0.37964  Biso   1.000  Ag
  N25      1.0000 0.07701  0.57881  0.28476  Biso   1.000  N
  N26      1.0000 0.06704  0.47645  0.30931  Biso   1.000  N
  N27      1.0000 0.81777  0.25026  0.36570  Biso   1.000  N
  N28      1.0000 0.72637  0.15106  0.39511  Biso   1.000  N
  O7       1.0000 0.96706  0.41490  0.35191  Biso   1.000  O
  S13      1.0000 0.17580  0.51634  0.32306  Biso   1.000  S
  S14      1.0000 0.77532  0.31837  0.37349  Biso   1.000  S
  C145     1.0000 0.08009  0.62979  0.27716  Biso   1.000  C
  H109     1.0000 0.04633  0.62883  0.26786  Biso   1.000  H
  C146     1.0000 0.13070  0.68460  0.28226  Biso   1.000  C
  H110     1.0000 0.13070  0.72020  0.27721  Biso   1.000  H
  C147     1.0000 0.18010  0.68680  0.29454  Biso   1.000  C
  H111     1.0000 0.21530  0.72370  0.29782  Biso   1.000  H
  C148     1.0000 0.17800  0.63410  0.30215  Biso   1.000  C
  H112     1.0000 0.21220  0.63430  0.31034  Biso   1.000  H
  C149     1.0000 0.12595  0.58145  0.29771  Biso   1.000  C
  C150     1.0000 0.11902  0.52503  0.30864  Biso   1.000  C
  C151     1.0000 0.12730  0.44460  0.33041  Biso   1.000  C
  H113     1.0000 0.13780  0.41770  0.33957  Biso   1.000  H
  C152     1.0000 0.07090  0.42965  0.32157  Biso   1.000  C
  C153     1.0000 0.01709  0.37136  0.32431  Biso   1.000  C
  C154     1.0000 0.96693  0.36614  0.33903  Biso   1.000  C
  C155     1.0000 0.91450  0.31172  0.33948  Biso   1.000  C
  C156     1.0000 0.91404  0.26277  0.32505  Biso   1.000  C
  H114     1.0000 0.87828  0.22563  0.32502  Biso   1.000  H
  C157     1.0000 0.96356  0.26687  0.31099  Biso   1.000  C
  C158     1.0000 0.01493  0.32163  0.31114  Biso   1.000  C
  H115     1.0000 0.04987  0.32515  0.30188  Biso   1.000  H
  C159     1.0000 0.96130  0.21390  0.29535  Biso   1.000  C
  H116     1.0000 0.93220  0.17780  0.30650  Biso   1.000  H
  H117     1.0000 0.94960  0.21190  0.27290  Biso   1.000  H
  H118     1.0000 0.00040  0.21730  0.29650  Biso   1.000  H
  C160     1.0000 0.00050  0.43580  0.38079  Biso   1.000  C
  H119     1.0000 0.99990  0.40260  0.39210  Biso   1.000  H
  H120     1.0000 0.04150  0.46550  0.37565  Biso   1.000  H
  H121     1.0000 0.98310  0.45380  0.39440  Biso   1.000  H
  C161     1.0000 0.85961  0.30472  0.35439  Biso   1.000  C
  C162     1.0000 0.84302  0.34625  0.35677  Biso   1.000  C
  H122     1.0000 0.86661  0.38616  0.34988  Biso   1.000  H
  C163     1.0000 0.77119  0.25069  0.37672  Biso   1.000  C
  C164     1.0000 0.71947  0.19766  0.38985  Biso   1.000  C
  C165     1.0000 0.66697  0.19741  0.39627  Biso   1.000  C
  H123     1.0000 0.66401  0.23194  0.39302  Biso   1.000  H
  C166     1.0000 0.61904  0.14540  0.40755  Biso   1.000  C
  H124     1.0000 0.58233  0.14350  0.41208  Biso   1.000  H
  C167     1.0000 0.62522  0.09643  0.41207  Biso   1.000  C
  H125     1.0000 0.59277  0.06002  0.41928  Biso   1.000  H
  C168     1.0000 0.67959  0.10132  0.40592  Biso   1.000  C
  H126     1.0000 0.68398  0.06771  0.40955  Biso   1.000  H
  Ag8      1.0000 0.48371  0.49389  0.71298  Biso   1.000  Ag
  N29      1.0000 0.74368  0.91214  0.61809  Biso   1.000  N
  N30      1.0000 0.73371  0.80978  0.64264  Biso   1.000  N
  N31      1.0000 0.48444  0.58359  0.69903  Biso   1.000  N
  N32      1.0000 0.39304  0.48439  0.72844  Biso   1.000  N
  O8       1.0000 0.63373  0.74823  0.68524  Biso   1.000  O
  S15      1.0000 0.84247  0.84967  0.65639  Biso   1.000  S
  S16      1.0000 0.44199  0.65170  0.70682  Biso   1.000  S
  C169     1.0000 0.74676  0.96312  0.61049  Biso   1.000  C
  H127     1.0000 0.71300  0.96216  0.60119  Biso   1.000  H
  C170     1.0000 0.79737  0.01793  0.61559  Biso   1.000  C
  H128     1.0000 0.79737  0.05353  0.61054  Biso   1.000  H
  C171     1.0000 0.84677  0.02013  0.62787  Biso   1.000  C
  H129     1.0000 0.88197  0.05703  0.63115  Biso   1.000  H
  C172     1.0000 0.84467  0.96743  0.63548  Biso   1.000  C
  H130     1.0000 0.87887  0.96763  0.64367  Biso   1.000  H
  C173     1.0000 0.79262  0.91478  0.63104  Biso   1.000  C
  C174     1.0000 0.78569  0.85836  0.64197  Biso   1.000  C
  C175     1.0000 0.79397  0.77793  0.66374  Biso   1.000  C
  H131     1.0000 0.80447  0.75103  0.67290  Biso   1.000  H
  C176     1.0000 0.73757  0.76298  0.65490  Biso   1.000  C
  C177     1.0000 0.68376  0.70469  0.65764  Biso   1.000  C
  C178     1.0000 0.63360  0.69947  0.67236  Biso   1.000  C
  C179     1.0000 0.58117  0.64505  0.67281  Biso   1.000  C
  C180     1.0000 0.58071  0.59610  0.65838  Biso   1.000  C
  H132     1.0000 0.54495  0.55896  0.65835  Biso   1.000  H
  C181     1.0000 0.63023  0.60020  0.64432  Biso   1.000  C
  C182     1.0000 0.68160  0.65496  0.64447  Biso   1.000  C
  H133     1.0000 0.71654  0.65848  0.63521  Biso   1.000  H
  C183     1.0000 0.62797  0.54723  0.62868  Biso   1.000  C
  H134     1.0000 0.59887  0.51113  0.63983  Biso   1.000  H
  H135     1.0000 0.61627  0.54523  0.60623  Biso   1.000  H
  H136     1.0000 0.66707  0.55063  0.62983  Biso   1.000  H
  C184     1.0000 0.66717  0.76913  0.71412  Biso   1.000  C
  H137     1.0000 0.66657  0.73593  0.72543  Biso   1.000  H
  H138     1.0000 0.70817  0.79883  0.70898  Biso   1.000  H
  H139     1.0000 0.64977  0.78713  0.72773  Biso   1.000  H
  C185     1.0000 0.52628  0.63805  0.68772  Biso   1.000  C
  C186     1.0000 0.50969  0.67958  0.69010  Biso   1.000  C
  H140     1.0000 0.53328  0.71949  0.68321  Biso   1.000  H
  C187     1.0000 0.43786  0.58402  0.71005  Biso   1.000  C
  C188     1.0000 0.38614  0.53099  0.72318  Biso   1.000  C
  C189     1.0000 0.33364  0.53074  0.72960  Biso   1.000  C
  H141     1.0000 0.33068  0.56527  0.72635  Biso   1.000  H
  C190     1.0000 0.28571  0.47873  0.74088  Biso   1.000  C
  H142     1.0000 0.24900  0.47683  0.74541  Biso   1.000  H
  C191     1.0000 0.29189  0.42976  0.74540  Biso   1.000  C
  H143     1.0000 0.25944  0.39335  0.75261  Biso   1.000  H
  C192     1.0000 0.34626  0.43465  0.73925  Biso   1.000  C
  H144     1.0000 0.35065  0.40104  0.74288  Biso   1.000  H
  Ag9      1.0000 0.15037  0.82722  0.04631  Biso   1.000  Ag
  N33      1.0000 0.41034  0.24548  0.95143  Biso   1.000  N
  N34      1.0000 0.40037  0.14312  0.97598  Biso   1.000  N
  N35      1.0000 0.15110  0.91693  0.03237  Biso   1.000  N
  N36      1.0000 0.05970  0.81773  0.06178  Biso   1.000  N
  O9       1.0000 0.30039  0.08157  0.01858  Biso   1.000  O
  S17      1.0000 0.50913  0.18301  0.98973  Biso   1.000  S
  S18      1.0000 0.10865  0.98504  0.04016  Biso   1.000  S
  C193     1.0000 0.41342  0.29646  0.94383  Biso   1.000  C
  H145     1.0000 0.37966  0.29550  0.93453  Biso   1.000  H
  C194     1.0000 0.46403  0.35127  0.94893  Biso   1.000  C
  H146     1.0000 0.46403  0.38687  0.94388  Biso   1.000  H
  C195     1.0000 0.51343  0.35347  0.96121  Biso   1.000  C
  H147     1.0000 0.54863  0.39037  0.96449  Biso   1.000  H
  C196     1.0000 0.51133  0.30077  0.96882  Biso   1.000  C
  H148     1.0000 0.54553  0.30097  0.97701  Biso   1.000  H
  C197     1.0000 0.45928  0.24812  0.96438  Biso   1.000  C
  C198     1.0000 0.45235  0.19170  0.97531  Biso   1.000  C
  C199     1.0000 0.46063  0.11127  0.99708  Biso   1.000  C
  H149     1.0000 0.47113  0.08437  0.00624  Biso   1.000  H
  C200     1.0000 0.40423  0.09632  0.98824  Biso   1.000  C
  C201     1.0000 0.35042  0.03803  0.99098  Biso   1.000  C
  C202     1.0000 0.30026  0.03281  0.00570  Biso   1.000  C
  C203     1.0000 0.24783  0.97839  0.00615  Biso   1.000  C
  C204     1.0000 0.24737  0.92944  0.99172  Biso   1.000  C
  H150     1.0000 0.21161  0.89230  0.99169  Biso   1.000  H
  C205     1.0000 0.29689  0.93354  0.97766  Biso   1.000  C
  C206     1.0000 0.34826  0.98830  0.97781  Biso   1.000  C
  H151     1.0000 0.38320  0.99182  0.96855  Biso   1.000  H
  C207     1.0000 0.29463  0.88057  0.96202  Biso   1.000  C
  H152     1.0000 0.26553  0.84447  0.97317  Biso   1.000  H
  H153     1.0000 0.28293  0.87857  0.93957  Biso   1.000  H
  H154     1.0000 0.33373  0.88397  0.96317  Biso   1.000  H
  C208     1.0000 0.33383  0.10247  0.04746  Biso   1.000  C
  H155     1.0000 0.33323  0.06927  0.05877  Biso   1.000  H
  H156     1.0000 0.37483  0.13217  0.04232  Biso   1.000  H
  H157     1.0000 0.31643  0.12047  0.06107  Biso   1.000  H
  C209     1.0000 0.19294  0.97139  0.02106  Biso   1.000  C
  C210     1.0000 0.17635  0.01292  0.02344  Biso   1.000  C
  H158     1.0000 0.19994  0.05283  0.01655  Biso   1.000  H
  C211     1.0000 0.10452  0.91736  0.04339  Biso   1.000  C
  C212     1.0000 0.05280  0.86433  0.05652  Biso   1.000  C
  C213     1.0000 0.00030  0.86408  0.06294  Biso   1.000  C
  H159     1.0000 0.99734  0.89861  0.05969  Biso   1.000  H
  C214     1.0000 0.95237  0.81207  0.07422  Biso   1.000  C
  H160     1.0000 0.91566  0.81017  0.07875  Biso   1.000  H
  C215     1.0000 0.95855  0.76310  0.07874  Biso   1.000  C
  H161     1.0000 0.92610  0.72669  0.08595  Biso   1.000  H
  C216     1.0000 0.01292  0.76799  0.07259  Biso   1.000  C
  H162     1.0000 0.01731  0.73438  0.07622  Biso   1.000  H
  Ag10     1.0000 0.65649  0.83945  0.12036  Biso   1.000  Ag
  N37      1.0000 0.49820  0.42119  0.21524  Biso   1.000  N
  N38      1.0000 0.59059  0.52355  0.19069  Biso   1.000  N
  N39      1.0000 0.56751  0.74974  0.13430  Biso   1.000  N
  N40      1.0000 0.57531  0.84894  0.10489  Biso   1.000  N
  O10      1.0000 0.55216  0.58510  0.14809  Biso   1.000  O
  S19      1.0000 0.65946  0.48366  0.17694  Biso   1.000  S
  S20      1.0000 0.45695  0.68163  0.12651  Biso   1.000  S
  C217     1.0000 0.45030  0.37021  0.22284  Biso   1.000  C
  H163     1.0000 0.41750  0.37117  0.23214  Biso   1.000  H
  C218     1.0000 0.44610  0.31540  0.21774  Biso   1.000  C
  H164     1.0000 0.41050  0.27980  0.22279  Biso   1.000  H
  C219     1.0000 0.49330  0.31320  0.20546  Biso   1.000  C
  H165     1.0000 0.49160  0.27630  0.20218  Biso   1.000  H
  C220     1.0000 0.54390  0.36590  0.19785  Biso   1.000  C
  H166     1.0000 0.57790  0.36570  0.18966  Biso   1.000  H
  C221     1.0000 0.54450  0.41855  0.20229  Biso   1.000  C
  C222     1.0000 0.59399  0.47497  0.19136  Biso   1.000  C
  C223     1.0000 0.68270  0.55540  0.16959  Biso   1.000  C
  H167     1.0000 0.72010  0.58230  0.16043  Biso   1.000  H
  C224     1.0000 0.64125  0.57035  0.17843  Biso   1.000  C
  C225     1.0000 0.64573  0.62864  0.17569  Biso   1.000  C
  C226     1.0000 0.60079  0.63386  0.16097  Biso   1.000  C
  C227     1.0000 0.60278  0.68828  0.16052  Biso   1.000  C
  C228     1.0000 0.65127  0.73723  0.17495  Biso   1.000  C
  H168     1.0000 0.65265  0.77437  0.17498  Biso   1.000  H
  C229     1.0000 0.69669  0.73313  0.18901  Biso   1.000  C
  C230     1.0000 0.69330  0.67837  0.18886  Biso   1.000  C
  H169     1.0000 0.72472  0.67485  0.19812  Biso   1.000  H
  C231     1.0000 0.74740  0.78610  0.20465  Biso   1.000  C
  H170     1.0000 0.75440  0.82220  0.19350  Biso   1.000  H
  H171     1.0000 0.73770  0.78810  0.22710  Biso   1.000  H
  H172     1.0000 0.78310  0.78270  0.20350  Biso   1.000  H
  C232     1.0000 0.56470  0.56420  0.11921  Biso   1.000  C
  H173     1.0000 0.59730  0.59740  0.10790  Biso   1.000  H
  H174     1.0000 0.57600  0.53450  0.12435  Biso   1.000  H
  H175     1.0000 0.52930  0.54620  0.10560  Biso   1.000  H
  C233     1.0000 0.55489  0.69528  0.14561  Biso   1.000  C
  C234     1.0000 0.49677  0.65375  0.14323  Biso   1.000  C
  H176     1.0000 0.48045  0.61384  0.15012  Biso   1.000  H
  C235     1.0000 0.52050  0.74931  0.12328  Biso   1.000  C
  C236     1.0000 0.52181  0.80234  0.11015  Biso   1.000  C
  C237     1.0000 0.46956  0.80259  0.10373  Biso   1.000  C
  H177     1.0000 0.43207  0.76806  0.10698  Biso   1.000  H
  C238     1.0000 0.47364  0.85460  0.09245  Biso   1.000  C
  H178     1.0000 0.43883  0.85650  0.08792  Biso   1.000  H
  C239     1.0000 0.52879  0.90357  0.08793  Biso   1.000  C
  H179     1.0000 0.53275  0.93998  0.08072  Biso   1.000  H
  C240     1.0000 0.57827  0.89868  0.09408  Biso   1.000  C
  H180     1.0000 0.61627  0.93229  0.09045  Biso   1.000  H
  Ag11     1.0000 0.32315  0.17278  0.45369  Biso   1.000  Ag
  N41      1.0000 0.16487  0.75452  0.54857  Biso   1.000  N
  N42      1.0000 0.25726  0.85688  0.52402  Biso   1.000  N
  N43      1.0000 0.23418  0.08307  0.46763  Biso   1.000  N
  N44      1.0000 0.24198  0.18227  0.43822  Biso   1.000  N
  O11      1.0000 0.21883  0.91843  0.48142  Biso   1.000  O
  S21      1.0000 0.32613  0.81699  0.51027  Biso   1.000  S
  S22      1.0000 0.12362  0.01496  0.45984  Biso   1.000  S
  C241     1.0000 0.11697  0.70354  0.55617  Biso   1.000  C
  H181     1.0000 0.08417  0.70450  0.56547  Biso   1.000  H
  C242     1.0000 0.11277  0.64873  0.55107  Biso   1.000  C
  H182     1.0000 0.07717  0.61313  0.55612  Biso   1.000  H
  C243     1.0000 0.15997  0.64653  0.53879  Biso   1.000  C
  H183     1.0000 0.15827  0.60963  0.53551  Biso   1.000  H
  C244     1.0000 0.21057  0.69923  0.53118  Biso   1.000  C
  H184     1.0000 0.24457  0.69903  0.52299  Biso   1.000  H
  C245     1.0000 0.21117  0.75188  0.53562  Biso   1.000  C
  C246     1.0000 0.26066  0.80830  0.52469  Biso   1.000  C
  C247     1.0000 0.34937  0.88873  0.50292  Biso   1.000  C
  H185     1.0000 0.38677  0.91563  0.49376  Biso   1.000  H
  C248     1.0000 0.30792  0.90368  0.51176  Biso   1.000  C
  C249     1.0000 0.31240  0.96197  0.50902  Biso   1.000  C
  C250     1.0000 0.26746  0.96719  0.49430  Biso   1.000  C
  C251     1.0000 0.26945  0.02161  0.49385  Biso   1.000  C
  C252     1.0000 0.31794  0.07056  0.50828  Biso   1.000  C
  H186     1.0000 0.31932  0.10770  0.50831  Biso   1.000  H
  C253     1.0000 0.36336  0.06646  0.52234  Biso   1.000  C
  C254     1.0000 0.35997  0.01170  0.52219  Biso   1.000  C
  H187     1.0000 0.39139  0.00818  0.53145  Biso   1.000  H
  C255     1.0000 0.41407  0.11943  0.53798  Biso   1.000  C
  H188     1.0000 0.42107  0.15553  0.52683  Biso   1.000  H
  H189     1.0000 0.40437  0.12143  0.56043  Biso   1.000  H
  H190     1.0000 0.44977  0.11603  0.53683  Biso   1.000  H
  C256     1.0000 0.23137  0.89753  0.45254  Biso   1.000  C
  H191     1.0000 0.26397  0.93073  0.44123  Biso   1.000  H
  H192     1.0000 0.24267  0.86783  0.45768  Biso   1.000  H
  H193     1.0000 0.19597  0.87953  0.43893  Biso   1.000  H
  C257     1.0000 0.22156  0.02861  0.47894  Biso   1.000  C
  C258     1.0000 0.16344  0.98708  0.47656  Biso   1.000  C
  H194     1.0000 0.14712  0.94717  0.48345  Biso   1.000  H
  C259     1.0000 0.18717  0.08264  0.45661  Biso   1.000  C
  C260     1.0000 0.18848  0.13567  0.44348  Biso   1.000  C
  C261     1.0000 0.13623  0.13592  0.43706  Biso   1.000  C
  H195     1.0000 0.09874  0.10139  0.44031  Biso   1.000  H
  C262     1.0000 0.14031  0.18793  0.42578  Biso   1.000  C
  H196     1.0000 0.10550  0.18983  0.42125  Biso   1.000  H
  C263     1.0000 0.19546  0.23690  0.42126  Biso   1.000  C
  H197     1.0000 0.19942  0.27331  0.41405  Biso   1.000  H
  C264     1.0000 0.24494  0.23201  0.42741  Biso   1.000  C
  H198     1.0000 0.28294  0.26562  0.42378  Biso   1.000  H
  Ag12     1.0000 0.98982  0.50611  0.78702  Biso   1.000  Ag
  N45      1.0000 0.83153  0.08786  0.88191  Biso   1.000  N
  N46      1.0000 0.92392  0.19022  0.85736  Biso   1.000  N
  N47      1.0000 0.90084  0.41641  0.80097  Biso   1.000  N
  N48      1.0000 0.90864  0.51561  0.77156  Biso   1.000  N
  O12      1.0000 0.88549  0.25177  0.81476  Biso   1.000  O
  S23      1.0000 0.99279  0.15033  0.84361  Biso   1.000  S
  S24      1.0000 0.79028  0.34830  0.79318  Biso   1.000  S
  C265     1.0000 0.78363  0.03688  0.88951  Biso   1.000  C
  H199     1.0000 0.75083  0.03784  0.89881  Biso   1.000  H
  C266     1.0000 0.77943  0.98207  0.88441  Biso   1.000  C
  H200     1.0000 0.74383  0.94647  0.88946  Biso   1.000  H
  C267     1.0000 0.82663  0.97987  0.87213  Biso   1.000  C
  H201     1.0000 0.82493  0.94297  0.86885  Biso   1.000  H
  C268     1.0000 0.87723  0.03257  0.86452  Biso   1.000  C
  H202     1.0000 0.91123  0.03237  0.85633  Biso   1.000  H
  C269     1.0000 0.87783  0.08522  0.86896  Biso   1.000  C
  C270     1.0000 0.92732  0.14164  0.85803  Biso   1.000  C
  C271     1.0000 0.01603  0.22207  0.83626  Biso   1.000  C
  H203     1.0000 0.05343  0.24897  0.82710  Biso   1.000  H
  C272     1.0000 0.97458  0.23702  0.84510  Biso   1.000  C
  C273     1.0000 0.97906  0.29531  0.84236  Biso   1.000  C
  C274     1.0000 0.93412  0.30053  0.82764  Biso   1.000  C
  C275     1.0000 0.93611  0.35495  0.82719  Biso   1.000  C
  C276     1.0000 0.98460  0.40390  0.84162  Biso   1.000  C
  H204     1.0000 0.98598  0.44104  0.84165  Biso   1.000  H
  C277     1.0000 0.03002  0.39980  0.85568  Biso   1.000  C
  C278     1.0000 0.02663  0.34504  0.85553  Biso   1.000  C
  H205     1.0000 0.05805  0.34152  0.86479  Biso   1.000  H
  C279     1.0000 0.08073  0.45277  0.87132  Biso   1.000  C
  H206     1.0000 0.08773  0.48887  0.86017  Biso   1.000  H
  H207     1.0000 0.07103  0.45477  0.89377  Biso   1.000  H
  H208     1.0000 0.11643  0.44937  0.87017  Biso   1.000  H
  C280     1.0000 0.89803  0.23087  0.78588  Biso   1.000  C
  H209     1.0000 0.93063  0.26407  0.77457  Biso   1.000  H
  H210     1.0000 0.90933  0.20117  0.79102  Biso   1.000  H
  H211     1.0000 0.86263  0.21287  0.77227  Biso   1.000  H
  C281     1.0000 0.88822  0.36195  0.81228  Biso   1.000  C
  C282     1.0000 0.83010  0.32042  0.80990  Biso   1.000  C
  H212     1.0000 0.81378  0.28051  0.81679  Biso   1.000  H
  C283     1.0000 0.85383  0.41598  0.78995  Biso   1.000  C
  C284     1.0000 0.85514  0.46901  0.77682  Biso   1.000  C
  C285     1.0000 0.80289  0.46926  0.77040  Biso   1.000  C
  H213     1.0000 0.76540  0.43473  0.77365  Biso   1.000  H
  C286     1.0000 0.80697  0.52127  0.75912  Biso   1.000  C
  H214     1.0000 0.77216  0.52317  0.75459  Biso   1.000  H
  C287     1.0000 0.86212  0.57024  0.75460  Biso   1.000  C
  H215     1.0000 0.86608  0.60665  0.74739  Biso   1.000  H
  C288     1.0000 0.91160  0.56535  0.76075  Biso   1.000  C
  H216     1.0000 0.94960  0.59896  0.75712  Biso   1.000  H
  Ag13     1.0000 0.18296  0.34351  0.12036  Biso   1.000  Ag
  N49      1.0000 0.92299  0.50180  0.21524  Biso   1.000  N
  N50      1.0000 0.93296  0.40941  0.19069  Biso   1.000  N
  N51      1.0000 0.18223  0.43249  0.13430  Biso   1.000  N
  N52      1.0000 0.27363  0.42469  0.10489  Biso   1.000  N
  O13      1.0000 0.03294  0.44784  0.14809  Biso   1.000  O
  S25      1.0000 0.82420  0.34054  0.17694  Biso   1.000  S
  S26      1.0000 0.22468  0.54305  0.12651  Biso   1.000  S
  C289     1.0000 0.91991  0.54970  0.22284  Biso   1.000  C
  H217     1.0000 0.95367  0.58250  0.23214  Biso   1.000  H
  C290     1.0000 0.86930  0.55390  0.21774  Biso   1.000  C
  H218     1.0000 0.86930  0.58950  0.22279  Biso   1.000  H
  C291     1.0000 0.81990  0.50670  0.20546  Biso   1.000  C
  H219     1.0000 0.78470  0.50840  0.20218  Biso   1.000  H
  C292     1.0000 0.82200  0.45610  0.19785  Biso   1.000  C
  H220     1.0000 0.78780  0.42210  0.18966  Biso   1.000  H
  C293     1.0000 0.87405  0.45550  0.20229  Biso   1.000  C
  C294     1.0000 0.88098  0.40601  0.19136  Biso   1.000  C
  C295     1.0000 0.87270  0.31730  0.16959  Biso   1.000  C
  H221     1.0000 0.86220  0.27990  0.16043  Biso   1.000  H
  C296     1.0000 0.92910  0.35875  0.17843  Biso   1.000  C
  C297     1.0000 0.98291  0.35427  0.17569  Biso   1.000  C
  C298     1.0000 0.03307  0.39921  0.16097  Biso   1.000  C
  C299     1.0000 0.08550  0.39722  0.16052  Biso   1.000  C
  C300     1.0000 0.08596  0.34873  0.17495  Biso   1.000  C
  H222     1.0000 0.12172  0.34735  0.17498  Biso   1.000  H
  C301     1.0000 0.03644  0.30331  0.18901  Biso   1.000  C
  C302     1.0000 0.98507  0.30670  0.18886  Biso   1.000  C
  H223     1.0000 0.95013  0.27528  0.19812  Biso   1.000  H
  C303     1.0000 0.03870  0.25260  0.20465  Biso   1.000  C
  H224     1.0000 0.06780  0.24560  0.19350  Biso   1.000  H
  H225     1.0000 0.05040  0.26230  0.22710  Biso   1.000  H
  H226     1.0000 0.99960  0.21690  0.20350  Biso   1.000  H
  C304     1.0000 0.99950  0.43530  0.11921  Biso   1.000  C
  H227     1.0000 0.00010  0.40270  0.10790  Biso   1.000  H
  H228     1.0000 0.95850  0.42400  0.12435  Biso   1.000  H
  H229     1.0000 0.01690  0.47070  0.10560  Biso   1.000  H
  C305     1.0000 0.14039  0.44511  0.14561  Biso   1.000  C
  C306     1.0000 0.15698  0.50323  0.14323  Biso   1.000  C
  H230     1.0000 0.13339  0.51955  0.15012  Biso   1.000  H
  C307     1.0000 0.22881  0.47950  0.12328  Biso   1.000  C
  C308     1.0000 0.28053  0.47819  0.11015  Biso   1.000  C
  C309     1.0000 0.33303  0.53044  0.10373  Biso   1.000  C
  H231     1.0000 0.33599  0.56793  0.10698  Biso   1.000  H
  C310     1.0000 0.38096  0.52636  0.09245  Biso   1.000  C
  H232     1.0000 0.41767  0.56117  0.08792  Biso   1.000  H
  C311     1.0000 0.37478  0.47121  0.08793  Biso   1.000  C
  H233     1.0000 0.40723  0.46725  0.08072  Biso   1.000  H
  C312     1.0000 0.32041  0.42173  0.09408  Biso   1.000  C
  H234     1.0000 0.31602  0.38373  0.09045  Biso   1.000  H
  Ag14     1.0000 0.84963  0.67685  0.45369  Biso   1.000  Ag
  N53      1.0000 0.58966  0.83513  0.54857  Biso   1.000  N
  N54      1.0000 0.59963  0.74274  0.52402  Biso   1.000  N
  N55      1.0000 0.84890  0.76582  0.46763  Biso   1.000  N
  N56      1.0000 0.94030  0.75802  0.43822  Biso   1.000  N
  O14      1.0000 0.69961  0.78117  0.48142  Biso   1.000  O
  S27      1.0000 0.49087  0.67387  0.51027  Biso   1.000  S
  S28      1.0000 0.89135  0.87638  0.45984  Biso   1.000  S
  C313     1.0000 0.58658  0.88303  0.55617  Biso   1.000  C
  H235     1.0000 0.62034  0.91583  0.56547  Biso   1.000  H
  C314     1.0000 0.53597  0.88723  0.55107  Biso   1.000  C
  H236     1.0000 0.53597  0.92283  0.55612  Biso   1.000  H
  C315     1.0000 0.48657  0.84003  0.53879  Biso   1.000  C
  H237     1.0000 0.45137  0.84173  0.53551  Biso   1.000  H
  C316     1.0000 0.48867  0.78943  0.53118  Biso   1.000  C
  H238     1.0000 0.45447  0.75543  0.52299  Biso   1.000  H
  C317     1.0000 0.54072  0.78883  0.53562  Biso   1.000  C
  C318     1.0000 0.54765  0.73934  0.52469  Biso   1.000  C
  C319     1.0000 0.53937  0.65063  0.50292  Biso   1.000  C
  H239     1.0000 0.52887  0.61323  0.49376  Biso   1.000  H
  C320     1.0000 0.59577  0.69208  0.51176  Biso   1.000  C
  C321     1.0000 0.64958  0.68760  0.50902  Biso   1.000  C
  C322     1.0000 0.69974  0.73254  0.49430  Biso   1.000  C
  C323     1.0000 0.75217  0.73055  0.49385  Biso   1.000  C
  C324     1.0000 0.75263  0.68206  0.50828  Biso   1.000  C
  H240     1.0000 0.78839  0.68068  0.50831  Biso   1.000  H
  C325     1.0000 0.70311  0.63664  0.52234  Biso   1.000  C
  C326     1.0000 0.65174  0.64003  0.52219  Biso   1.000  C
  H241     1.0000 0.61680  0.60861  0.53145  Biso   1.000  H
  C327     1.0000 0.70537  0.58593  0.53798  Biso   1.000  C
  H242     1.0000 0.73447  0.57893  0.52683  Biso   1.000  H
  H243     1.0000 0.71707  0.59563  0.56043  Biso   1.000  H
  H244     1.0000 0.66627  0.55023  0.53683  Biso   1.000  H
  C328     1.0000 0.66617  0.76863  0.45254  Biso   1.000  C
  H245     1.0000 0.66677  0.73603  0.44123  Biso   1.000  H
  H246     1.0000 0.62517  0.75733  0.45768  Biso   1.000  H
  H247     1.0000 0.68357  0.80403  0.43893  Biso   1.000  H
  C329     1.0000 0.80706  0.77844  0.47894  Biso   1.000  C
  C330     1.0000 0.82365  0.83656  0.47656  Biso   1.000  C
  H248     1.0000 0.80006  0.85288  0.48345  Biso   1.000  H
  C331     1.0000 0.89548  0.81283  0.45661  Biso   1.000  C
  C332     1.0000 0.94720  0.81152  0.44348  Biso   1.000  C
  C333     1.0000 0.99970  0.86377  0.43706  Biso   1.000  C
  H249     1.0000 0.00266  0.90126  0.44031  Biso   1.000  H
  C334     1.0000 0.04763  0.85969  0.42578  Biso   1.000  C
  H250     1.0000 0.08434  0.89450  0.42125  Biso   1.000  H
  C335     1.0000 0.04145  0.80454  0.42126  Biso   1.000  C
  H251     1.0000 0.07390  0.80058  0.41405  Biso   1.000  H
  C336     1.0000 0.98708  0.75506  0.42741  Biso   1.000  C
  H252     1.0000 0.98269  0.71706  0.42378  Biso   1.000  H
  Ag15     1.0000 0.51629  0.01018  0.78702  Biso   1.000  Ag
  N57      1.0000 0.25632  0.16847  0.88191  Biso   1.000  N
  N58      1.0000 0.26629  0.07608  0.85736  Biso   1.000  N
  N59      1.0000 0.51556  0.09916  0.80097  Biso   1.000  N
  N60      1.0000 0.60696  0.09136  0.77156  Biso   1.000  N
  O15      1.0000 0.36627  0.11451  0.81476  Biso   1.000  O
  S29      1.0000 0.15753  0.00721  0.84361  Biso   1.000  S
  S30      1.0000 0.55801  0.20972  0.79318  Biso   1.000  S
  C337     1.0000 0.25324  0.21637  0.88951  Biso   1.000  C
  H253     1.0000 0.28700  0.24917  0.89881  Biso   1.000  H
  C338     1.0000 0.20263  0.22057  0.88441  Biso   1.000  C
  H254     1.0000 0.20263  0.25617  0.88946  Biso   1.000  H
  C339     1.0000 0.15323  0.17337  0.87213  Biso   1.000  C
  H255     1.0000 0.11803  0.17507  0.86885  Biso   1.000  H
  C340     1.0000 0.15533  0.12277  0.86452  Biso   1.000  C
  H256     1.0000 0.12113  0.08877  0.85633  Biso   1.000  H
  C341     1.0000 0.20738  0.12217  0.86896  Biso   1.000  C
  C342     1.0000 0.21431  0.07268  0.85803  Biso   1.000  C
  C343     1.0000 0.20603  0.98397  0.83626  Biso   1.000  C
  H257     1.0000 0.19553  0.94657  0.82710  Biso   1.000  H
  C344     1.0000 0.26243  0.02542  0.84510  Biso   1.000  C
  C345     1.0000 0.31624  0.02094  0.84236  Biso   1.000  C
  C346     1.0000 0.36640  0.06588  0.82764  Biso   1.000  C
  C347     1.0000 0.41883  0.06389  0.82719  Biso   1.000  C
  C348     1.0000 0.41929  0.01540  0.84162  Biso   1.000  C
  H258     1.0000 0.45505  0.01402  0.84165  Biso   1.000  H
  C349     1.0000 0.36977  0.96998  0.85568  Biso   1.000  C
  C350     1.0000 0.31840  0.97337  0.85553  Biso   1.000  C
  H259     1.0000 0.28346  0.94195  0.86479  Biso   1.000  H
  C351     1.0000 0.37203  0.91927  0.87132  Biso   1.000  C
  H260     1.0000 0.40113  0.91227  0.86017  Biso   1.000  H
  H261     1.0000 0.38373  0.92897  0.89377  Biso   1.000  H
  H262     1.0000 0.33293  0.88357  0.87017  Biso   1.000  H
  C352     1.0000 0.33283  0.10197  0.78588  Biso   1.000  C
  H263     1.0000 0.33343  0.06937  0.77457  Biso   1.000  H
  H264     1.0000 0.29183  0.09067  0.79102  Biso   1.000  H
  H265     1.0000 0.35023  0.13737  0.77227  Biso   1.000  H
  C353     1.0000 0.47372  0.11178  0.81228  Biso   1.000  C
  C354     1.0000 0.49031  0.16990  0.80990  Biso   1.000  C
  H266     1.0000 0.46672  0.18622  0.81679  Biso   1.000  H
  C355     1.0000 0.56214  0.14617  0.78995  Biso   1.000  C
  C356     1.0000 0.61386  0.14486  0.77682  Biso   1.000  C
  C357     1.0000 0.66636  0.19711  0.77040  Biso   1.000  C
  H267     1.0000 0.66932  0.23460  0.77365  Biso   1.000  H
  C358     1.0000 0.71429  0.19303  0.75912  Biso   1.000  C
  H268     1.0000 0.75100  0.22784  0.75459  Biso   1.000  H
  C359     1.0000 0.70811  0.13788  0.75460  Biso   1.000  C
  H269     1.0000 0.74056  0.13392  0.74739  Biso   1.000  H
  C360     1.0000 0.65374  0.08840  0.76075  Biso   1.000  C
  H270     1.0000 0.64935  0.05040  0.75712  Biso   1.000  H
  Ag16     1.0000 0.16055  0.81704  0.12036  Biso   1.000  Ag
  N61      1.0000 0.57881  0.07701  0.21524  Biso   1.000  N
  N62      1.0000 0.47645  0.06704  0.19069  Biso   1.000  N
  N63      1.0000 0.25026  0.81777  0.13430  Biso   1.000  N
  N64      1.0000 0.15106  0.72637  0.10489  Biso   1.000  N
  O16      1.0000 0.41490  0.96706  0.14809  Biso   1.000  O
  S31      1.0000 0.51634  0.17580  0.17694  Biso   1.000  S
  S32      1.0000 0.31837  0.77532  0.12651  Biso   1.000  S
  C361     1.0000 0.62979  0.08009  0.22284  Biso   1.000  C
  H271     1.0000 0.62883  0.04633  0.23214  Biso   1.000  H
  C362     1.0000 0.68460  0.13070  0.21774  Biso   1.000  C
  H272     1.0000 0.72020  0.13070  0.22279  Biso   1.000  H
  C363     1.0000 0.68680  0.18010  0.20546  Biso   1.000  C
  H273     1.0000 0.72370  0.21530  0.20218  Biso   1.000  H
  C364     1.0000 0.63410  0.17800  0.19785  Biso   1.000  C
  H274     1.0000 0.63430  0.21220  0.18966  Biso   1.000  H
  C365     1.0000 0.58145  0.12595  0.20229  Biso   1.000  C
  C366     1.0000 0.52503  0.11902  0.19136  Biso   1.000  C
  C367     1.0000 0.44460  0.12730  0.16959  Biso   1.000  C
  H275     1.0000 0.41770  0.13780  0.16043  Biso   1.000  H
  C368     1.0000 0.42965  0.07090  0.17843  Biso   1.000  C
  C369     1.0000 0.37136  0.01709  0.17569  Biso   1.000  C
  C370     1.0000 0.36614  0.96693  0.16097  Biso   1.000  C
  C371     1.0000 0.31172  0.91450  0.16052  Biso   1.000  C
  C372     1.0000 0.26277  0.91404  0.17495  Biso   1.000  C
  H276     1.0000 0.22563  0.87828  0.17498  Biso   1.000  H
  C373     1.0000 0.26687  0.96356  0.18901  Biso   1.000  C
  C374     1.0000 0.32163  0.01493  0.18886  Biso   1.000  C
  H277     1.0000 0.32515  0.04987  0.19812  Biso   1.000  H
  C375     1.0000 0.21390  0.96130  0.20465  Biso   1.000  C
  H278     1.0000 0.17780  0.93220  0.19350  Biso   1.000  H
  H279     1.0000 0.21190  0.94960  0.22710  Biso   1.000  H
  H280     1.0000 0.21730  0.00040  0.20350  Biso   1.000  H
  C376     1.0000 0.43580  0.00050  0.11921  Biso   1.000  C
  H281     1.0000 0.40260  0.99990  0.10790  Biso   1.000  H
  H282     1.0000 0.46550  0.04150  0.12435  Biso   1.000  H
  H283     1.0000 0.45380  0.98310  0.10560  Biso   1.000  H
  C377     1.0000 0.30472  0.85961  0.14561  Biso   1.000  C
  C378     1.0000 0.34625  0.84302  0.14323  Biso   1.000  C
  H284     1.0000 0.38616  0.86661  0.15012  Biso   1.000  H
  C379     1.0000 0.25069  0.77119  0.12328  Biso   1.000  C
  C380     1.0000 0.19766  0.71947  0.11015  Biso   1.000  C
  C381     1.0000 0.19741  0.66697  0.10373  Biso   1.000  C
  H285     1.0000 0.23194  0.66401  0.10698  Biso   1.000  H
  C382     1.0000 0.14540  0.61904  0.09245  Biso   1.000  C
  H286     1.0000 0.14350  0.58233  0.08792  Biso   1.000  H
  C383     1.0000 0.09643  0.62522  0.08793  Biso   1.000  C
  H287     1.0000 0.06002  0.59277  0.08072  Biso   1.000  H
  C384     1.0000 0.10132  0.67959  0.09408  Biso   1.000  C
  H288     1.0000 0.06771  0.68398  0.09045  Biso   1.000  H
  Ag17     1.0000 0.82722  0.15037  0.45369  Biso   1.000  Ag
  N65      1.0000 0.24548  0.41034  0.54857  Biso   1.000  N
  N66      1.0000 0.14312  0.40037  0.52402  Biso   1.000  N
  N67      1.0000 0.91693  0.15110  0.46763  Biso   1.000  N
  N68      1.0000 0.81773  0.05970  0.43822  Biso   1.000  N
  O17      1.0000 0.08157  0.30039  0.48142  Biso   1.000  O
  S33      1.0000 0.18301  0.50913  0.51027  Biso   1.000  S
  S34      1.0000 0.98504  0.10865  0.45984  Biso   1.000  S
  C385     1.0000 0.29646  0.41342  0.55617  Biso   1.000  C
  H289     1.0000 0.29550  0.37966  0.56547  Biso   1.000  H
  C386     1.0000 0.35127  0.46403  0.55107  Biso   1.000  C
  H290     1.0000 0.38687  0.46403  0.55612  Biso   1.000  H
  C387     1.0000 0.35347  0.51343  0.53879  Biso   1.000  C
  H291     1.0000 0.39037  0.54863  0.53551  Biso   1.000  H
  C388     1.0000 0.30077  0.51133  0.53118  Biso   1.000  C
  H292     1.0000 0.30097  0.54553  0.52299  Biso   1.000  H
  C389     1.0000 0.24812  0.45928  0.53562  Biso   1.000  C
  C390     1.0000 0.19170  0.45235  0.52469  Biso   1.000  C
  C391     1.0000 0.11127  0.46063  0.50292  Biso   1.000  C
  H293     1.0000 0.08437  0.47113  0.49376  Biso   1.000  H
  C392     1.0000 0.09632  0.40423  0.51176  Biso   1.000  C
  C393     1.0000 0.03803  0.35042  0.50902  Biso   1.000  C
  C394     1.0000 0.03281  0.30026  0.49430  Biso   1.000  C
  C395     1.0000 0.97839  0.24783  0.49385  Biso   1.000  C
  C396     1.0000 0.92944  0.24737  0.50828  Biso   1.000  C
  H294     1.0000 0.89230  0.21161  0.50831  Biso   1.000  H
  C397     1.0000 0.93354  0.29689  0.52234  Biso   1.000  C
  C398     1.0000 0.98830  0.34826  0.52219  Biso   1.000  C
  H295     1.0000 0.99182  0.38320  0.53145  Biso   1.000  H
  C399     1.0000 0.88057  0.29463  0.53798  Biso   1.000  C
  H296     1.0000 0.84447  0.26553  0.52683  Biso   1.000  H
  H297     1.0000 0.87857  0.28293  0.56043  Biso   1.000  H
  H298     1.0000 0.88397  0.33373  0.53683  Biso   1.000  H
  C400     1.0000 0.10247  0.33383  0.45254  Biso   1.000  C
  H299     1.0000 0.06927  0.33323  0.44123  Biso   1.000  H
  H300     1.0000 0.13217  0.37483  0.45768  Biso   1.000  H
  H301     1.0000 0.12047  0.31643  0.43893  Biso   1.000  H
  C401     1.0000 0.97139  0.19294  0.47894  Biso   1.000  C
  C402     1.0000 0.01292  0.17635  0.47656  Biso   1.000  C
  H302     1.0000 0.05283  0.19994  0.48345  Biso   1.000  H
  C403     1.0000 0.91736  0.10452  0.45661  Biso   1.000  C
  C404     1.0000 0.86433  0.05280  0.44348  Biso   1.000  C
  C405     1.0000 0.86408  0.00030  0.43706  Biso   1.000  C
  H303     1.0000 0.89861  0.99734  0.44031  Biso   1.000  H
  C406     1.0000 0.81207  0.95237  0.42578  Biso   1.000  C
  H304     1.0000 0.81017  0.91566  0.42125  Biso   1.000  H
  C407     1.0000 0.76310  0.95855  0.42126  Biso   1.000  C
  H305     1.0000 0.72669  0.92610  0.41405  Biso   1.000  H
  C408     1.0000 0.76799  0.01292  0.42741  Biso   1.000  C
  H306     1.0000 0.73438  0.01731  0.42378  Biso   1.000  H
  Ag18     1.0000 0.49389  0.48371  0.78702  Biso   1.000  Ag
  N69      1.0000 0.91214  0.74368  0.88191  Biso   1.000  N
  N70      1.0000 0.80978  0.73371  0.85736  Biso   1.000  N
  N71      1.0000 0.58359  0.48444  0.80097  Biso   1.000  N
  N72      1.0000 0.48439  0.39304  0.77156  Biso   1.000  N
  O18      1.0000 0.74823  0.63373  0.81476  Biso   1.000  O
  S35      1.0000 0.84967  0.84247  0.84361  Biso   1.000  S
  S36      1.0000 0.65170  0.44199  0.79318  Biso   1.000  S
  C409     1.0000 0.96312  0.74676  0.88951  Biso   1.000  C
  H307     1.0000 0.96216  0.71300  0.89881  Biso   1.000  H
  C410     1.0000 0.01793  0.79737  0.88441  Biso   1.000  C
  H308     1.0000 0.05353  0.79737  0.88946  Biso   1.000  H
  C411     1.0000 0.02013  0.84677  0.87213  Biso   1.000  C
  H309     1.0000 0.05703  0.88197  0.86885  Biso   1.000  H
  C412     1.0000 0.96743  0.84467  0.86452  Biso   1.000  C
  H310     1.0000 0.96763  0.87887  0.85633  Biso   1.000  H
  C413     1.0000 0.91478  0.79262  0.86896  Biso   1.000  C
  C414     1.0000 0.85836  0.78569  0.85803  Biso   1.000  C
  C415     1.0000 0.77793  0.79397  0.83626  Biso   1.000  C
  H311     1.0000 0.75103  0.80447  0.82710  Biso   1.000  H
  C416     1.0000 0.76298  0.73757  0.84510  Biso   1.000  C
  C417     1.0000 0.70469  0.68376  0.84236  Biso   1.000  C
  C418     1.0000 0.69947  0.63360  0.82764  Biso   1.000  C
  C419     1.0000 0.64505  0.58117  0.82719  Biso   1.000  C
  C420     1.0000 0.59610  0.58071  0.84162  Biso   1.000  C
  H312     1.0000 0.55896  0.54495  0.84165  Biso   1.000  H
  C421     1.0000 0.60020  0.63023  0.85568  Biso   1.000  C
  C422     1.0000 0.65496  0.68160  0.85553  Biso   1.000  C
  H313     1.0000 0.65848  0.71654  0.86479  Biso   1.000  H
  C423     1.0000 0.54723  0.62797  0.87132  Biso   1.000  C
  H314     1.0000 0.51113  0.59887  0.86017  Biso   1.000  H
  H315     1.0000 0.54523  0.61627  0.89377  Biso   1.000  H
  H316     1.0000 0.55063  0.66707  0.87017  Biso   1.000  H
  C424     1.0000 0.76913  0.66717  0.78588  Biso   1.000  C
  H317     1.0000 0.73593  0.66657  0.77457  Biso   1.000  H
  H318     1.0000 0.79883  0.70817  0.79102  Biso   1.000  H
  H319     1.0000 0.78713  0.64977  0.77227  Biso   1.000  H
  C425     1.0000 0.63805  0.52628  0.81228  Biso   1.000  C
  C426     1.0000 0.67958  0.50969  0.80990  Biso   1.000  C
  H320     1.0000 0.71949  0.53328  0.81679  Biso   1.000  H
  C427     1.0000 0.58402  0.43786  0.78995  Biso   1.000  C
  C428     1.0000 0.53099  0.38614  0.77682  Biso   1.000  C
  C429     1.0000 0.53074  0.33364  0.77040  Biso   1.000  C
  H321     1.0000 0.56527  0.33068  0.77365  Biso   1.000  H
  C430     1.0000 0.47873  0.28571  0.75912  Biso   1.000  C
  H322     1.0000 0.47683  0.24900  0.75459  Biso   1.000  H
  C431     1.0000 0.42976  0.29189  0.75460  Biso   1.000  C
  H323     1.0000 0.39335  0.25944  0.74739  Biso   1.000  H
  C432     1.0000 0.43465  0.34626  0.76075  Biso   1.000  C
  H324     1.0000 0.40104  0.35065  0.75712  Biso   1.000  H
  Ag19     1.0000 0.16055  0.34351  0.62036  Biso   1.000  Ag
  N73      1.0000 0.57881  0.50180  0.71524  Biso   1.000  N
  N74      1.0000 0.47645  0.40941  0.69069  Biso   1.000  N
  N75      1.0000 0.25026  0.43249  0.63430  Biso   1.000  N
  N76      1.0000 0.15106  0.42469  0.60489  Biso   1.000  N
  O19      1.0000 0.41490  0.44784  0.64809  Biso   1.000  O
  S37      1.0000 0.51634  0.34054  0.67694  Biso   1.000  S
  S38      1.0000 0.31837  0.54305  0.62651  Biso   1.000  S
  C433     1.0000 0.62979  0.54970  0.72284  Biso   1.000  C
  H325     1.0000 0.62883  0.58250  0.73214  Biso   1.000  H
  C434     1.0000 0.68460  0.55390  0.71774  Biso   1.000  C
  H326     1.0000 0.72020  0.58950  0.72279  Biso   1.000  H
  C435     1.0000 0.68680  0.50670  0.70546  Biso   1.000  C
  H327     1.0000 0.72370  0.50840  0.70218  Biso   1.000  H
  C436     1.0000 0.63410  0.45610  0.69785  Biso   1.000  C
  H328     1.0000 0.63430  0.42210  0.68966  Biso   1.000  H
  C437     1.0000 0.58145  0.45550  0.70229  Biso   1.000  C
  C438     1.0000 0.52503  0.40601  0.69136  Biso   1.000  C
  C439     1.0000 0.44460  0.31730  0.66959  Biso   1.000  C
  H329     1.0000 0.41770  0.27990  0.66043  Biso   1.000  H
  C440     1.0000 0.42965  0.35875  0.67843  Biso   1.000  C
  C441     1.0000 0.37136  0.35427  0.67569  Biso   1.000  C
  C442     1.0000 0.36614  0.39921  0.66097  Biso   1.000  C
  C443     1.0000 0.31172  0.39722  0.66052  Biso   1.000  C
  C444     1.0000 0.26277  0.34873  0.67495  Biso   1.000  C
  H330     1.0000 0.22563  0.34735  0.67498  Biso   1.000  H
  C445     1.0000 0.26687  0.30331  0.68901  Biso   1.000  C
  C446     1.0000 0.32163  0.30670  0.68886  Biso   1.000  C
  H331     1.0000 0.32515  0.27528  0.69812  Biso   1.000  H
  C447     1.0000 0.21390  0.25260  0.70465  Biso   1.000  C
  H332     1.0000 0.17780  0.24560  0.69350  Biso   1.000  H
  H333     1.0000 0.21190  0.26230  0.72710  Biso   1.000  H
  H334     1.0000 0.21730  0.21690  0.70350  Biso   1.000  H
  C448     1.0000 0.43580  0.43530  0.61921  Biso   1.000  C
  H335     1.0000 0.40260  0.40270  0.60790  Biso   1.000  H
  H336     1.0000 0.46550  0.42400  0.62435  Biso   1.000  H
  H337     1.0000 0.45380  0.47070  0.60560  Biso   1.000  H
  C449     1.0000 0.30472  0.44511  0.64561  Biso   1.000  C
  C450     1.0000 0.34625  0.50323  0.64323  Biso   1.000  C
  H338     1.0000 0.38616  0.51955  0.65012  Biso   1.000  H
  C451     1.0000 0.25069  0.47950  0.62328  Biso   1.000  C
  C452     1.0000 0.19766  0.47819  0.61015  Biso   1.000  C
  C453     1.0000 0.19741  0.53044  0.60373  Biso   1.000  C
  H339     1.0000 0.23194  0.56793  0.60698  Biso   1.000  H
  C454     1.0000 0.14540  0.52636  0.59245  Biso   1.000  C
  H340     1.0000 0.14350  0.56117  0.58792  Biso   1.000  H
  C455     1.0000 0.09643  0.47121  0.58793  Biso   1.000  C
  H341     1.0000 0.06002  0.46725  0.58072  Biso   1.000  H
  C456     1.0000 0.10132  0.42173  0.59408  Biso   1.000  C
  H342     1.0000 0.06771  0.38373  0.59045  Biso   1.000  H
  Ag20     1.0000 0.82722  0.67685  0.95369  Biso   1.000  Ag
  N77      1.0000 0.24548  0.83513  0.04857  Biso   1.000  N
  N78      1.0000 0.14312  0.74274  0.02402  Biso   1.000  N
  N79      1.0000 0.91693  0.76582  0.96763  Biso   1.000  N
  N80      1.0000 0.81773  0.75802  0.93822  Biso   1.000  N
  O20      1.0000 0.08157  0.78117  0.98142  Biso   1.000  O
  S39      1.0000 0.18301  0.67387  0.01027  Biso   1.000  S
  S40      1.0000 0.98504  0.87638  0.95984  Biso   1.000  S
  C457     1.0000 0.29646  0.88303  0.05617  Biso   1.000  C
  H343     1.0000 0.29550  0.91583  0.06547  Biso   1.000  H
  C458     1.0000 0.35127  0.88723  0.05107  Biso   1.000  C
  H344     1.0000 0.38687  0.92283  0.05612  Biso   1.000  H
  C459     1.0000 0.35347  0.84003  0.03879  Biso   1.000  C
  H345     1.0000 0.39037  0.84173  0.03551  Biso   1.000  H
  C460     1.0000 0.30077  0.78943  0.03118  Biso   1.000  C
  H346     1.0000 0.30097  0.75543  0.02299  Biso   1.000  H
  C461     1.0000 0.24812  0.78883  0.03562  Biso   1.000  C
  C462     1.0000 0.19170  0.73934  0.02469  Biso   1.000  C
  C463     1.0000 0.11127  0.65063  0.00292  Biso   1.000  C
  H347     1.0000 0.08437  0.61323  0.99376  Biso   1.000  H
  C464     1.0000 0.09632  0.69208  0.01176  Biso   1.000  C
  C465     1.0000 0.03803  0.68760  0.00902  Biso   1.000  C
  C466     1.0000 0.03281  0.73254  0.99430  Biso   1.000  C
  C467     1.0000 0.97839  0.73055  0.99385  Biso   1.000  C
  C468     1.0000 0.92944  0.68206  0.00828  Biso   1.000  C
  H348     1.0000 0.89230  0.68068  0.00831  Biso   1.000  H
  C469     1.0000 0.93354  0.63664  0.02234  Biso   1.000  C
  C470     1.0000 0.98830  0.64003  0.02219  Biso   1.000  C
  H349     1.0000 0.99182  0.60861  0.03145  Biso   1.000  H
  C471     1.0000 0.88057  0.58593  0.03798  Biso   1.000  C
  H350     1.0000 0.84447  0.57893  0.02683  Biso   1.000  H
  H351     1.0000 0.87857  0.59563  0.06043  Biso   1.000  H
  H352     1.0000 0.88397  0.55023  0.03683  Biso   1.000  H
  C472     1.0000 0.10247  0.76863  0.95254  Biso   1.000  C
  H353     1.0000 0.06927  0.73603  0.94123  Biso   1.000  H
  H354     1.0000 0.13217  0.75733  0.95768  Biso   1.000  H
  H355     1.0000 0.12047  0.80403  0.93893  Biso   1.000  H
  C473     1.0000 0.97139  0.77844  0.97894  Biso   1.000  C
  C474     1.0000 0.01292  0.83656  0.97656  Biso   1.000  C
  H356     1.0000 0.05283  0.85288  0.98345  Biso   1.000  H
  C475     1.0000 0.91736  0.81283  0.95661  Biso   1.000  C
  C476     1.0000 0.86433  0.81152  0.94348  Biso   1.000  C
  C477     1.0000 0.86408  0.86377  0.93706  Biso   1.000  C
  H357     1.0000 0.89861  0.90126  0.94031  Biso   1.000  H
  C478     1.0000 0.81207  0.85969  0.92578  Biso   1.000  C
  H358     1.0000 0.81017  0.89450  0.92125  Biso   1.000  H
  C479     1.0000 0.76310  0.80454  0.92126  Biso   1.000  C
  H359     1.0000 0.72669  0.80058  0.91405  Biso   1.000  H
  C480     1.0000 0.76799  0.75506  0.92741  Biso   1.000  C
  H360     1.0000 0.73438  0.71706  0.92378  Biso   1.000  H
  Ag21     1.0000 0.49389  0.01018  0.28702  Biso   1.000  Ag
  N81      1.0000 0.91214  0.16847  0.38191  Biso   1.000  N
  N82      1.0000 0.80978  0.07608  0.35736  Biso   1.000  N
  N83      1.0000 0.58359  0.09916  0.30097  Biso   1.000  N
  N84      1.0000 0.48439  0.09136  0.27156  Biso   1.000  N
  O21      1.0000 0.74823  0.11451  0.31476  Biso   1.000  O
  S41      1.0000 0.84967  0.00721  0.34361  Biso   1.000  S
  S42      1.0000 0.65170  0.20972  0.29318  Biso   1.000  S
  C481     1.0000 0.96312  0.21637  0.38951  Biso   1.000  C
  H361     1.0000 0.96216  0.24917  0.39881  Biso   1.000  H
  C482     1.0000 0.01793  0.22057  0.38441  Biso   1.000  C
  H362     1.0000 0.05353  0.25617  0.38946  Biso   1.000  H
  C483     1.0000 0.02013  0.17337  0.37213  Biso   1.000  C
  H363     1.0000 0.05703  0.17507  0.36885  Biso   1.000  H
  C484     1.0000 0.96743  0.12277  0.36452  Biso   1.000  C
  H364     1.0000 0.96763  0.08877  0.35633  Biso   1.000  H
  C485     1.0000 0.91478  0.12217  0.36896  Biso   1.000  C
  C486     1.0000 0.85836  0.07268  0.35803  Biso   1.000  C
  C487     1.0000 0.77793  0.98397  0.33626  Biso   1.000  C
  H365     1.0000 0.75103  0.94657  0.32710  Biso   1.000  H
  C488     1.0000 0.76298  0.02542  0.34510  Biso   1.000  C
  C489     1.0000 0.70469  0.02094  0.34236  Biso   1.000  C
  C490     1.0000 0.69947  0.06588  0.32764  Biso   1.000  C
  C491     1.0000 0.64505  0.06389  0.32719  Biso   1.000  C
  C492     1.0000 0.59610  0.01540  0.34162  Biso   1.000  C
  H366     1.0000 0.55896  0.01402  0.34165  Biso   1.000  H
  C493     1.0000 0.60020  0.96998  0.35568  Biso   1.000  C
  C494     1.0000 0.65496  0.97337  0.35553  Biso   1.000  C
  H367     1.0000 0.65848  0.94195  0.36479  Biso   1.000  H
  C495     1.0000 0.54723  0.91927  0.37132  Biso   1.000  C
  H368     1.0000 0.51113  0.91227  0.36017  Biso   1.000  H
  H369     1.0000 0.54523  0.92897  0.39377  Biso   1.000  H
  H370     1.0000 0.55063  0.88357  0.37017  Biso   1.000  H
  C496     1.0000 0.76913  0.10197  0.28588  Biso   1.000  C
  H371     1.0000 0.73593  0.06937  0.27457  Biso   1.000  H
  H372     1.0000 0.79883  0.09067  0.29102  Biso   1.000  H
  H373     1.0000 0.78713  0.13737  0.27227  Biso   1.000  H
  C497     1.0000 0.63805  0.11178  0.31228  Biso   1.000  C
  C498     1.0000 0.67958  0.16990  0.30990  Biso   1.000  C
  H374     1.0000 0.71949  0.18622  0.31679  Biso   1.000  H
  C499     1.0000 0.58402  0.14617  0.28995  Biso   1.000  C
  C500     1.0000 0.53099  0.14486  0.27682  Biso   1.000  C
  C501     1.0000 0.53074  0.19711  0.27040  Biso   1.000  C
  H375     1.0000 0.56527  0.23460  0.27365  Biso   1.000  H
  C502     1.0000 0.47873  0.19303  0.25912  Biso   1.000  C
  H376     1.0000 0.47683  0.22784  0.25459  Biso   1.000  H
  C503     1.0000 0.42976  0.13788  0.25460  Biso   1.000  C
  H377     1.0000 0.39335  0.13392  0.24739  Biso   1.000  H
  C504     1.0000 0.43465  0.08840  0.26075  Biso   1.000  C
  H378     1.0000 0.40104  0.05040  0.25712  Biso   1.000  H
  Ag22     1.0000 0.65649  0.81704  0.62036  Biso   1.000  Ag
  N85      1.0000 0.49820  0.07701  0.71524  Biso   1.000  N
  N86      1.0000 0.59059  0.06704  0.69069  Biso   1.000  N
  N87      1.0000 0.56751  0.81777  0.63430  Biso   1.000  N
  N88      1.0000 0.57531  0.72637  0.60489  Biso   1.000  N
  O22      1.0000 0.55216  0.96706  0.64809  Biso   1.000  O
  S43      1.0000 0.65946  0.17580  0.67694  Biso   1.000  S
  S44      1.0000 0.45695  0.77532  0.62651  Biso   1.000  S
  C505     1.0000 0.45030  0.08009  0.72284  Biso   1.000  C
  H379     1.0000 0.41750  0.04633  0.73214  Biso   1.000  H
  C506     1.0000 0.44610  0.13070  0.71774  Biso   1.000  C
  H380     1.0000 0.41050  0.13070  0.72279  Biso   1.000  H
  C507     1.0000 0.49330  0.18010  0.70546  Biso   1.000  C
  H381     1.0000 0.49160  0.21530  0.70218  Biso   1.000  H
  C508     1.0000 0.54390  0.17800  0.69785  Biso   1.000  C
  H382     1.0000 0.57790  0.21220  0.68966  Biso   1.000  H
  C509     1.0000 0.54450  0.12595  0.70229  Biso   1.000  C
  C510     1.0000 0.59399  0.11902  0.69136  Biso   1.000  C
  C511     1.0000 0.68270  0.12730  0.66959  Biso   1.000  C
  H383     1.0000 0.72010  0.13780  0.66043  Biso   1.000  H
  C512     1.0000 0.64125  0.07090  0.67843  Biso   1.000  C
  C513     1.0000 0.64573  0.01709  0.67569  Biso   1.000  C
  C514     1.0000 0.60079  0.96693  0.66097  Biso   1.000  C
  C515     1.0000 0.60278  0.91450  0.66052  Biso   1.000  C
  C516     1.0000 0.65127  0.91404  0.67495  Biso   1.000  C
  H384     1.0000 0.65265  0.87828  0.67498  Biso   1.000  H
  C517     1.0000 0.69669  0.96356  0.68901  Biso   1.000  C
  C518     1.0000 0.69330  0.01493  0.68886  Biso   1.000  C
  H385     1.0000 0.72472  0.04987  0.69812  Biso   1.000  H
  C519     1.0000 0.74740  0.96130  0.70465  Biso   1.000  C
  H386     1.0000 0.75440  0.93220  0.69350  Biso   1.000  H
  H387     1.0000 0.73770  0.94960  0.72710  Biso   1.000  H
  H388     1.0000 0.78310  0.00040  0.70350  Biso   1.000  H
  C520     1.0000 0.56470  0.00050  0.61921  Biso   1.000  C
  H389     1.0000 0.59730  0.99990  0.60790  Biso   1.000  H
  H390     1.0000 0.57600  0.04150  0.62435  Biso   1.000  H
  H391     1.0000 0.52930  0.98310  0.60560  Biso   1.000  H
  C521     1.0000 0.55489  0.85961  0.64561  Biso   1.000  C
  C522     1.0000 0.49677  0.84302  0.64323  Biso   1.000  C
  H392     1.0000 0.48045  0.86661  0.65012  Biso   1.000  H
  C523     1.0000 0.52050  0.77119  0.62328  Biso   1.000  C
  C524     1.0000 0.52181  0.71947  0.61015  Biso   1.000  C
  C525     1.0000 0.46956  0.66697  0.60373  Biso   1.000  C
  H393     1.0000 0.43207  0.66401  0.60698  Biso   1.000  H
  C526     1.0000 0.47364  0.61904  0.59245  Biso   1.000  C
  H394     1.0000 0.43883  0.58233  0.58792  Biso   1.000  H
  C527     1.0000 0.52879  0.62522  0.58793  Biso   1.000  C
  H395     1.0000 0.53275  0.59277  0.58072  Biso   1.000  H
  C528     1.0000 0.57827  0.67959  0.59408  Biso   1.000  C
  H396     1.0000 0.61627  0.68398  0.59045  Biso   1.000  H
  Ag23     1.0000 0.32315  0.15037  0.95369  Biso   1.000  Ag
  N89      1.0000 0.16487  0.41034  0.04857  Biso   1.000  N
  N90      1.0000 0.25726  0.40037  0.02402  Biso   1.000  N
  N91      1.0000 0.23418  0.15110  0.96763  Biso   1.000  N
  N92      1.0000 0.24198  0.05970  0.93822  Biso   1.000  N
  O23      1.0000 0.21883  0.30039  0.98142  Biso   1.000  O
  S45      1.0000 0.32613  0.50913  0.01027  Biso   1.000  S
  S46      1.0000 0.12362  0.10865  0.95984  Biso   1.000  S
  C529     1.0000 0.11697  0.41342  0.05617  Biso   1.000  C
  H397     1.0000 0.08417  0.37966  0.06547  Biso   1.000  H
  C530     1.0000 0.11277  0.46403  0.05107  Biso   1.000  C
  H398     1.0000 0.07717  0.46403  0.05612  Biso   1.000  H
  C531     1.0000 0.15997  0.51343  0.03879  Biso   1.000  C
  H399     1.0000 0.15827  0.54863  0.03551  Biso   1.000  H
  C532     1.0000 0.21057  0.51133  0.03118  Biso   1.000  C
  H400     1.0000 0.24457  0.54553  0.02299  Biso   1.000  H
  C533     1.0000 0.21117  0.45928  0.03562  Biso   1.000  C
  C534     1.0000 0.26066  0.45235  0.02469  Biso   1.000  C
  C535     1.0000 0.34937  0.46063  0.00292  Biso   1.000  C
  H401     1.0000 0.38677  0.47113  0.99376  Biso   1.000  H
  C536     1.0000 0.30792  0.40423  0.01176  Biso   1.000  C
  C537     1.0000 0.31240  0.35042  0.00902  Biso   1.000  C
  C538     1.0000 0.26746  0.30026  0.99430  Biso   1.000  C
  C539     1.0000 0.26945  0.24783  0.99385  Biso   1.000  C
  C540     1.0000 0.31794  0.24737  0.00828  Biso   1.000  C
  H402     1.0000 0.31932  0.21161  0.00831  Biso   1.000  H
  C541     1.0000 0.36336  0.29689  0.02234  Biso   1.000  C
  C542     1.0000 0.35997  0.34826  0.02219  Biso   1.000  C
  H403     1.0000 0.39139  0.38320  0.03145  Biso   1.000  H
  C543     1.0000 0.41407  0.29463  0.03798  Biso   1.000  C
  H404     1.0000 0.42107  0.26553  0.02683  Biso   1.000  H
  H405     1.0000 0.40437  0.28293  0.06043  Biso   1.000  H
  H406     1.0000 0.44977  0.33373  0.03683  Biso   1.000  H
  C544     1.0000 0.23137  0.33383  0.95254  Biso   1.000  C
  H407     1.0000 0.26397  0.33323  0.94123  Biso   1.000  H
  H408     1.0000 0.24267  0.37483  0.95768  Biso   1.000  H
  H409     1.0000 0.19597  0.31643  0.93893  Biso   1.000  H
  C545     1.0000 0.22156  0.19294  0.97894  Biso   1.000  C
  C546     1.0000 0.16344  0.17635  0.97656  Biso   1.000  C
  H410     1.0000 0.14712  0.19994  0.98345  Biso   1.000  H
  C547     1.0000 0.18717  0.10452  0.95661  Biso   1.000  C
  C548     1.0000 0.18848  0.05280  0.94348  Biso   1.000  C
  C549     1.0000 0.13623  0.00030  0.93706  Biso   1.000  C
  H411     1.0000 0.09874  0.99734  0.94031  Biso   1.000  H
  C550     1.0000 0.14031  0.95237  0.92578  Biso   1.000  C
  H412     1.0000 0.10550  0.91566  0.92125  Biso   1.000  H
  C551     1.0000 0.19546  0.95855  0.92126  Biso   1.000  C
  H413     1.0000 0.19942  0.92610  0.91405  Biso   1.000  H
  C552     1.0000 0.24494  0.01292  0.92741  Biso   1.000  C
  H414     1.0000 0.28294  0.01731  0.92378  Biso   1.000  H
  Ag24     1.0000 0.98982  0.48371  0.28702  Biso   1.000  Ag
  N93      1.0000 0.83153  0.74368  0.38191  Biso   1.000  N
  N94      1.0000 0.92392  0.73371  0.35736  Biso   1.000  N
  N95      1.0000 0.90084  0.48444  0.30097  Biso   1.000  N
  N96      1.0000 0.90864  0.39304  0.27156  Biso   1.000  N
  O24      1.0000 0.88549  0.63373  0.31476  Biso   1.000  O
  S47      1.0000 0.99279  0.84247  0.34361  Biso   1.000  S
  S48      1.0000 0.79028  0.44199  0.29318  Biso   1.000  S
  C553     1.0000 0.78363  0.74676  0.38951  Biso   1.000  C
  H415     1.0000 0.75083  0.71300  0.39881  Biso   1.000  H
  C554     1.0000 0.77943  0.79737  0.38441  Biso   1.000  C
  H416     1.0000 0.74383  0.79737  0.38946  Biso   1.000  H
  C555     1.0000 0.82663  0.84677  0.37213  Biso   1.000  C
  H417     1.0000 0.82493  0.88197  0.36885  Biso   1.000  H
  C556     1.0000 0.87723  0.84467  0.36452  Biso   1.000  C
  H418     1.0000 0.91123  0.87887  0.35633  Biso   1.000  H
  C557     1.0000 0.87783  0.79262  0.36896  Biso   1.000  C
  C558     1.0000 0.92732  0.78569  0.35803  Biso   1.000  C
  C559     1.0000 0.01603  0.79397  0.33626  Biso   1.000  C
  H419     1.0000 0.05343  0.80447  0.32710  Biso   1.000  H
  C560     1.0000 0.97458  0.73757  0.34510  Biso   1.000  C
  C561     1.0000 0.97906  0.68376  0.34236  Biso   1.000  C
  C562     1.0000 0.93412  0.63360  0.32764  Biso   1.000  C
  C563     1.0000 0.93611  0.58117  0.32719  Biso   1.000  C
  C564     1.0000 0.98460  0.58071  0.34162  Biso   1.000  C
  H420     1.0000 0.98598  0.54495  0.34165  Biso   1.000  H
  C565     1.0000 0.03002  0.63023  0.35568  Biso   1.000  C
  C566     1.0000 0.02663  0.68160  0.35553  Biso   1.000  C
  H421     1.0000 0.05805  0.71654  0.36479  Biso   1.000  H
  C567     1.0000 0.08073  0.62797  0.37132  Biso   1.000  C
  H422     1.0000 0.08773  0.59887  0.36017  Biso   1.000  H
  H423     1.0000 0.07103  0.61627  0.39377  Biso   1.000  H
  H424     1.0000 0.11643  0.66707  0.37017  Biso   1.000  H
  C568     1.0000 0.89803  0.66717  0.28588  Biso   1.000  C
  H425     1.0000 0.93063  0.66657  0.27457  Biso   1.000  H
  H426     1.0000 0.90933  0.70817  0.29102  Biso   1.000  H
  H427     1.0000 0.86263  0.64977  0.27227  Biso   1.000  H
  C569     1.0000 0.88822  0.52628  0.31228  Biso   1.000  C
  C570     1.0000 0.83010  0.50969  0.30990  Biso   1.000  C
  H428     1.0000 0.81378  0.53328  0.31679  Biso   1.000  H
  C571     1.0000 0.85383  0.43786  0.28995  Biso   1.000  C
  C572     1.0000 0.85514  0.38614  0.27682  Biso   1.000  C
  C573     1.0000 0.80289  0.33364  0.27040  Biso   1.000  C
  H429     1.0000 0.76540  0.33068  0.27365  Biso   1.000  H
  C574     1.0000 0.80697  0.28571  0.25912  Biso   1.000  C
  H430     1.0000 0.77216  0.24900  0.25459  Biso   1.000  H
  C575     1.0000 0.86212  0.29189  0.25460  Biso   1.000  C
  H431     1.0000 0.86608  0.25944  0.24739  Biso   1.000  H
  C576     1.0000 0.91160  0.34626  0.26075  Biso   1.000  C
  H432     1.0000 0.94960  0.35065  0.25712  Biso   1.000  H
  Ag25     1.0000 0.18296  0.83945  0.62036  Biso   1.000  Ag
  N97      1.0000 0.92299  0.42119  0.71524  Biso   1.000  N
  N98      1.0000 0.93296  0.52355  0.69069  Biso   1.000  N
  N99      1.0000 0.18223  0.74974  0.63430  Biso   1.000  N
  N100     1.0000 0.27363  0.84894  0.60489  Biso   1.000  N
  O25      1.0000 0.03294  0.58510  0.64809  Biso   1.000  O
  S49      1.0000 0.82420  0.48366  0.67694  Biso   1.000  S
  S50      1.0000 0.22468  0.68163  0.62651  Biso   1.000  S
  C577     1.0000 0.91991  0.37021  0.72284  Biso   1.000  C
  H433     1.0000 0.95367  0.37117  0.73214  Biso   1.000  H
  C578     1.0000 0.86930  0.31540  0.71774  Biso   1.000  C
  H434     1.0000 0.86930  0.27980  0.72279  Biso   1.000  H
  C579     1.0000 0.81990  0.31320  0.70546  Biso   1.000  C
  H435     1.0000 0.78470  0.27630  0.70218  Biso   1.000  H
  C580     1.0000 0.82200  0.36590  0.69785  Biso   1.000  C
  H436     1.0000 0.78780  0.36570  0.68966  Biso   1.000  H
  C581     1.0000 0.87405  0.41855  0.70229  Biso   1.000  C
  C582     1.0000 0.88098  0.47497  0.69136  Biso   1.000  C
  C583     1.0000 0.87270  0.55540  0.66959  Biso   1.000  C
  H437     1.0000 0.86220  0.58230  0.66043  Biso   1.000  H
  C584     1.0000 0.92910  0.57035  0.67843  Biso   1.000  C
  C585     1.0000 0.98291  0.62864  0.67569  Biso   1.000  C
  C586     1.0000 0.03307  0.63386  0.66097  Biso   1.000  C
  C587     1.0000 0.08550  0.68828  0.66052  Biso   1.000  C
  C588     1.0000 0.08596  0.73723  0.67495  Biso   1.000  C
  H438     1.0000 0.12172  0.77437  0.67498  Biso   1.000  H
  C589     1.0000 0.03644  0.73313  0.68901  Biso   1.000  C
  C590     1.0000 0.98507  0.67837  0.68886  Biso   1.000  C
  H439     1.0000 0.95013  0.67485  0.69812  Biso   1.000  H
  C591     1.0000 0.03870  0.78610  0.70465  Biso   1.000  C
  H440     1.0000 0.06780  0.82220  0.69350  Biso   1.000  H
  H441     1.0000 0.05040  0.78810  0.72710  Biso   1.000  H
  H442     1.0000 0.99960  0.78270  0.70350  Biso   1.000  H
  C592     1.0000 0.99950  0.56420  0.61921  Biso   1.000  C
  H443     1.0000 0.00010  0.59740  0.60790  Biso   1.000  H
  H444     1.0000 0.95850  0.53450  0.62435  Biso   1.000  H
  H445     1.0000 0.01690  0.54620  0.60560  Biso   1.000  H
  C593     1.0000 0.14039  0.69528  0.64561  Biso   1.000  C
  C594     1.0000 0.15698  0.65375  0.64323  Biso   1.000  C
  H446     1.0000 0.13339  0.61384  0.65012  Biso   1.000  H
  C595     1.0000 0.22881  0.74931  0.62328  Biso   1.000  C
  C596     1.0000 0.28053  0.80234  0.61015  Biso   1.000  C
  C597     1.0000 0.33303  0.80259  0.60373  Biso   1.000  C
  H447     1.0000 0.33599  0.76806  0.60698  Biso   1.000  H
  C598     1.0000 0.38096  0.85460  0.59245  Biso   1.000  C
  H448     1.0000 0.41767  0.85650  0.58792  Biso   1.000  H
  C599     1.0000 0.37478  0.90357  0.58793  Biso   1.000  C
  H449     1.0000 0.40723  0.93998  0.58072  Biso   1.000  H
  C600     1.0000 0.32041  0.89868  0.59408  Biso   1.000  C
  H450     1.0000 0.31602  0.93229  0.59045  Biso   1.000  H
  Ag26     1.0000 0.84963  0.17278  0.95369  Biso   1.000  Ag
  N101     1.0000 0.58966  0.75452  0.04857  Biso   1.000  N
  N102     1.0000 0.59963  0.85688  0.02402  Biso   1.000  N
  N103     1.0000 0.84890  0.08307  0.96763  Biso   1.000  N
  N104     1.0000 0.94030  0.18227  0.93822  Biso   1.000  N
  O26      1.0000 0.69961  0.91843  0.98142  Biso   1.000  O
  S51      1.0000 0.49087  0.81699  0.01027  Biso   1.000  S
  S52      1.0000 0.89135  0.01496  0.95984  Biso   1.000  S
  C601     1.0000 0.58658  0.70354  0.05617  Biso   1.000  C
  H451     1.0000 0.62034  0.70450  0.06547  Biso   1.000  H
  C602     1.0000 0.53597  0.64873  0.05107  Biso   1.000  C
  H452     1.0000 0.53597  0.61313  0.05612  Biso   1.000  H
  C603     1.0000 0.48657  0.64653  0.03879  Biso   1.000  C
  H453     1.0000 0.45137  0.60963  0.03551  Biso   1.000  H
  C604     1.0000 0.48867  0.69923  0.03118  Biso   1.000  C
  H454     1.0000 0.45447  0.69903  0.02299  Biso   1.000  H
  C605     1.0000 0.54072  0.75188  0.03562  Biso   1.000  C
  C606     1.0000 0.54765  0.80830  0.02469  Biso   1.000  C
  C607     1.0000 0.53937  0.88873  0.00292  Biso   1.000  C
  H455     1.0000 0.52887  0.91563  0.99376  Biso   1.000  H
  C608     1.0000 0.59577  0.90368  0.01176  Biso   1.000  C
  C609     1.0000 0.64958  0.96197  0.00902  Biso   1.000  C
  C610     1.0000 0.69974  0.96719  0.99430  Biso   1.000  C
  C611     1.0000 0.75217  0.02161  0.99385  Biso   1.000  C
  C612     1.0000 0.75263  0.07056  0.00828  Biso   1.000  C
  H456     1.0000 0.78839  0.10770  0.00831  Biso   1.000  H
  C613     1.0000 0.70311  0.06646  0.02234  Biso   1.000  C
  C614     1.0000 0.65174  0.01170  0.02219  Biso   1.000  C
  H457     1.0000 0.61680  0.00818  0.03145  Biso   1.000  H
  C615     1.0000 0.70537  0.11943  0.03798  Biso   1.000  C
  H458     1.0000 0.73447  0.15553  0.02683  Biso   1.000  H
  H459     1.0000 0.71707  0.12143  0.06043  Biso   1.000  H
  H460     1.0000 0.66627  0.11603  0.03683  Biso   1.000  H
  C616     1.0000 0.66617  0.89753  0.95254  Biso   1.000  C
  H461     1.0000 0.66677  0.93073  0.94123  Biso   1.000  H
  H462     1.0000 0.62517  0.86783  0.95768  Biso   1.000  H
  H463     1.0000 0.68357  0.87953  0.93893  Biso   1.000  H
  C617     1.0000 0.80706  0.02861  0.97894  Biso   1.000  C
  C618     1.0000 0.82365  0.98708  0.97656  Biso   1.000  C
  H464     1.0000 0.80006  0.94717  0.98345  Biso   1.000  H
  C619     1.0000 0.89548  0.08264  0.95661  Biso   1.000  C
  C620     1.0000 0.94720  0.13567  0.94348  Biso   1.000  C
  C621     1.0000 0.99970  0.13592  0.93706  Biso   1.000  C
  H465     1.0000 0.00266  0.10139  0.94031  Biso   1.000  H
  C622     1.0000 0.04763  0.18793  0.92578  Biso   1.000  C
  H466     1.0000 0.08434  0.18983  0.92125  Biso   1.000  H
  C623     1.0000 0.04145  0.23690  0.92126  Biso   1.000  C
  H467     1.0000 0.07390  0.27331  0.91405  Biso   1.000  H
  C624     1.0000 0.98708  0.23201  0.92741  Biso   1.000  C
  H468     1.0000 0.98269  0.26562  0.92378  Biso   1.000  H
  Ag27     1.0000 0.51629  0.50611  0.28702  Biso   1.000  Ag
  N105     1.0000 0.25632  0.08786  0.38191  Biso   1.000  N
  N106     1.0000 0.26629  0.19022  0.35736  Biso   1.000  N
  N107     1.0000 0.51556  0.41641  0.30097  Biso   1.000  N
  N108     1.0000 0.60696  0.51561  0.27156  Biso   1.000  N
  O27      1.0000 0.36627  0.25177  0.31476  Biso   1.000  O
  S53      1.0000 0.15753  0.15033  0.34361  Biso   1.000  S
  S54      1.0000 0.55801  0.34830  0.29318  Biso   1.000  S
  C625     1.0000 0.25324  0.03688  0.38951  Biso   1.000  C
  H469     1.0000 0.28700  0.03784  0.39881  Biso   1.000  H
  C626     1.0000 0.20263  0.98207  0.38441  Biso   1.000  C
  H470     1.0000 0.20263  0.94647  0.38946  Biso   1.000  H
  C627     1.0000 0.15323  0.97987  0.37213  Biso   1.000  C
  H471     1.0000 0.11803  0.94297  0.36885  Biso   1.000  H
  C628     1.0000 0.15533  0.03257  0.36452  Biso   1.000  C
  H472     1.0000 0.12113  0.03237  0.35633  Biso   1.000  H
  C629     1.0000 0.20738  0.08522  0.36896  Biso   1.000  C
  C630     1.0000 0.21431  0.14164  0.35803  Biso   1.000  C
  C631     1.0000 0.20603  0.22207  0.33626  Biso   1.000  C
  H473     1.0000 0.19553  0.24897  0.32710  Biso   1.000  H
  C632     1.0000 0.26243  0.23702  0.34510  Biso   1.000  C
  C633     1.0000 0.31624  0.29531  0.34236  Biso   1.000  C
  C634     1.0000 0.36640  0.30053  0.32764  Biso   1.000  C
  C635     1.0000 0.41883  0.35495  0.32719  Biso   1.000  C
  C636     1.0000 0.41929  0.40390  0.34162  Biso   1.000  C
  H474     1.0000 0.45505  0.44104  0.34165  Biso   1.000  H
  C637     1.0000 0.36977  0.39980  0.35568  Biso   1.000  C
  C638     1.0000 0.31840  0.34504  0.35553  Biso   1.000  C
  H475     1.0000 0.28346  0.34152  0.36479  Biso   1.000  H
  C639     1.0000 0.37203  0.45277  0.37132  Biso   1.000  C
  H476     1.0000 0.40113  0.48887  0.36017  Biso   1.000  H
  H477     1.0000 0.38373  0.45477  0.39377  Biso   1.000  H
  H478     1.0000 0.33293  0.44937  0.37017  Biso   1.000  H
  C640     1.0000 0.33283  0.23087  0.28588  Biso   1.000  C
  H479     1.0000 0.33343  0.26407  0.27457  Biso   1.000  H
  H480     1.0000 0.29183  0.20117  0.29102  Biso   1.000  H
  H481     1.0000 0.35023  0.21287  0.27227  Biso   1.000  H
  C641     1.0000 0.47372  0.36195  0.31228  Biso   1.000  C
  C642     1.0000 0.49031  0.32042  0.30990  Biso   1.000  C
  H482     1.0000 0.46672  0.28051  0.31679  Biso   1.000  H
  C643     1.0000 0.56214  0.41598  0.28995  Biso   1.000  C
  C644     1.0000 0.61386  0.46901  0.27682  Biso   1.000  C
  C645     1.0000 0.66636  0.46926  0.27040  Biso   1.000  C
  H483     1.0000 0.66932  0.43473  0.27365  Biso   1.000  H
  C646     1.0000 0.71429  0.52127  0.25912  Biso   1.000  C
  H484     1.0000 0.75100  0.52317  0.25459  Biso   1.000  H
  C647     1.0000 0.70811  0.57024  0.25460  Biso   1.000  C
  H485     1.0000 0.74056  0.60665  0.24739  Biso   1.000  H
  C648     1.0000 0.65374  0.56535  0.26075  Biso   1.000  C
  H486     1.0000 0.64935  0.59896  0.25712  Biso   1.000  H
  Ag28     1.0000 0.34351  0.16055  0.87964  Biso   1.000  Ag
  N109     1.0000 0.50180  0.57881  0.78476  Biso   1.000  N
  N110     1.0000 0.40941  0.47645  0.80931  Biso   1.000  N
  N111     1.0000 0.43249  0.25026  0.86570  Biso   1.000  N
  N112     1.0000 0.42469  0.15106  0.89511  Biso   1.000  N
  O28      1.0000 0.44784  0.41490  0.85191  Biso   1.000  O
  S55      1.0000 0.34054  0.51634  0.82306  Biso   1.000  S
  S56      1.0000 0.54305  0.31837  0.87349  Biso   1.000  S
  C649     1.0000 0.54970  0.62979  0.77716  Biso   1.000  C
  H487     1.0000 0.58250  0.62883  0.76786  Biso   1.000  H
  C650     1.0000 0.55390  0.68460  0.78226  Biso   1.000  C
  H488     1.0000 0.58950  0.72020  0.77721  Biso   1.000  H
  C651     1.0000 0.50670  0.68680  0.79454  Biso   1.000  C
  H489     1.0000 0.50840  0.72370  0.79782  Biso   1.000  H
  C652     1.0000 0.45610  0.63410  0.80215  Biso   1.000  C
  H490     1.0000 0.42210  0.63430  0.81034  Biso   1.000  H
  C653     1.0000 0.45550  0.58145  0.79771  Biso   1.000  C
  C654     1.0000 0.40601  0.52503  0.80864  Biso   1.000  C
  C655     1.0000 0.31730  0.44460  0.83041  Biso   1.000  C
  H491     1.0000 0.27990  0.41770  0.83957  Biso   1.000  H
  C656     1.0000 0.35875  0.42965  0.82157  Biso   1.000  C
  C657     1.0000 0.35427  0.37136  0.82431  Biso   1.000  C
  C658     1.0000 0.39921  0.36614  0.83903  Biso   1.000  C
  C659     1.0000 0.39722  0.31172  0.83948  Biso   1.000  C
  C660     1.0000 0.34873  0.26277  0.82505  Biso   1.000  C
  H492     1.0000 0.34735  0.22563  0.82502  Biso   1.000  H
  C661     1.0000 0.30331  0.26687  0.81099  Biso   1.000  C
  C662     1.0000 0.30670  0.32163  0.81114  Biso   1.000  C
  H493     1.0000 0.27528  0.32515  0.80188  Biso   1.000  H
  C663     1.0000 0.25260  0.21390  0.79535  Biso   1.000  C
  H494     1.0000 0.24560  0.17780  0.80650  Biso   1.000  H
  H495     1.0000 0.26230  0.21190  0.77290  Biso   1.000  H
  H496     1.0000 0.21690  0.21730  0.79650  Biso   1.000  H
  C664     1.0000 0.43530  0.43580  0.88079  Biso   1.000  C
  H497     1.0000 0.40270  0.40260  0.89210  Biso   1.000  H
  H498     1.0000 0.42400  0.46550  0.87565  Biso   1.000  H
  H499     1.0000 0.47070  0.45380  0.89440  Biso   1.000  H
  C665     1.0000 0.44511  0.30472  0.85439  Biso   1.000  C
  C666     1.0000 0.50323  0.34625  0.85677  Biso   1.000  C
  H500     1.0000 0.51955  0.38616  0.84988  Biso   1.000  H
  C667     1.0000 0.47950  0.25069  0.87672  Biso   1.000  C
  C668     1.0000 0.47819  0.19766  0.88985  Biso   1.000  C
  C669     1.0000 0.53044  0.19741  0.89627  Biso   1.000  C
  H501     1.0000 0.56793  0.23194  0.89302  Biso   1.000  H
  C670     1.0000 0.52636  0.14540  0.90755  Biso   1.000  C
  H502     1.0000 0.56117  0.14350  0.91208  Biso   1.000  H
  C671     1.0000 0.47121  0.09643  0.91207  Biso   1.000  C
  H503     1.0000 0.46725  0.06002  0.91928  Biso   1.000  H
  C672     1.0000 0.42173  0.10132  0.90592  Biso   1.000  C
  H504     1.0000 0.38373  0.06771  0.90955  Biso   1.000  H
  Ag29     1.0000 0.01018  0.49389  0.21298  Biso   1.000  Ag
  N113     1.0000 0.16847  0.91214  0.11809  Biso   1.000  N
  N114     1.0000 0.07608  0.80978  0.14264  Biso   1.000  N
  N115     1.0000 0.09916  0.58359  0.19903  Biso   1.000  N
  N116     1.0000 0.09136  0.48439  0.22844  Biso   1.000  N
  O29      1.0000 0.11451  0.74823  0.18524  Biso   1.000  O
  S57      1.0000 0.00721  0.84967  0.15639  Biso   1.000  S
  S58      1.0000 0.20972  0.65170  0.20682  Biso   1.000  S
  C673     1.0000 0.21637  0.96312  0.11049  Biso   1.000  C
  H505     1.0000 0.24917  0.96216  0.10119  Biso   1.000  H
  C674     1.0000 0.22057  0.01793  0.11559  Biso   1.000  C
  H506     1.0000 0.25617  0.05353  0.11054  Biso   1.000  H
  C675     1.0000 0.17337  0.02013  0.12787  Biso   1.000  C
  H507     1.0000 0.17507  0.05703  0.13115  Biso   1.000  H
  C676     1.0000 0.12277  0.96743  0.13548  Biso   1.000  C
  H508     1.0000 0.08877  0.96763  0.14367  Biso   1.000  H
  C677     1.0000 0.12217  0.91478  0.13104  Biso   1.000  C
  C678     1.0000 0.07268  0.85836  0.14197  Biso   1.000  C
  C679     1.0000 0.98397  0.77793  0.16374  Biso   1.000  C
  H509     1.0000 0.94657  0.75103  0.17290  Biso   1.000  H
  C680     1.0000 0.02542  0.76298  0.15490  Biso   1.000  C
  C681     1.0000 0.02094  0.70469  0.15764  Biso   1.000  C
  C682     1.0000 0.06588  0.69947  0.17236  Biso   1.000  C
  C683     1.0000 0.06389  0.64505  0.17281  Biso   1.000  C
  C684     1.0000 0.01540  0.59610  0.15838  Biso   1.000  C
  H510     1.0000 0.01402  0.55896  0.15835  Biso   1.000  H
  C685     1.0000 0.96998  0.60020  0.14432  Biso   1.000  C
  C686     1.0000 0.97337  0.65496  0.14447  Biso   1.000  C
  H511     1.0000 0.94195  0.65848  0.13521  Biso   1.000  H
  C687     1.0000 0.91927  0.54723  0.12868  Biso   1.000  C
  H512     1.0000 0.91227  0.51113  0.13983  Biso   1.000  H
  H513     1.0000 0.92897  0.54523  0.10623  Biso   1.000  H
  H514     1.0000 0.88357  0.55063  0.12983  Biso   1.000  H
  C688     1.0000 0.10197  0.76913  0.21412  Biso   1.000  C
  H515     1.0000 0.06937  0.73593  0.22543  Biso   1.000  H
  H516     1.0000 0.09067  0.79883  0.20898  Biso   1.000  H
  H517     1.0000 0.13737  0.78713  0.22773  Biso   1.000  H
  C689     1.0000 0.11178  0.63805  0.18772  Biso   1.000  C
  C690     1.0000 0.16990  0.67958  0.19010  Biso   1.000  C
  H518     1.0000 0.18622  0.71949  0.18321  Biso   1.000  H
  C691     1.0000 0.14617  0.58402  0.21005  Biso   1.000  C
  C692     1.0000 0.14486  0.53099  0.22318  Biso   1.000  C
  C693     1.0000 0.19711  0.53074  0.22960  Biso   1.000  C
  H519     1.0000 0.23460  0.56527  0.22635  Biso   1.000  H
  C694     1.0000 0.19303  0.47873  0.24088  Biso   1.000  C
  H520     1.0000 0.22784  0.47683  0.24541  Biso   1.000  H
  C695     1.0000 0.13788  0.42976  0.24540  Biso   1.000  C
  H521     1.0000 0.13392  0.39335  0.25261  Biso   1.000  H
  C696     1.0000 0.08840  0.43465  0.23925  Biso   1.000  C
  H522     1.0000 0.05040  0.40104  0.24288  Biso   1.000  H
  Ag30     1.0000 0.67685  0.82722  0.54631  Biso   1.000  Ag
  N117     1.0000 0.83513  0.24548  0.45143  Biso   1.000  N
  N118     1.0000 0.74274  0.14312  0.47598  Biso   1.000  N
  N119     1.0000 0.76582  0.91693  0.53237  Biso   1.000  N
  N120     1.0000 0.75802  0.81773  0.56178  Biso   1.000  N
  O30      1.0000 0.78117  0.08157  0.51858  Biso   1.000  O
  S59      1.0000 0.67387  0.18301  0.48973  Biso   1.000  S
  S60      1.0000 0.87638  0.98504  0.54016  Biso   1.000  S
  C697     1.0000 0.88303  0.29646  0.44383  Biso   1.000  C
  H523     1.0000 0.91583  0.29550  0.43453  Biso   1.000  H
  C698     1.0000 0.88723  0.35127  0.44893  Biso   1.000  C
  H524     1.0000 0.92283  0.38687  0.44388  Biso   1.000  H
  C699     1.0000 0.84003  0.35347  0.46121  Biso   1.000  C
  H525     1.0000 0.84173  0.39037  0.46449  Biso   1.000  H
  C700     1.0000 0.78943  0.30077  0.46882  Biso   1.000  C
  H526     1.0000 0.75543  0.30097  0.47701  Biso   1.000  H
  C701     1.0000 0.78883  0.24812  0.46438  Biso   1.000  C
  C702     1.0000 0.73934  0.19170  0.47531  Biso   1.000  C
  C703     1.0000 0.65063  0.11127  0.49708  Biso   1.000  C
  H527     1.0000 0.61323  0.08437  0.50624  Biso   1.000  H
  C704     1.0000 0.69208  0.09632  0.48824  Biso   1.000  C
  C705     1.0000 0.68760  0.03803  0.49098  Biso   1.000  C
  C706     1.0000 0.73254  0.03281  0.50570  Biso   1.000  C
  C707     1.0000 0.73055  0.97839  0.50615  Biso   1.000  C
  C708     1.0000 0.68206  0.92944  0.49172  Biso   1.000  C
  H528     1.0000 0.68068  0.89230  0.49169  Biso   1.000  H
  C709     1.0000 0.63664  0.93354  0.47766  Biso   1.000  C
  C710     1.0000 0.64003  0.98830  0.47781  Biso   1.000  C
  H529     1.0000 0.60861  0.99182  0.46855  Biso   1.000  H
  C711     1.0000 0.58593  0.88057  0.46202  Biso   1.000  C
  H530     1.0000 0.57893  0.84447  0.47317  Biso   1.000  H
  H531     1.0000 0.59563  0.87857  0.43957  Biso   1.000  H
  H532     1.0000 0.55023  0.88397  0.46317  Biso   1.000  H
  C712     1.0000 0.76863  0.10247  0.54746  Biso   1.000  C
  H533     1.0000 0.73603  0.06927  0.55877  Biso   1.000  H
  H534     1.0000 0.75733  0.13217  0.54232  Biso   1.000  H
  H535     1.0000 0.80403  0.12047  0.56107  Biso   1.000  H
  C713     1.0000 0.77844  0.97139  0.52106  Biso   1.000  C
  C714     1.0000 0.83656  0.01292  0.52344  Biso   1.000  C
  H536     1.0000 0.85288  0.05283  0.51655  Biso   1.000  H
  C715     1.0000 0.81283  0.91736  0.54339  Biso   1.000  C
  C716     1.0000 0.81152  0.86433  0.55652  Biso   1.000  C
  C717     1.0000 0.86377  0.86408  0.56294  Biso   1.000  C
  H537     1.0000 0.90126  0.89861  0.55969  Biso   1.000  H
  C718     1.0000 0.85969  0.81207  0.57422  Biso   1.000  C
  H538     1.0000 0.89450  0.81017  0.57875  Biso   1.000  H
  C719     1.0000 0.80454  0.76310  0.57874  Biso   1.000  C
  H539     1.0000 0.80058  0.72669  0.58595  Biso   1.000  H
  C720     1.0000 0.75506  0.76799  0.57259  Biso   1.000  C
  H540     1.0000 0.71706  0.73438  0.57622  Biso   1.000  H
  Ag31     1.0000 0.81704  0.65649  0.87964  Biso   1.000  Ag
  N121     1.0000 0.07701  0.49820  0.78476  Biso   1.000  N
  N122     1.0000 0.06704  0.59059  0.80931  Biso   1.000  N
  N123     1.0000 0.81777  0.56751  0.86570  Biso   1.000  N
  N124     1.0000 0.72637  0.57531  0.89511  Biso   1.000  N
  O31      1.0000 0.96706  0.55216  0.85191  Biso   1.000  O
  S61      1.0000 0.17580  0.65946  0.82306  Biso   1.000  S
  S62      1.0000 0.77532  0.45695  0.87349  Biso   1.000  S
  C721     1.0000 0.08009  0.45030  0.77716  Biso   1.000  C
  H541     1.0000 0.04633  0.41750  0.76786  Biso   1.000  H
  C722     1.0000 0.13070  0.44610  0.78226  Biso   1.000  C
  H542     1.0000 0.13070  0.41050  0.77721  Biso   1.000  H
  C723     1.0000 0.18010  0.49330  0.79454  Biso   1.000  C
  H543     1.0000 0.21530  0.49160  0.79782  Biso   1.000  H
  C724     1.0000 0.17800  0.54390  0.80215  Biso   1.000  C
  H544     1.0000 0.21220  0.57790  0.81034  Biso   1.000  H
  C725     1.0000 0.12595  0.54450  0.79771  Biso   1.000  C
  C726     1.0000 0.11902  0.59399  0.80864  Biso   1.000  C
  C727     1.0000 0.12730  0.68270  0.83041  Biso   1.000  C
  H545     1.0000 0.13780  0.72010  0.83957  Biso   1.000  H
  C728     1.0000 0.07090  0.64125  0.82157  Biso   1.000  C
  C729     1.0000 0.01709  0.64573  0.82431  Biso   1.000  C
  C730     1.0000 0.96693  0.60079  0.83903  Biso   1.000  C
  C731     1.0000 0.91450  0.60278  0.83948  Biso   1.000  C
  C732     1.0000 0.91404  0.65127  0.82505  Biso   1.000  C
  H546     1.0000 0.87828  0.65265  0.82502  Biso   1.000  H
  C733     1.0000 0.96356  0.69669  0.81099  Biso   1.000  C
  C734     1.0000 0.01493  0.69330  0.81114  Biso   1.000  C
  H547     1.0000 0.04987  0.72472  0.80188  Biso   1.000  H
  C735     1.0000 0.96130  0.74740  0.79535  Biso   1.000  C
  H548     1.0000 0.93220  0.75440  0.80650  Biso   1.000  H
  H549     1.0000 0.94960  0.73770  0.77290  Biso   1.000  H
  H550     1.0000 0.00040  0.78310  0.79650  Biso   1.000  H
  C736     1.0000 0.00050  0.56470  0.88079  Biso   1.000  C
  H551     1.0000 0.99990  0.59730  0.89210  Biso   1.000  H
  H552     1.0000 0.04150  0.57600  0.87565  Biso   1.000  H
  H553     1.0000 0.98310  0.52930  0.89440  Biso   1.000  H
  C737     1.0000 0.85961  0.55489  0.85439  Biso   1.000  C
  C738     1.0000 0.84302  0.49677  0.85677  Biso   1.000  C
  H554     1.0000 0.86661  0.48045  0.84988  Biso   1.000  H
  C739     1.0000 0.77119  0.52050  0.87672  Biso   1.000  C
  C740     1.0000 0.71947  0.52181  0.88985  Biso   1.000  C
  C741     1.0000 0.66697  0.46956  0.89627  Biso   1.000  C
  H555     1.0000 0.66401  0.43207  0.89302  Biso   1.000  H
  C742     1.0000 0.61904  0.47364  0.90755  Biso   1.000  C
  H556     1.0000 0.58233  0.43883  0.91208  Biso   1.000  H
  C743     1.0000 0.62522  0.52879  0.91207  Biso   1.000  C
  H557     1.0000 0.59277  0.53275  0.91928  Biso   1.000  H
  C744     1.0000 0.67959  0.57827  0.90592  Biso   1.000  C
  H558     1.0000 0.68398  0.61627  0.90955  Biso   1.000  H
  Ag32     1.0000 0.48371  0.98982  0.21298  Biso   1.000  Ag
  N125     1.0000 0.74368  0.83153  0.11809  Biso   1.000  N
  N126     1.0000 0.73371  0.92392  0.14264  Biso   1.000  N
  N127     1.0000 0.48444  0.90084  0.19903  Biso   1.000  N
  N128     1.0000 0.39304  0.90864  0.22844  Biso   1.000  N
  O32      1.0000 0.63373  0.88549  0.18524  Biso   1.000  O
  S63      1.0000 0.84247  0.99279  0.15639  Biso   1.000  S
  S64      1.0000 0.44199  0.79028  0.20682  Biso   1.000  S
  C745     1.0000 0.74676  0.78363  0.11049  Biso   1.000  C
  H559     1.0000 0.71300  0.75083  0.10119  Biso   1.000  H
  C746     1.0000 0.79737  0.77943  0.11559  Biso   1.000  C
  H560     1.0000 0.79737  0.74383  0.11054  Biso   1.000  H
  C747     1.0000 0.84677  0.82663  0.12787  Biso   1.000  C
  H561     1.0000 0.88197  0.82493  0.13115  Biso   1.000  H
  C748     1.0000 0.84467  0.87723  0.13548  Biso   1.000  C
  H562     1.0000 0.87887  0.91123  0.14367  Biso   1.000  H
  C749     1.0000 0.79262  0.87783  0.13104  Biso   1.000  C
  C750     1.0000 0.78569  0.92732  0.14197  Biso   1.000  C
  C751     1.0000 0.79397  0.01603  0.16374  Biso   1.000  C
  H563     1.0000 0.80447  0.05343  0.17290  Biso   1.000  H
  C752     1.0000 0.73757  0.97458  0.15490  Biso   1.000  C
  C753     1.0000 0.68376  0.97906  0.15764  Biso   1.000  C
  C754     1.0000 0.63360  0.93412  0.17236  Biso   1.000  C
  C755     1.0000 0.58117  0.93611  0.17281  Biso   1.000  C
  C756     1.0000 0.58071  0.98460  0.15838  Biso   1.000  C
  H564     1.0000 0.54495  0.98598  0.15835  Biso   1.000  H
  C757     1.0000 0.63023  0.03002  0.14432  Biso   1.000  C
  C758     1.0000 0.68160  0.02663  0.14447  Biso   1.000  C
  H565     1.0000 0.71654  0.05805  0.13521  Biso   1.000  H
  C759     1.0000 0.62797  0.08073  0.12868  Biso   1.000  C
  H566     1.0000 0.59887  0.08773  0.13983  Biso   1.000  H
  H567     1.0000 0.61627  0.07103  0.10623  Biso   1.000  H
  H568     1.0000 0.66707  0.11643  0.12983  Biso   1.000  H
  C760     1.0000 0.66717  0.89803  0.21412  Biso   1.000  C
  H569     1.0000 0.66657  0.93063  0.22543  Biso   1.000  H
  H570     1.0000 0.70817  0.90933  0.20898  Biso   1.000  H
  H571     1.0000 0.64977  0.86263  0.22773  Biso   1.000  H
  C761     1.0000 0.52628  0.88822  0.18772  Biso   1.000  C
  C762     1.0000 0.50969  0.83010  0.19010  Biso   1.000  C
  H572     1.0000 0.53328  0.81378  0.18321  Biso   1.000  H
  C763     1.0000 0.43786  0.85383  0.21005  Biso   1.000  C
  C764     1.0000 0.38614  0.85514  0.22318  Biso   1.000  C
  C765     1.0000 0.33364  0.80289  0.22960  Biso   1.000  C
  H573     1.0000 0.33068  0.76540  0.22635  Biso   1.000  H
  C766     1.0000 0.28571  0.80697  0.24088  Biso   1.000  C
  H574     1.0000 0.24900  0.77216  0.24541  Biso   1.000  H
  C767     1.0000 0.29189  0.86212  0.24540  Biso   1.000  C
  H575     1.0000 0.25944  0.86608  0.25261  Biso   1.000  H
  C768     1.0000 0.34626  0.91160  0.23925  Biso   1.000  C
  H576     1.0000 0.35065  0.94960  0.24288  Biso   1.000  H
  Ag33     1.0000 0.15037  0.32315  0.54631  Biso   1.000  Ag
  N129     1.0000 0.41034  0.16487  0.45143  Biso   1.000  N
  N130     1.0000 0.40037  0.25726  0.47598  Biso   1.000  N
  N131     1.0000 0.15110  0.23418  0.53237  Biso   1.000  N
  N132     1.0000 0.05970  0.24198  0.56178  Biso   1.000  N
  O33      1.0000 0.30039  0.21883  0.51858  Biso   1.000  O
  S65      1.0000 0.50913  0.32613  0.48973  Biso   1.000  S
  S66      1.0000 0.10865  0.12362  0.54016  Biso   1.000  S
  C769     1.0000 0.41342  0.11697  0.44383  Biso   1.000  C
  H577     1.0000 0.37966  0.08417  0.43453  Biso   1.000  H
  C770     1.0000 0.46403  0.11277  0.44893  Biso   1.000  C
  H578     1.0000 0.46403  0.07717  0.44388  Biso   1.000  H
  C771     1.0000 0.51343  0.15997  0.46121  Biso   1.000  C
  H579     1.0000 0.54863  0.15827  0.46449  Biso   1.000  H
  C772     1.0000 0.51133  0.21057  0.46882  Biso   1.000  C
  H580     1.0000 0.54553  0.24457  0.47701  Biso   1.000  H
  C773     1.0000 0.45928  0.21117  0.46438  Biso   1.000  C
  C774     1.0000 0.45235  0.26066  0.47531  Biso   1.000  C
  C775     1.0000 0.46063  0.34937  0.49708  Biso   1.000  C
  H581     1.0000 0.47113  0.38677  0.50624  Biso   1.000  H
  C776     1.0000 0.40423  0.30792  0.48824  Biso   1.000  C
  C777     1.0000 0.35042  0.31240  0.49098  Biso   1.000  C
  C778     1.0000 0.30026  0.26746  0.50570  Biso   1.000  C
  C779     1.0000 0.24783  0.26945  0.50615  Biso   1.000  C
  C780     1.0000 0.24737  0.31794  0.49172  Biso   1.000  C
  H582     1.0000 0.21161  0.31932  0.49169  Biso   1.000  H
  C781     1.0000 0.29689  0.36336  0.47766  Biso   1.000  C
  C782     1.0000 0.34826  0.35997  0.47781  Biso   1.000  C
  H583     1.0000 0.38320  0.39139  0.46855  Biso   1.000  H
  C783     1.0000 0.29463  0.41407  0.46202  Biso   1.000  C
  H584     1.0000 0.26553  0.42107  0.47317  Biso   1.000  H
  H585     1.0000 0.28293  0.40437  0.43957  Biso   1.000  H
  H586     1.0000 0.33373  0.44977  0.46317  Biso   1.000  H
  C784     1.0000 0.33383  0.23137  0.54746  Biso   1.000  C
  H587     1.0000 0.33323  0.26397  0.55877  Biso   1.000  H
  H588     1.0000 0.37483  0.24267  0.54232  Biso   1.000  H
  H589     1.0000 0.31643  0.19597  0.56107  Biso   1.000  H
  C785     1.0000 0.19294  0.22156  0.52106  Biso   1.000  C
  C786     1.0000 0.17635  0.16344  0.52344  Biso   1.000  C
  H590     1.0000 0.19994  0.14712  0.51655  Biso   1.000  H
  C787     1.0000 0.10452  0.18717  0.54339  Biso   1.000  C
  C788     1.0000 0.05280  0.18848  0.55652  Biso   1.000  C
  C789     1.0000 0.00030  0.13623  0.56294  Biso   1.000  C
  H591     1.0000 0.99734  0.09874  0.55969  Biso   1.000  H
  C790     1.0000 0.95237  0.14031  0.57422  Biso   1.000  C
  H592     1.0000 0.91566  0.10550  0.57875  Biso   1.000  H
  C791     1.0000 0.95855  0.19546  0.57874  Biso   1.000  C
  H593     1.0000 0.92610  0.19942  0.58595  Biso   1.000  H
  C792     1.0000 0.01292  0.24494  0.57259  Biso   1.000  C
  H594     1.0000 0.01731  0.28294  0.57622  Biso   1.000  H
  Ag34     1.0000 0.83945  0.18296  0.87964  Biso   1.000  Ag
  N133     1.0000 0.42119  0.92299  0.78476  Biso   1.000  N
  N134     1.0000 0.52355  0.93296  0.80931  Biso   1.000  N
  N135     1.0000 0.74974  0.18223  0.86570  Biso   1.000  N
  N136     1.0000 0.84894  0.27363  0.89511  Biso   1.000  N
  O34      1.0000 0.58510  0.03294  0.85191  Biso   1.000  O
  S67      1.0000 0.48366  0.82420  0.82306  Biso   1.000  S
  S68      1.0000 0.68163  0.22468  0.87349  Biso   1.000  S
  C793     1.0000 0.37021  0.91991  0.77716  Biso   1.000  C
  H595     1.0000 0.37117  0.95367  0.76786  Biso   1.000  H
  C794     1.0000 0.31540  0.86930  0.78226  Biso   1.000  C
  H596     1.0000 0.27980  0.86930  0.77721  Biso   1.000  H
  C795     1.0000 0.31320  0.81990  0.79454  Biso   1.000  C
  H597     1.0000 0.27630  0.78470  0.79782  Biso   1.000  H
  C796     1.0000 0.36590  0.82200  0.80215  Biso   1.000  C
  H598     1.0000 0.36570  0.78780  0.81034  Biso   1.000  H
  C797     1.0000 0.41855  0.87405  0.79771  Biso   1.000  C
  C798     1.0000 0.47497  0.88098  0.80864  Biso   1.000  C
  C799     1.0000 0.55540  0.87270  0.83041  Biso   1.000  C
  H599     1.0000 0.58230  0.86220  0.83957  Biso   1.000  H
  C800     1.0000 0.57035  0.92910  0.82157  Biso   1.000  C
  C801     1.0000 0.62864  0.98291  0.82431  Biso   1.000  C
  C802     1.0000 0.63386  0.03307  0.83903  Biso   1.000  C
  C803     1.0000 0.68828  0.08550  0.83948  Biso   1.000  C
  C804     1.0000 0.73723  0.08596  0.82505  Biso   1.000  C
  H600     1.0000 0.77437  0.12172  0.82502  Biso   1.000  H
  C805     1.0000 0.73313  0.03644  0.81099  Biso   1.000  C
  C806     1.0000 0.67837  0.98507  0.81114  Biso   1.000  C
  H601     1.0000 0.67485  0.95013  0.80188  Biso   1.000  H
  C807     1.0000 0.78610  0.03870  0.79535  Biso   1.000  C
  H602     1.0000 0.82220  0.06780  0.80650  Biso   1.000  H
  H603     1.0000 0.78810  0.05040  0.77290  Biso   1.000  H
  H604     1.0000 0.78270  0.99960  0.79650  Biso   1.000  H
  C808     1.0000 0.56420  0.99950  0.88079  Biso   1.000  C
  H605     1.0000 0.59740  0.00010  0.89210  Biso   1.000  H
  H606     1.0000 0.53450  0.95850  0.87565  Biso   1.000  H
  H607     1.0000 0.54620  0.01690  0.89440  Biso   1.000  H
  C809     1.0000 0.69528  0.14039  0.85439  Biso   1.000  C
  C810     1.0000 0.65375  0.15698  0.85677  Biso   1.000  C
  H608     1.0000 0.61384  0.13339  0.84988  Biso   1.000  H
  C811     1.0000 0.74931  0.22881  0.87672  Biso   1.000  C
  C812     1.0000 0.80234  0.28053  0.88985  Biso   1.000  C
  C813     1.0000 0.80259  0.33303  0.89627  Biso   1.000  C
  H609     1.0000 0.76806  0.33599  0.89302  Biso   1.000  H
  C814     1.0000 0.85460  0.38096  0.90755  Biso   1.000  C
  H610     1.0000 0.85650  0.41767  0.91208  Biso   1.000  H
  C815     1.0000 0.90357  0.37478  0.91207  Biso   1.000  C
  H611     1.0000 0.93998  0.40723  0.91928  Biso   1.000  H
  C816     1.0000 0.89868  0.32041  0.90592  Biso   1.000  C
  H612     1.0000 0.93229  0.31602  0.90955  Biso   1.000  H
  Ag35     1.0000 0.50611  0.51629  0.21298  Biso   1.000  Ag
  N137     1.0000 0.08786  0.25632  0.11809  Biso   1.000  N
  N138     1.0000 0.19022  0.26629  0.14264  Biso   1.000  N
  N139     1.0000 0.41641  0.51556  0.19903  Biso   1.000  N
  N140     1.0000 0.51561  0.60696  0.22844  Biso   1.000  N
  O35      1.0000 0.25177  0.36627  0.18524  Biso   1.000  O
  S69      1.0000 0.15033  0.15753  0.15639  Biso   1.000  S
  S70      1.0000 0.34830  0.55801  0.20682  Biso   1.000  S
  C817     1.0000 0.03688  0.25324  0.11049  Biso   1.000  C
  H613     1.0000 0.03784  0.28700  0.10119  Biso   1.000  H
  C818     1.0000 0.98207  0.20263  0.11559  Biso   1.000  C
  H614     1.0000 0.94647  0.20263  0.11054  Biso   1.000  H
  C819     1.0000 0.97987  0.15323  0.12787  Biso   1.000  C
  H615     1.0000 0.94297  0.11803  0.13115  Biso   1.000  H
  C820     1.0000 0.03257  0.15533  0.13548  Biso   1.000  C
  H616     1.0000 0.03237  0.12113  0.14367  Biso   1.000  H
  C821     1.0000 0.08522  0.20738  0.13104  Biso   1.000  C
  C822     1.0000 0.14164  0.21431  0.14197  Biso   1.000  C
  C823     1.0000 0.22207  0.20603  0.16374  Biso   1.000  C
  H617     1.0000 0.24897  0.19553  0.17290  Biso   1.000  H
  C824     1.0000 0.23702  0.26243  0.15490  Biso   1.000  C
  C825     1.0000 0.29531  0.31624  0.15764  Biso   1.000  C
  C826     1.0000 0.30053  0.36640  0.17236  Biso   1.000  C
  C827     1.0000 0.35495  0.41883  0.17281  Biso   1.000  C
  C828     1.0000 0.40390  0.41929  0.15838  Biso   1.000  C
  H618     1.0000 0.44104  0.45505  0.15835  Biso   1.000  H
  C829     1.0000 0.39980  0.36977  0.14432  Biso   1.000  C
  C830     1.0000 0.34504  0.31840  0.14447  Biso   1.000  C
  H619     1.0000 0.34152  0.28346  0.13521  Biso   1.000  H
  C831     1.0000 0.45277  0.37203  0.12868  Biso   1.000  C
  H620     1.0000 0.48887  0.40113  0.13983  Biso   1.000  H
  H621     1.0000 0.45477  0.38373  0.10623  Biso   1.000  H
  H622     1.0000 0.44937  0.33293  0.12983  Biso   1.000  H
  C832     1.0000 0.23087  0.33283  0.21412  Biso   1.000  C
  H623     1.0000 0.26407  0.33343  0.22543  Biso   1.000  H
  H624     1.0000 0.20117  0.29183  0.20898  Biso   1.000  H
  H625     1.0000 0.21287  0.35023  0.22773  Biso   1.000  H
  C833     1.0000 0.36195  0.47372  0.18772  Biso   1.000  C
  C834     1.0000 0.32042  0.49031  0.19010  Biso   1.000  C
  H626     1.0000 0.28051  0.46672  0.18321  Biso   1.000  H
  C835     1.0000 0.41598  0.56214  0.21005  Biso   1.000  C
  C836     1.0000 0.46901  0.61386  0.22318  Biso   1.000  C
  C837     1.0000 0.46926  0.66636  0.22960  Biso   1.000  C
  H627     1.0000 0.43473  0.66932  0.22635  Biso   1.000  H
  C838     1.0000 0.52127  0.71429  0.24088  Biso   1.000  C
  H628     1.0000 0.52317  0.75100  0.24541  Biso   1.000  H
  C839     1.0000 0.57024  0.70811  0.24540  Biso   1.000  C
  H629     1.0000 0.60665  0.74056  0.25261  Biso   1.000  H
  C840     1.0000 0.56535  0.65374  0.23925  Biso   1.000  C
  H630     1.0000 0.59896  0.64935  0.24288  Biso   1.000  H
  Ag36     1.0000 0.17278  0.84963  0.54631  Biso   1.000  Ag
  N141     1.0000 0.75452  0.58966  0.45143  Biso   1.000  N
  N142     1.0000 0.85688  0.59963  0.47598  Biso   1.000  N
  N143     1.0000 0.08307  0.84890  0.53237  Biso   1.000  N
  N144     1.0000 0.18227  0.94030  0.56178  Biso   1.000  N
  O36      1.0000 0.91843  0.69961  0.51858  Biso   1.000  O
  S71      1.0000 0.81699  0.49087  0.48973  Biso   1.000  S
  S72      1.0000 0.01496  0.89135  0.54016  Biso   1.000  S
  C841     1.0000 0.70354  0.58658  0.44383  Biso   1.000  C
  H631     1.0000 0.70450  0.62034  0.43453  Biso   1.000  H
  C842     1.0000 0.64873  0.53597  0.44893  Biso   1.000  C
  H632     1.0000 0.61313  0.53597  0.44388  Biso   1.000  H
  C843     1.0000 0.64653  0.48657  0.46121  Biso   1.000  C
  H633     1.0000 0.60963  0.45137  0.46449  Biso   1.000  H
  C844     1.0000 0.69923  0.48867  0.46882  Biso   1.000  C
  H634     1.0000 0.69903  0.45447  0.47701  Biso   1.000  H
  C845     1.0000 0.75188  0.54072  0.46438  Biso   1.000  C
  C846     1.0000 0.80830  0.54765  0.47531  Biso   1.000  C
  C847     1.0000 0.88873  0.53937  0.49708  Biso   1.000  C
  H635     1.0000 0.91563  0.52887  0.50624  Biso   1.000  H
  C848     1.0000 0.90368  0.59577  0.48824  Biso   1.000  C
  C849     1.0000 0.96197  0.64958  0.49098  Biso   1.000  C
  C850     1.0000 0.96719  0.69974  0.50570  Biso   1.000  C
  C851     1.0000 0.02161  0.75217  0.50615  Biso   1.000  C
  C852     1.0000 0.07056  0.75263  0.49172  Biso   1.000  C
  H636     1.0000 0.10770  0.78839  0.49169  Biso   1.000  H
  C853     1.0000 0.06646  0.70311  0.47766  Biso   1.000  C
  C854     1.0000 0.01170  0.65174  0.47781  Biso   1.000  C
  H637     1.0000 0.00818  0.61680  0.46855  Biso   1.000  H
  C855     1.0000 0.11943  0.70537  0.46202  Biso   1.000  C
  H638     1.0000 0.15553  0.73447  0.47317  Biso   1.000  H
  H639     1.0000 0.12143  0.71707  0.43957  Biso   1.000  H
  H640     1.0000 0.11603  0.66627  0.46317  Biso   1.000  H
  C856     1.0000 0.89753  0.66617  0.54746  Biso   1.000  C
  H641     1.0000 0.93073  0.66677  0.55877  Biso   1.000  H
  H642     1.0000 0.86783  0.62517  0.54232  Biso   1.000  H
  H643     1.0000 0.87953  0.68357  0.56107  Biso   1.000  H
  C857     1.0000 0.02861  0.80706  0.52106  Biso   1.000  C
  C858     1.0000 0.98708  0.82365  0.52344  Biso   1.000  C
  H644     1.0000 0.94717  0.80006  0.51655  Biso   1.000  H
  C859     1.0000 0.08264  0.89548  0.54339  Biso   1.000  C
  C860     1.0000 0.13567  0.94720  0.55652  Biso   1.000  C
  C861     1.0000 0.13592  0.99970  0.56294  Biso   1.000  C
  H645     1.0000 0.10139  0.00266  0.55969  Biso   1.000  H
  C862     1.0000 0.18793  0.04763  0.57422  Biso   1.000  C
  H646     1.0000 0.18983  0.08434  0.57875  Biso   1.000  H
  C863     1.0000 0.23690  0.04145  0.57874  Biso   1.000  C
  H647     1.0000 0.27331  0.07390  0.58595  Biso   1.000  H
  C864     1.0000 0.23201  0.98708  0.57259  Biso   1.000  C
  H648     1.0000 0.26562  0.98269  0.57622  Biso   1.000  H
