data_image0
_cell_length_a       25.377
_cell_length_b       29.788
_cell_length_c       38.22
_cell_angle_alpha    90
_cell_angle_beta     99.005
_cell_angle_gamma    90

_symmetry_space_group_name_H-M    P 1
_symmetry_int_tables_number       1

loop_
  _symmetry_equiv_pos_as_xyz
  'x, y, z'

loop_
  _atom_site_label
  _atom_site_occupancy
  _atom_site_fract_x
  _atom_site_fract_y
  _atom_site_fract_z
  _atom_site_thermal_displace_type
  _atom_site_B_iso_or_equiv
  _atom_site_type_symbol
  Zn1      1.0000 0.24332  0.55487  0.54995  Biso   1.000  Zn
  Zn2      1.0000 0.25949  0.60724  0.47881  Biso   1.000  Zn
  Zn3      1.0000 0.08935  0.39761  0.15875  Biso   1.000  Zn
  Zn4      1.0000 0.98048  0.45941  0.15992  Biso   1.000  Zn
  Zn5      1.0000 0.35095  0.60647  0.55305  Biso   1.000  Zn
  Zn6      1.0000 0.24041  0.65520  0.54879  Biso   1.000  Zn
  Zn7      1.0000 0.53040  0.85065  0.85958  Biso   1.000  Zn
  Zn8      1.0000 0.47443  0.36670  0.83250  Biso   1.000  Zn
  Zn9      1.0000 0.52850  0.59281  0.08324  Biso   1.000  Zn
  Zn10     1.0000 0.25668  0.05487  0.45005  Biso   1.000  Zn
  Zn11     1.0000 0.24051  0.10724  0.52119  Biso   1.000  Zn
  Zn12     1.0000 0.41065  0.89761  0.84125  Biso   1.000  Zn
  Zn13     1.0000 0.51952  0.95941  0.84008  Biso   1.000  Zn
  Zn14     1.0000 0.14905  0.10647  0.44695  Biso   1.000  Zn
  Zn15     1.0000 0.25959  0.15520  0.45121  Biso   1.000  Zn
  Zn16     1.0000 0.96960  0.35065  0.14042  Biso   1.000  Zn
  Zn17     1.0000 0.02557  0.86670  0.16750  Biso   1.000  Zn
  Zn18     1.0000 0.97150  0.09281  0.91676  Biso   1.000  Zn
  Zn19     1.0000 0.75668  0.44513  0.45005  Biso   1.000  Zn
  Zn20     1.0000 0.74051  0.39276  0.52119  Biso   1.000  Zn
  Zn21     1.0000 0.91065  0.60239  0.84125  Biso   1.000  Zn
  Zn22     1.0000 0.01952  0.54059  0.84008  Biso   1.000  Zn
  Zn23     1.0000 0.64905  0.39353  0.44695  Biso   1.000  Zn
  Zn24     1.0000 0.75959  0.34480  0.45121  Biso   1.000  Zn
  Zn25     1.0000 0.46960  0.14935  0.14042  Biso   1.000  Zn
  Zn26     1.0000 0.52557  0.63330  0.16750  Biso   1.000  Zn
  Zn27     1.0000 0.47150  0.40719  0.91676  Biso   1.000  Zn
  Zn28     1.0000 0.74332  0.94513  0.54995  Biso   1.000  Zn
  Zn29     1.0000 0.75949  0.89276  0.47881  Biso   1.000  Zn
  Zn30     1.0000 0.58935  0.10239  0.15875  Biso   1.000  Zn
  Zn31     1.0000 0.48048  0.04059  0.15992  Biso   1.000  Zn
  Zn32     1.0000 0.85095  0.89353  0.55305  Biso   1.000  Zn
  Zn33     1.0000 0.74041  0.84480  0.54879  Biso   1.000  Zn
  Zn34     1.0000 0.03040  0.64935  0.85958  Biso   1.000  Zn
  Zn35     1.0000 0.97443  0.13330  0.83250  Biso   1.000  Zn
  Zn36     1.0000 0.02850  0.90719  0.08324  Biso   1.000  Zn
  Si1      1.0000 0.06527  0.38581  0.38258  Biso   1.000  Si
  Si2      1.0000 0.32819  0.62292  0.78054  Biso   1.000  Si
  Si3      1.0000 0.19108  0.65479  0.07810  Biso   1.000  Si
  Si4      1.0000 0.45254  0.32624  0.60698  Biso   1.000  Si
  Si5      1.0000 0.43473  0.88581  0.61742  Biso   1.000  Si
  Si6      1.0000 0.17181  0.12292  0.21946  Biso   1.000  Si
  Si7      1.0000 0.30892  0.15479  0.92190  Biso   1.000  Si
  Si8      1.0000 0.04746  0.82624  0.39302  Biso   1.000  Si
  Si9      1.0000 0.93473  0.61419  0.61742  Biso   1.000  Si
  Si10     1.0000 0.67181  0.37708  0.21946  Biso   1.000  Si
  Si11     1.0000 0.80892  0.34521  0.92190  Biso   1.000  Si
  Si12     1.0000 0.54746  0.67376  0.39302  Biso   1.000  Si
  Si13     1.0000 0.56527  0.11419  0.38258  Biso   1.000  Si
  Si14     1.0000 0.82819  0.87708  0.78054  Biso   1.000  Si
  Si15     1.0000 0.69108  0.84521  0.07810  Biso   1.000  Si
  Si16     1.0000 0.95254  0.17376  0.60698  Biso   1.000  Si
  H1       1.0000 0.99420  0.64050  0.90700  Biso   1.000  H
  H2       1.0000 0.74560  0.36540  0.58730  Biso   1.000  H
  H3       1.0000 0.18180  0.51750  0.40200  Biso   1.000  H
  H4       1.0000 0.12780  0.46510  0.36770  Biso   1.000  H
  H5       1.0000 0.10410  0.39960  0.45690  Biso   1.000  H
  H6       1.0000 0.15820  0.45210  0.49120  Biso   1.000  H
  H7       1.0000 0.92420  0.45230  0.43910  Biso   1.000  H
  H8       1.0000 0.00900  0.44860  0.42260  Biso   1.000  H
  H9       1.0000 0.96760  0.33330  0.36900  Biso   1.000  H
  H10      1.0000 0.88270  0.33710  0.38550  Biso   1.000  H
  H11      1.0000 0.07030  0.23390  0.43260  Biso   1.000  H
  H12      1.0000 0.03020  0.30240  0.41410  Biso   1.000  H
  H13      1.0000 0.16630  0.34230  0.38010  Biso   1.000  H
  H14      1.0000 0.20640  0.27380  0.39860  Biso   1.000  H
  H15      1.0000 0.11490  0.37420  0.26390  Biso   1.000  H
  H16      1.0000 0.12210  0.35620  0.32410  Biso   1.000  H
  H17      1.0000 0.00120  0.44200  0.33360  Biso   1.000  H
  H18      1.0000 0.99400  0.46000  0.27340  Biso   1.000  H
  H19      1.0000 0.18310  0.54780  0.82930  Biso   1.000  H
  H20      1.0000 0.26700  0.55330  0.81150  Biso   1.000  H
  H21      1.0000 0.23480  0.68180  0.78060  Biso   1.000  H
  H22      1.0000 0.15090  0.67630  0.79840  Biso   1.000  H
  H23      1.0000 0.38640  0.63680  0.66520  Biso   1.000  H
  H24      1.0000 0.39180  0.64760  0.72630  Biso   1.000  H
  H25      1.0000 0.24890  0.58570  0.72360  Biso   1.000  H
  H26      1.0000 0.24360  0.57480  0.66250  Biso   1.000  H
  H27      1.0000 0.35080  0.78520  0.79250  Biso   1.000  H
  H28      1.0000 0.30570  0.71870  0.77420  Biso   1.000  H
  H29      1.0000 0.43340  0.64650  0.82010  Biso   1.000  H
  H30      1.0000 0.47840  0.71300  0.83850  Biso   1.000  H
  H31      1.0000 0.42360  0.48270  0.78440  Biso   1.000  H
  H32      1.0000 0.37980  0.54580  0.75750  Biso   1.000  H
  H33      1.0000 0.36440  0.59550  0.85410  Biso   1.000  H
  H34      1.0000 0.40830  0.53240  0.88100  Biso   1.000  H
  H35      1.0000 0.18060  0.50270  0.12070  Biso   1.000  H
  H36      1.0000 0.22210  0.56510  0.09960  Biso   1.000  H
  H37      1.0000 0.09510  0.64230  0.11260  Biso   1.000  H
  H38      1.0000 0.05360  0.57990  0.13370  Biso   1.000  H
  H39      1.0000 0.36410  0.60290  0.05670  Biso   1.000  H
  H40      1.0000 0.27160  0.61260  0.04450  Biso   1.000  H
  H41      1.0000 0.27690  0.68740  0.13350  Biso   1.000  H
  H42      1.0000 0.36940  0.67770  0.14570  Biso   1.000  H
  H43      1.0000 0.13510  0.76320  0.16090  Biso   1.000  H
  H44      1.0000 0.17560  0.69690  0.14580  Biso   1.000  H
  H45      1.0000 0.14890  0.73340  0.04240  Biso   1.000  H
  H46      1.0000 0.10840  0.79970  0.05750  Biso   1.000  H
  H47      1.0000 0.04380  0.62320  0.98980  Biso   1.000  H
  H48      1.0000 0.09560  0.62180  0.04610  Biso   1.000  H
  H49      1.0000 0.21970  0.67600  0.00560  Biso   1.000  H
  H50      1.0000 0.16780  0.67730  0.94930  Biso   1.000  H
  H51      1.0000 0.43900  0.48420  0.57140  Biso   1.000  H
  H52      1.0000 0.48380  0.41690  0.58760  Biso   1.000  H
  H53      1.0000 0.34250  0.35600  0.59290  Biso   1.000  H
  H54      1.0000 0.29770  0.42330  0.57680  Biso   1.000  H
  H55      1.0000 0.44050  0.38480  0.72380  Biso   1.000  H
  H56      1.0000 0.42960  0.38580  0.66190  Biso   1.000  H
  H57      1.0000 0.48990  0.25980  0.66220  Biso   1.000  H
  H58      1.0000 0.50080  0.25880  0.72420  Biso   1.000  H
  H59      1.0000 0.35810  0.18250  0.58980  Biso   1.000  H
  H60      1.0000 0.40990  0.23700  0.62320  Biso   1.000  H
  H61      1.0000 0.40360  0.31490  0.53560  Biso   1.000  H
  H62      1.0000 0.35180  0.26030  0.50220  Biso   1.000  H
  H63      1.0000 0.58180  0.35240  0.52480  Biso   1.000  H
  H64      1.0000 0.49780  0.33310  0.53820  Biso   1.000  H
  H65      1.0000 0.55850  0.33140  0.64280  Biso   1.000  H
  H66      1.0000 0.64250  0.35070  0.62940  Biso   1.000  H
  H67      1.0000 0.50580  0.14050  0.09300  Biso   1.000  H
  H68      1.0000 0.75440  0.86540  0.41270  Biso   1.000  H
  H69      1.0000 0.31820  0.01750  0.59800  Biso   1.000  H
  H70      1.0000 0.37220  0.96510  0.63230  Biso   1.000  H
  H71      1.0000 0.39590  0.89960  0.54310  Biso   1.000  H
  H72      1.0000 0.34180  0.95210  0.50880  Biso   1.000  H
  H73      1.0000 0.57580  0.95230  0.56090  Biso   1.000  H
  H74      1.0000 0.49100  0.94860  0.57740  Biso   1.000  H
  H75      1.0000 0.53240  0.83330  0.63100  Biso   1.000  H
  H76      1.0000 0.61730  0.83710  0.61450  Biso   1.000  H
  H77      1.0000 0.42970  0.73390  0.56740  Biso   1.000  H
  H78      1.0000 0.46980  0.80240  0.58590  Biso   1.000  H
  H79      1.0000 0.33370  0.84230  0.61990  Biso   1.000  H
  H80      1.0000 0.29360  0.77380  0.60140  Biso   1.000  H
  H81      1.0000 0.38510  0.87420  0.73610  Biso   1.000  H
  H82      1.0000 0.37790  0.85620  0.67590  Biso   1.000  H
  H83      1.0000 0.49880  0.94200  0.66640  Biso   1.000  H
  H84      1.0000 0.50600  0.96000  0.72660  Biso   1.000  H
  H85      1.0000 0.31690  0.04780  0.17070  Biso   1.000  H
  H86      1.0000 0.23300  0.05330  0.18850  Biso   1.000  H
  H87      1.0000 0.26520  0.18180  0.21940  Biso   1.000  H
  H88      1.0000 0.34910  0.17630  0.20160  Biso   1.000  H
  H89      1.0000 0.11360  0.13680  0.33480  Biso   1.000  H
  H90      1.0000 0.10820  0.14760  0.27370  Biso   1.000  H
  H91      1.0000 0.25110  0.08570  0.27640  Biso   1.000  H
  H92      1.0000 0.25640  0.07480  0.33750  Biso   1.000  H
  H93      1.0000 0.14920  0.28520  0.20750  Biso   1.000  H
  H94      1.0000 0.19430  0.21870  0.22580  Biso   1.000  H
  H95      1.0000 0.06660  0.14650  0.17990  Biso   1.000  H
  H96      1.0000 0.02160  0.21300  0.16150  Biso   1.000  H
  H97      1.0000 0.07640  0.98270  0.21560  Biso   1.000  H
  H98      1.0000 0.12020  0.04580  0.24250  Biso   1.000  H
  H99      1.0000 0.13560  0.09550  0.14590  Biso   1.000  H
  H100     1.0000 0.09170  0.03240  0.11900  Biso   1.000  H
  H101     1.0000 0.31940  0.00270  0.87930  Biso   1.000  H
  H102     1.0000 0.27790  0.06510  0.90040  Biso   1.000  H
  H103     1.0000 0.40490  0.14230  0.88740  Biso   1.000  H
  H104     1.0000 0.44640  0.07990  0.86630  Biso   1.000  H
  H105     1.0000 0.13590  0.10290  0.94330  Biso   1.000  H
  H106     1.0000 0.22840  0.11260  0.95550  Biso   1.000  H
  H107     1.0000 0.22310  0.18740  0.86650  Biso   1.000  H
  H108     1.0000 0.13060  0.17770  0.85430  Biso   1.000  H
  H109     1.0000 0.36490  0.26320  0.83910  Biso   1.000  H
  H110     1.0000 0.32440  0.19690  0.85420  Biso   1.000  H
  H111     1.0000 0.35110  0.23340  0.95760  Biso   1.000  H
  H112     1.0000 0.39160  0.29970  0.94250  Biso   1.000  H
  H113     1.0000 0.45620  0.12320  0.01020  Biso   1.000  H
  H114     1.0000 0.40440  0.12180  0.95390  Biso   1.000  H
  H115     1.0000 0.28030  0.17600  0.99440  Biso   1.000  H
  H116     1.0000 0.33220  0.17730  0.05070  Biso   1.000  H
  H117     1.0000 0.06100  0.98420  0.42860  Biso   1.000  H
  H118     1.0000 0.01620  0.91690  0.41240  Biso   1.000  H
  H119     1.0000 0.15750  0.85600  0.40710  Biso   1.000  H
  H120     1.0000 0.20230  0.92330  0.42320  Biso   1.000  H
  H121     1.0000 0.05950  0.88480  0.27620  Biso   1.000  H
  H122     1.0000 0.07040  0.88580  0.33810  Biso   1.000  H
  H123     1.0000 0.01010  0.75980  0.33780  Biso   1.000  H
  H124     1.0000 0.99920  0.75880  0.27580  Biso   1.000  H
  H125     1.0000 0.14190  0.68250  0.41020  Biso   1.000  H
  H126     1.0000 0.09010  0.73700  0.37680  Biso   1.000  H
  H127     1.0000 0.09640  0.81490  0.46440  Biso   1.000  H
  H128     1.0000 0.14820  0.76030  0.49780  Biso   1.000  H
  H129     1.0000 0.91820  0.85240  0.47520  Biso   1.000  H
  H130     1.0000 0.00220  0.83310  0.46180  Biso   1.000  H
  H131     1.0000 0.94150  0.83140  0.35720  Biso   1.000  H
  H132     1.0000 0.85750  0.85070  0.37060  Biso   1.000  H
  H133     1.0000 0.00580  0.35950  0.09300  Biso   1.000  H
  H134     1.0000 0.25440  0.63460  0.41270  Biso   1.000  H
  H135     1.0000 0.81820  0.48250  0.59800  Biso   1.000  H
  H136     1.0000 0.87220  0.53490  0.63230  Biso   1.000  H
  H137     1.0000 0.89590  0.60040  0.54310  Biso   1.000  H
  H138     1.0000 0.84180  0.54790  0.50880  Biso   1.000  H
  H139     1.0000 0.07580  0.54770  0.56090  Biso   1.000  H
  H140     1.0000 0.99100  0.55140  0.57740  Biso   1.000  H
  H141     1.0000 0.03240  0.66670  0.63100  Biso   1.000  H
  H142     1.0000 0.11730  0.66290  0.61450  Biso   1.000  H
  H143     1.0000 0.92970  0.76610  0.56740  Biso   1.000  H
  H144     1.0000 0.96980  0.69760  0.58590  Biso   1.000  H
  H145     1.0000 0.83370  0.65770  0.61990  Biso   1.000  H
  H146     1.0000 0.79360  0.72620  0.60140  Biso   1.000  H
  H147     1.0000 0.88510  0.62580  0.73610  Biso   1.000  H
  H148     1.0000 0.87790  0.64380  0.67590  Biso   1.000  H
  H149     1.0000 0.99880  0.55800  0.66640  Biso   1.000  H
  H150     1.0000 0.00600  0.54000  0.72660  Biso   1.000  H
  H151     1.0000 0.81690  0.45220  0.17070  Biso   1.000  H
  H152     1.0000 0.73300  0.44670  0.18850  Biso   1.000  H
  H153     1.0000 0.76520  0.31820  0.21940  Biso   1.000  H
  H154     1.0000 0.84910  0.32370  0.20160  Biso   1.000  H
  H155     1.0000 0.61360  0.36320  0.33480  Biso   1.000  H
  H156     1.0000 0.60820  0.35240  0.27370  Biso   1.000  H
  H157     1.0000 0.75110  0.41430  0.27640  Biso   1.000  H
  H158     1.0000 0.75640  0.42520  0.33750  Biso   1.000  H
  H159     1.0000 0.64920  0.21480  0.20750  Biso   1.000  H
  H160     1.0000 0.69430  0.28130  0.22580  Biso   1.000  H
  H161     1.0000 0.56660  0.35350  0.17990  Biso   1.000  H
  H162     1.0000 0.52160  0.28700  0.16150  Biso   1.000  H
  H163     1.0000 0.57640  0.51730  0.21560  Biso   1.000  H
  H164     1.0000 0.62020  0.45420  0.24250  Biso   1.000  H
  H165     1.0000 0.63560  0.40450  0.14590  Biso   1.000  H
  H166     1.0000 0.59170  0.46760  0.11900  Biso   1.000  H
  H167     1.0000 0.81940  0.49730  0.87930  Biso   1.000  H
  H168     1.0000 0.77790  0.43490  0.90040  Biso   1.000  H
  H169     1.0000 0.90490  0.35770  0.88740  Biso   1.000  H
  H170     1.0000 0.94640  0.42010  0.86630  Biso   1.000  H
  H171     1.0000 0.63590  0.39710  0.94330  Biso   1.000  H
  H172     1.0000 0.72840  0.38740  0.95550  Biso   1.000  H
  H173     1.0000 0.72310  0.31260  0.86650  Biso   1.000  H
  H174     1.0000 0.63060  0.32230  0.85430  Biso   1.000  H
  H175     1.0000 0.86490  0.23680  0.83910  Biso   1.000  H
  H176     1.0000 0.82440  0.30310  0.85420  Biso   1.000  H
  H177     1.0000 0.85110  0.26660  0.95760  Biso   1.000  H
  H178     1.0000 0.89160  0.20030  0.94250  Biso   1.000  H
  H179     1.0000 0.95620  0.37680  0.01020  Biso   1.000  H
  H180     1.0000 0.90440  0.37820  0.95390  Biso   1.000  H
  H181     1.0000 0.78030  0.32400  0.99440  Biso   1.000  H
  H182     1.0000 0.83220  0.32270  0.05070  Biso   1.000  H
  H183     1.0000 0.56100  0.51580  0.42860  Biso   1.000  H
  H184     1.0000 0.51620  0.58310  0.41240  Biso   1.000  H
  H185     1.0000 0.65750  0.64400  0.40710  Biso   1.000  H
  H186     1.0000 0.70230  0.57670  0.42320  Biso   1.000  H
  H187     1.0000 0.55950  0.61520  0.27620  Biso   1.000  H
  H188     1.0000 0.57040  0.61420  0.33810  Biso   1.000  H
  H189     1.0000 0.51010  0.74020  0.33780  Biso   1.000  H
  H190     1.0000 0.49920  0.74120  0.27580  Biso   1.000  H
  H191     1.0000 0.64190  0.81750  0.41020  Biso   1.000  H
  H192     1.0000 0.59010  0.76300  0.37680  Biso   1.000  H
  H193     1.0000 0.59640  0.68510  0.46440  Biso   1.000  H
  H194     1.0000 0.64820  0.73970  0.49780  Biso   1.000  H
  H195     1.0000 0.41820  0.64760  0.47520  Biso   1.000  H
  H196     1.0000 0.50220  0.66690  0.46180  Biso   1.000  H
  H197     1.0000 0.44150  0.66860  0.35720  Biso   1.000  H
  H198     1.0000 0.35750  0.64930  0.37060  Biso   1.000  H
  H199     1.0000 0.49420  0.85950  0.90700  Biso   1.000  H
  H200     1.0000 0.24560  0.13460  0.58730  Biso   1.000  H
  H201     1.0000 0.68180  0.98250  0.40200  Biso   1.000  H
  H202     1.0000 0.62780  0.03490  0.36770  Biso   1.000  H
  H203     1.0000 0.60410  0.10040  0.45690  Biso   1.000  H
  H204     1.0000 0.65820  0.04790  0.49120  Biso   1.000  H
  H205     1.0000 0.42420  0.04770  0.43910  Biso   1.000  H
  H206     1.0000 0.50900  0.05140  0.42260  Biso   1.000  H
  H207     1.0000 0.46760  0.16670  0.36900  Biso   1.000  H
  H208     1.0000 0.38270  0.16290  0.38550  Biso   1.000  H
  H209     1.0000 0.57030  0.26610  0.43260  Biso   1.000  H
  H210     1.0000 0.53020  0.19760  0.41410  Biso   1.000  H
  H211     1.0000 0.66630  0.15770  0.38010  Biso   1.000  H
  H212     1.0000 0.70640  0.22620  0.39860  Biso   1.000  H
  H213     1.0000 0.61490  0.12580  0.26390  Biso   1.000  H
  H214     1.0000 0.62210  0.14380  0.32410  Biso   1.000  H
  H215     1.0000 0.50120  0.05800  0.33360  Biso   1.000  H
  H216     1.0000 0.49400  0.04000  0.27340  Biso   1.000  H
  H217     1.0000 0.68310  0.95220  0.82930  Biso   1.000  H
  H218     1.0000 0.76700  0.94670  0.81150  Biso   1.000  H
  H219     1.0000 0.73480  0.81820  0.78060  Biso   1.000  H
  H220     1.0000 0.65090  0.82370  0.79840  Biso   1.000  H
  H221     1.0000 0.88640  0.86320  0.66520  Biso   1.000  H
  H222     1.0000 0.89180  0.85240  0.72630  Biso   1.000  H
  H223     1.0000 0.74890  0.91430  0.72360  Biso   1.000  H
  H224     1.0000 0.74360  0.92520  0.66250  Biso   1.000  H
  H225     1.0000 0.85080  0.71480  0.79250  Biso   1.000  H
  H226     1.0000 0.80570  0.78130  0.77420  Biso   1.000  H
  H227     1.0000 0.93340  0.85350  0.82010  Biso   1.000  H
  H228     1.0000 0.97840  0.78700  0.83850  Biso   1.000  H
  H229     1.0000 0.92360  0.01730  0.78440  Biso   1.000  H
  H230     1.0000 0.87980  0.95420  0.75750  Biso   1.000  H
  H231     1.0000 0.86440  0.90450  0.85410  Biso   1.000  H
  H232     1.0000 0.90830  0.96760  0.88100  Biso   1.000  H
  H233     1.0000 0.68060  0.99730  0.12070  Biso   1.000  H
  H234     1.0000 0.72210  0.93490  0.09960  Biso   1.000  H
  H235     1.0000 0.59510  0.85770  0.11260  Biso   1.000  H
  H236     1.0000 0.55360  0.92010  0.13370  Biso   1.000  H
  H237     1.0000 0.86410  0.89710  0.05670  Biso   1.000  H
  H238     1.0000 0.77160  0.88740  0.04450  Biso   1.000  H
  H239     1.0000 0.77690  0.81260  0.13350  Biso   1.000  H
  H240     1.0000 0.86940  0.82230  0.14570  Biso   1.000  H
  H241     1.0000 0.63510  0.73680  0.16090  Biso   1.000  H
  H242     1.0000 0.67560  0.80310  0.14580  Biso   1.000  H
  H243     1.0000 0.64890  0.76660  0.04240  Biso   1.000  H
  H244     1.0000 0.60840  0.70030  0.05750  Biso   1.000  H
  H245     1.0000 0.54380  0.87680  0.98980  Biso   1.000  H
  H246     1.0000 0.59560  0.87820  0.04610  Biso   1.000  H
  H247     1.0000 0.71970  0.82400  0.00560  Biso   1.000  H
  H248     1.0000 0.66780  0.82270  0.94930  Biso   1.000  H
  H249     1.0000 0.93900  0.01580  0.57140  Biso   1.000  H
  H250     1.0000 0.98380  0.08310  0.58760  Biso   1.000  H
  H251     1.0000 0.84250  0.14400  0.59290  Biso   1.000  H
  H252     1.0000 0.79770  0.07670  0.57680  Biso   1.000  H
  H253     1.0000 0.94050  0.11520  0.72380  Biso   1.000  H
  H254     1.0000 0.92960  0.11420  0.66190  Biso   1.000  H
  H255     1.0000 0.98990  0.24020  0.66220  Biso   1.000  H
  H256     1.0000 0.00080  0.24120  0.72420  Biso   1.000  H
  H257     1.0000 0.85810  0.31750  0.58980  Biso   1.000  H
  H258     1.0000 0.90990  0.26300  0.62320  Biso   1.000  H
  H259     1.0000 0.90360  0.18510  0.53560  Biso   1.000  H
  H260     1.0000 0.85180  0.23970  0.50220  Biso   1.000  H
  H261     1.0000 0.08180  0.14760  0.52480  Biso   1.000  H
  H262     1.0000 0.99780  0.16690  0.53820  Biso   1.000  H
  H263     1.0000 0.05850  0.16860  0.64280  Biso   1.000  H
  H264     1.0000 0.14250  0.14930  0.62940  Biso   1.000  H
  C1       1.0000 0.20430  0.52473  0.47272  Biso   1.000  C
  C2       1.0000 0.17506  0.48970  0.44984  Biso   1.000  C
  C3       1.0000 0.16603  0.49356  0.41315  Biso   1.000  C
  C4       1.0000 0.13394  0.46242  0.39276  Biso   1.000  C
  C5       1.0000 0.11088  0.42742  0.40907  Biso   1.000  C
  C6       1.0000 0.11991  0.42356  0.44576  Biso   1.000  C
  C7       1.0000 0.15200  0.45470  0.46615  Biso   1.000  C
  C8       1.0000 0.84370  0.39624  0.42822  Biso   1.000  C
  C9       1.0000 0.89545  0.39506  0.41387  Biso   1.000  C
  C10      1.0000 0.93298  0.42818  0.42489  Biso   1.000  C
  C11      1.0000 0.98339  0.42593  0.41508  Biso   1.000  C
  C12      1.0000 0.99628  0.39057  0.39425  Biso   1.000  C
  C13      1.0000 0.95875  0.35745  0.38322  Biso   1.000  C
  C14      1.0000 0.90833  0.35970  0.39304  Biso   1.000  C
  C15      1.0000 0.16770  0.20349  0.43087  Biso   1.000  C
  C16      1.0000 0.14215  0.24740  0.41733  Biso   1.000  C
  C17      1.0000 0.08981  0.25589  0.42192  Biso   1.000  C
  C18      1.0000 0.06595  0.29657  0.41092  Biso   1.000  C
  C19      1.0000 0.09444  0.32876  0.39532  Biso   1.000  C
  C20      1.0000 0.14678  0.32027  0.39073  Biso   1.000  C
  C21      1.0000 0.17064  0.27959  0.40174  Biso   1.000  C
  C22      1.0000 0.04673  0.43209  0.22453  Biso   1.000  C
  C23      1.0000 0.05377  0.41880  0.26303  Biso   1.000  C
  C24      1.0000 0.09183  0.38797  0.27806  Biso   1.000  C
  C25      1.0000 0.09611  0.37728  0.31380  Biso   1.000  C
  C26      1.0000 0.06233  0.39740  0.33449  Biso   1.000  C
  C27      1.0000 0.02428  0.42822  0.31946  Biso   1.000  C
  C28      1.0000 0.02000  0.43892  0.28373  Biso   1.000  C
  C29      1.0000 0.10890  0.60790  0.82674  Biso   1.000  C
  C30      1.0000 0.15911  0.61153  0.81552  Biso   1.000  C
  C31      1.0000 0.19359  0.57499  0.81943  Biso   1.000  C
  C32      1.0000 0.24344  0.57826  0.80887  Biso   1.000  C
  C33      1.0000 0.25879  0.61808  0.79439  Biso   1.000  C
  C34      1.0000 0.22431  0.65462  0.79047  Biso   1.000  C
  C35      1.0000 0.17446  0.65135  0.80104  Biso   1.000  C
  C36      1.0000 0.31040  0.59810  0.62104  Biso   1.000  C
  C37      1.0000 0.31455  0.60478  0.65813  Biso   1.000  C
  C38      1.0000 0.35854  0.62639  0.67708  Biso   1.000  C
  C39      1.0000 0.36169  0.63285  0.71337  Biso   1.000  C
  C40      1.0000 0.32085  0.61769  0.73071  Biso   1.000  C
  C41      1.0000 0.27686  0.59607  0.71176  Biso   1.000  C
  C42      1.0000 0.27371  0.58962  0.67547  Biso   1.000  C
  C43      1.0000 0.44860  0.79784  0.82921  Biso   1.000  C
  C44      1.0000 0.41882  0.75539  0.81720  Biso   1.000  C
  C45      1.0000 0.36752  0.75707  0.79810  Biso   1.000  C
  C46      1.0000 0.34077  0.71754  0.78722  Biso   1.000  C
  C47      1.0000 0.36531  0.67633  0.79544  Biso   1.000  C
  C48      1.0000 0.41660  0.67465  0.81453  Biso   1.000  C
  C49      1.0000 0.44336  0.71418  0.82541  Biso   1.000  C
  C50      1.0000 0.44000  0.46220  0.85270  Biso   1.000  C
  C51      1.0000 0.42009  0.50161  0.83530  Biso   1.000  C
  C52      1.0000 0.41162  0.50560  0.79859  Biso   1.000  C
  C53      1.0000 0.38560  0.54310  0.78260  Biso   1.000  C
  C54      1.0000 0.36798  0.57661  0.80330  Biso   1.000  C
  C55      1.0000 0.37640  0.57260  0.83999  Biso   1.000  C
  C56      1.0000 0.40250  0.53510  0.85597  Biso   1.000  C
  C57      1.0000 0.08590  0.49480  0.14331  Biso   1.000  C
  C58      1.0000 0.11325  0.53546  0.12919  Biso   1.000  C
  C59      1.0000 0.16327  0.53106  0.11907  Biso   1.000  C
  C60      1.0000 0.18787  0.56812  0.10653  Biso   1.000  C
  C61      1.0000 0.16246  0.60959  0.10411  Biso   1.000  C
  C62      1.0000 0.11243  0.61400  0.11424  Biso   1.000  C
  C63      1.0000 0.08783  0.57694  0.12678  Biso   1.000  C
  C64      1.0000 0.43060  0.63120  0.11060  Biso   1.000  C
  C65      1.0000 0.37549  0.63942  0.10235  Biso   1.000  C
  C66      1.0000 0.34640  0.62008  0.07228  Biso   1.000  C
  C67      1.0000 0.29140  0.62581  0.06503  Biso   1.000  C
  C68      1.0000 0.26551  0.65088  0.08787  Biso   1.000  C
  C69      1.0000 0.29460  0.67023  0.11794  Biso   1.000  C
  C70      1.0000 0.34960  0.66450  0.12519  Biso   1.000  C
  C71      1.0000 0.08490  0.82780  0.11780  Biso   1.000  C
  C72      1.0000 0.11793  0.78770  0.11058  Biso   1.000  C
  C73      1.0000 0.13790  0.75710  0.13682  Biso   1.000  C
  C74      1.0000 0.16195  0.71774  0.12788  Biso   1.000  C
  C75      1.0000 0.16606  0.70891  0.09270  Biso   1.000  C
  C76      1.0000 0.14610  0.73950  0.06646  Biso   1.000  C
  C77      1.0000 0.12204  0.77886  0.07540  Biso   1.000  C
  C78      1.0000 0.05718  0.64860  0.93260  Biso   1.000  C
  C79      1.0000 0.10100  0.65040  0.96424  Biso   1.000  C
  C80      1.0000 0.07951  0.63392  0.99299  Biso   1.000  C
  C81      1.0000 0.11030  0.63311  0.02644  Biso   1.000  C
  C82      1.0000 0.16250  0.64877  0.03113  Biso   1.000  C
  C83      1.0000 0.18396  0.66525  0.00238  Biso   1.000  C
  C84      1.0000 0.15320  0.66606  0.96893  Biso   1.000  C
  C85      1.0000 0.33780  0.50363  0.56113  Biso   1.000  C
  C86      1.0000 0.36416  0.46012  0.57258  Biso   1.000  C
  C87      1.0000 0.41944  0.45821  0.57581  Biso   1.000  C
  C88      1.0000 0.44603  0.41821  0.58543  Biso   1.000  C
  C89      1.0000 0.41734  0.38013  0.59181  Biso   1.000  C
  C90      1.0000 0.36206  0.38204  0.58858  Biso   1.000  C
  C91      1.0000 0.33547  0.42204  0.57897  Biso   1.000  C
  C92      1.0000 0.47950  0.32490  0.77000  Biso   1.000  C
  C93      1.0000 0.47166  0.32170  0.72980  Biso   1.000  C
  C94      1.0000 0.45053  0.35944  0.71130  Biso   1.000  C
  C95      1.0000 0.44405  0.36003  0.67452  Biso   1.000  C
  C96      1.0000 0.45871  0.32290  0.65622  Biso   1.000  C
  C97      1.0000 0.47985  0.28517  0.67472  Biso   1.000  C
  C98      1.0000 0.48633  0.28457  0.71151  Biso   1.000  C
  C99      1.0000 0.31270  0.18290  0.52380  Biso   1.000  C
  C100     1.0000 0.35009  0.21627  0.54284  Biso   1.000  C
  C101     1.0000 0.36735  0.20936  0.57877  Biso   1.000  C
  C102     1.0000 0.39812  0.24177  0.59863  Biso   1.000  C
  C103     1.0000 0.41163  0.28108  0.58255  Biso   1.000  C
  C104     1.0000 0.39436  0.28799  0.54662  Biso   1.000  C
  C105     1.0000 0.36359  0.25558  0.52676  Biso   1.000  C
  C106     1.0000 0.67706  0.36170  0.57090  Biso   1.000  C
  C107     1.0000 0.62004  0.35336  0.57588  Biso   1.000  C
  C108     1.0000 0.57710  0.34812  0.54878  Biso   1.000  C
  C109     1.0000 0.52719  0.33666  0.55672  Biso   1.000  C
  C110     1.0000 0.52025  0.33045  0.59176  Biso   1.000  C
  C111     1.0000 0.56320  0.33569  0.61885  Biso   1.000  C
  C112     1.0000 0.61311  0.34714  0.61092  Biso   1.000  C
  C113     1.0000 0.29570  0.02473  0.52728  Biso   1.000  C
  C114     1.0000 0.32494  0.98970  0.55016  Biso   1.000  C
  C115     1.0000 0.33397  0.99356  0.58685  Biso   1.000  C
  C116     1.0000 0.36606  0.96242  0.60724  Biso   1.000  C
  C117     1.0000 0.38912  0.92742  0.59093  Biso   1.000  C
  C118     1.0000 0.38009  0.92356  0.55424  Biso   1.000  C
  C119     1.0000 0.34800  0.95470  0.53385  Biso   1.000  C
  C120     1.0000 0.65630  0.89624  0.57178  Biso   1.000  C
  C121     1.0000 0.60455  0.89506  0.58613  Biso   1.000  C
  C122     1.0000 0.56702  0.92818  0.57511  Biso   1.000  C
  C123     1.0000 0.51661  0.92593  0.58492  Biso   1.000  C
  C124     1.0000 0.50372  0.89057  0.60575  Biso   1.000  C
  C125     1.0000 0.54125  0.85745  0.61678  Biso   1.000  C
  C126     1.0000 0.59167  0.85970  0.60696  Biso   1.000  C
  C127     1.0000 0.33230  0.70349  0.56913  Biso   1.000  C
  C128     1.0000 0.35785  0.74740  0.58267  Biso   1.000  C
  C129     1.0000 0.41019  0.75589  0.57808  Biso   1.000  C
  C130     1.0000 0.43405  0.79657  0.58908  Biso   1.000  C
  C131     1.0000 0.40556  0.82876  0.60468  Biso   1.000  C
  C132     1.0000 0.35322  0.82027  0.60927  Biso   1.000  C
  C133     1.0000 0.32936  0.77959  0.59826  Biso   1.000  C
  C134     1.0000 0.45327  0.93209  0.77547  Biso   1.000  C
  C135     1.0000 0.44623  0.91880  0.73697  Biso   1.000  C
  C136     1.0000 0.40817  0.88797  0.72194  Biso   1.000  C
  C137     1.0000 0.40389  0.87728  0.68620  Biso   1.000  C
  C138     1.0000 0.43767  0.89740  0.66551  Biso   1.000  C
  C139     1.0000 0.47572  0.92822  0.68054  Biso   1.000  C
  C140     1.0000 0.48000  0.93892  0.71627  Biso   1.000  C
  C141     1.0000 0.39110  0.10790  0.17326  Biso   1.000  C
  C142     1.0000 0.34089  0.11153  0.18448  Biso   1.000  C
  C143     1.0000 0.30641  0.07499  0.18057  Biso   1.000  C
  C144     1.0000 0.25656  0.07826  0.19113  Biso   1.000  C
  C145     1.0000 0.24121  0.11808  0.20561  Biso   1.000  C
  C146     1.0000 0.27569  0.15462  0.20953  Biso   1.000  C
  C147     1.0000 0.32554  0.15135  0.19896  Biso   1.000  C
  C148     1.0000 0.18960  0.09810  0.37896  Biso   1.000  C
  C149     1.0000 0.18545  0.10478  0.34187  Biso   1.000  C
  C150     1.0000 0.14146  0.12639  0.32292  Biso   1.000  C
  C151     1.0000 0.13831  0.13285  0.28663  Biso   1.000  C
  C152     1.0000 0.17915  0.11769  0.26929  Biso   1.000  C
  C153     1.0000 0.22314  0.09607  0.28824  Biso   1.000  C
  C154     1.0000 0.22629  0.08962  0.32453  Biso   1.000  C
  C155     1.0000 0.05140  0.29784  0.17079  Biso   1.000  C
  C156     1.0000 0.08118  0.25539  0.18280  Biso   1.000  C
  C157     1.0000 0.13248  0.25707  0.20190  Biso   1.000  C
  C158     1.0000 0.15923  0.21754  0.21278  Biso   1.000  C
  C159     1.0000 0.13469  0.17633  0.20456  Biso   1.000  C
  C160     1.0000 0.08340  0.17465  0.18547  Biso   1.000  C
  C161     1.0000 0.05664  0.21418  0.17459  Biso   1.000  C
  C162     1.0000 0.06000  0.96220  0.14730  Biso   1.000  C
  C163     1.0000 0.07991  0.00161  0.16470  Biso   1.000  C
  C164     1.0000 0.08838  0.00560  0.20141  Biso   1.000  C
  C165     1.0000 0.11440  0.04310  0.21740  Biso   1.000  C
  C166     1.0000 0.13202  0.07661  0.19670  Biso   1.000  C
  C167     1.0000 0.12360  0.07260  0.16001  Biso   1.000  C
  C168     1.0000 0.09750  0.03510  0.14403  Biso   1.000  C
  C169     1.0000 0.41410  0.99480  0.85669  Biso   1.000  C
  C170     1.0000 0.38675  0.03546  0.87081  Biso   1.000  C
  C171     1.0000 0.33673  0.03106  0.88093  Biso   1.000  C
  C172     1.0000 0.31213  0.06812  0.89347  Biso   1.000  C
  C173     1.0000 0.33754  0.10959  0.89589  Biso   1.000  C
  C174     1.0000 0.38757  0.11400  0.88576  Biso   1.000  C
  C175     1.0000 0.41217  0.07694  0.87322  Biso   1.000  C
  C176     1.0000 0.06940  0.13120  0.88940  Biso   1.000  C
  C177     1.0000 0.12451  0.13942  0.89765  Biso   1.000  C
  C178     1.0000 0.15360  0.12008  0.92772  Biso   1.000  C
  C179     1.0000 0.20860  0.12581  0.93497  Biso   1.000  C
  C180     1.0000 0.23449  0.15088  0.91213  Biso   1.000  C
  C181     1.0000 0.20540  0.17023  0.88206  Biso   1.000  C
  C182     1.0000 0.15040  0.16450  0.87481  Biso   1.000  C
  C183     1.0000 0.41510  0.32780  0.88220  Biso   1.000  C
  C184     1.0000 0.38207  0.28770  0.88942  Biso   1.000  C
  C185     1.0000 0.36210  0.25710  0.86318  Biso   1.000  C
  C186     1.0000 0.33805  0.21774  0.87212  Biso   1.000  C
  C187     1.0000 0.33394  0.20891  0.90730  Biso   1.000  C
  C188     1.0000 0.35390  0.23950  0.93354  Biso   1.000  C
  C189     1.0000 0.37796  0.27886  0.92460  Biso   1.000  C
  C190     1.0000 0.44282  0.14860  0.06740  Biso   1.000  C
  C191     1.0000 0.39900  0.15040  0.03576  Biso   1.000  C
  C192     1.0000 0.42049  0.13392  0.00701  Biso   1.000  C
  C193     1.0000 0.38970  0.13311  0.97356  Biso   1.000  C
  C194     1.0000 0.33750  0.14877  0.96887  Biso   1.000  C
  C195     1.0000 0.31604  0.16525  0.99762  Biso   1.000  C
  C196     1.0000 0.34680  0.16606  0.03107  Biso   1.000  C
  C197     1.0000 0.16220  0.00363  0.43887  Biso   1.000  C
  C198     1.0000 0.13584  0.96012  0.42742  Biso   1.000  C
  C199     1.0000 0.08056  0.95821  0.42419  Biso   1.000  C
  C200     1.0000 0.05397  0.91821  0.41457  Biso   1.000  C
  C201     1.0000 0.08266  0.88013  0.40819  Biso   1.000  C
  C202     1.0000 0.13794  0.88204  0.41142  Biso   1.000  C
  C203     1.0000 0.16453  0.92204  0.42103  Biso   1.000  C
  C204     1.0000 0.02050  0.82490  0.23000  Biso   1.000  C
  C205     1.0000 0.02834  0.82170  0.27020  Biso   1.000  C
  C206     1.0000 0.04947  0.85944  0.28870  Biso   1.000  C
  C207     1.0000 0.05595  0.86003  0.32548  Biso   1.000  C
  C208     1.0000 0.04129  0.82290  0.34378  Biso   1.000  C
  C209     1.0000 0.02015  0.78517  0.32528  Biso   1.000  C
  C210     1.0000 0.01367  0.78457  0.28849  Biso   1.000  C
  C211     1.0000 0.18730  0.68290  0.47620  Biso   1.000  C
  C212     1.0000 0.14991  0.71627  0.45716  Biso   1.000  C
  C213     1.0000 0.13265  0.70936  0.42123  Biso   1.000  C
  C214     1.0000 0.10188  0.74177  0.40137  Biso   1.000  C
  C215     1.0000 0.08837  0.78108  0.41745  Biso   1.000  C
  C216     1.0000 0.10564  0.78799  0.45338  Biso   1.000  C
  C217     1.0000 0.13641  0.75558  0.47324  Biso   1.000  C
  C218     1.0000 0.82294  0.86170  0.42910  Biso   1.000  C
  C219     1.0000 0.87996  0.85336  0.42412  Biso   1.000  C
  C220     1.0000 0.92290  0.84812  0.45122  Biso   1.000  C
  C221     1.0000 0.97281  0.83666  0.44328  Biso   1.000  C
  C222     1.0000 0.97975  0.83045  0.40824  Biso   1.000  C
  C223     1.0000 0.93680  0.83569  0.38115  Biso   1.000  C
  C224     1.0000 0.88689  0.84714  0.38908  Biso   1.000  C
  C225     1.0000 0.79570  0.47527  0.52728  Biso   1.000  C
  C226     1.0000 0.82494  0.51030  0.55016  Biso   1.000  C
  C227     1.0000 0.83397  0.50644  0.58685  Biso   1.000  C
  C228     1.0000 0.86606  0.53758  0.60724  Biso   1.000  C
  C229     1.0000 0.88912  0.57258  0.59093  Biso   1.000  C
  C230     1.0000 0.88009  0.57644  0.55424  Biso   1.000  C
  C231     1.0000 0.84800  0.54530  0.53385  Biso   1.000  C
  C232     1.0000 0.15630  0.60376  0.57178  Biso   1.000  C
  C233     1.0000 0.10455  0.60494  0.58613  Biso   1.000  C
  C234     1.0000 0.06702  0.57182  0.57511  Biso   1.000  C
  C235     1.0000 0.01661  0.57407  0.58492  Biso   1.000  C
  C236     1.0000 0.00372  0.60943  0.60575  Biso   1.000  C
  C237     1.0000 0.04125  0.64255  0.61678  Biso   1.000  C
  C238     1.0000 0.09167  0.64030  0.60696  Biso   1.000  C
  C239     1.0000 0.83230  0.79651  0.56913  Biso   1.000  C
  C240     1.0000 0.85785  0.75260  0.58267  Biso   1.000  C
  C241     1.0000 0.91019  0.74411  0.57808  Biso   1.000  C
  C242     1.0000 0.93405  0.70343  0.58908  Biso   1.000  C
  C243     1.0000 0.90556  0.67124  0.60468  Biso   1.000  C
  C244     1.0000 0.85322  0.67973  0.60927  Biso   1.000  C
  C245     1.0000 0.82936  0.72041  0.59826  Biso   1.000  C
  C246     1.0000 0.95327  0.56791  0.77547  Biso   1.000  C
  C247     1.0000 0.94623  0.58120  0.73697  Biso   1.000  C
  C248     1.0000 0.90817  0.61203  0.72194  Biso   1.000  C
  C249     1.0000 0.90389  0.62272  0.68620  Biso   1.000  C
  C250     1.0000 0.93767  0.60260  0.66551  Biso   1.000  C
  C251     1.0000 0.97572  0.57178  0.68054  Biso   1.000  C
  C252     1.0000 0.98000  0.56108  0.71627  Biso   1.000  C
  C253     1.0000 0.89110  0.39210  0.17326  Biso   1.000  C
  C254     1.0000 0.84089  0.38847  0.18448  Biso   1.000  C
  C255     1.0000 0.80641  0.42501  0.18057  Biso   1.000  C
  C256     1.0000 0.75656  0.42174  0.19113  Biso   1.000  C
  C257     1.0000 0.74121  0.38192  0.20561  Biso   1.000  C
  C258     1.0000 0.77569  0.34538  0.20953  Biso   1.000  C
  C259     1.0000 0.82554  0.34865  0.19896  Biso   1.000  C
  C260     1.0000 0.68960  0.40190  0.37896  Biso   1.000  C
  C261     1.0000 0.68545  0.39522  0.34187  Biso   1.000  C
  C262     1.0000 0.64146  0.37361  0.32292  Biso   1.000  C
  C263     1.0000 0.63831  0.36715  0.28663  Biso   1.000  C
  C264     1.0000 0.67915  0.38231  0.26929  Biso   1.000  C
  C265     1.0000 0.72314  0.40393  0.28824  Biso   1.000  C
  C266     1.0000 0.72629  0.41038  0.32453  Biso   1.000  C
  C267     1.0000 0.55140  0.20216  0.17079  Biso   1.000  C
  C268     1.0000 0.58118  0.24461  0.18280  Biso   1.000  C
  C269     1.0000 0.63248  0.24293  0.20190  Biso   1.000  C
  C270     1.0000 0.65923  0.28246  0.21278  Biso   1.000  C
  C271     1.0000 0.63469  0.32367  0.20456  Biso   1.000  C
  C272     1.0000 0.58340  0.32535  0.18547  Biso   1.000  C
  C273     1.0000 0.55664  0.28582  0.17459  Biso   1.000  C
  C274     1.0000 0.56000  0.53780  0.14730  Biso   1.000  C
  C275     1.0000 0.57991  0.49839  0.16470  Biso   1.000  C
  C276     1.0000 0.58838  0.49440  0.20141  Biso   1.000  C
  C277     1.0000 0.61440  0.45690  0.21740  Biso   1.000  C
  C278     1.0000 0.63202  0.42339  0.19670  Biso   1.000  C
  C279     1.0000 0.62360  0.42740  0.16001  Biso   1.000  C
  C280     1.0000 0.59750  0.46490  0.14403  Biso   1.000  C
  C281     1.0000 0.91410  0.50520  0.85669  Biso   1.000  C
  C282     1.0000 0.88675  0.46454  0.87081  Biso   1.000  C
  C283     1.0000 0.83673  0.46894  0.88093  Biso   1.000  C
  C284     1.0000 0.81213  0.43188  0.89347  Biso   1.000  C
  C285     1.0000 0.83754  0.39041  0.89589  Biso   1.000  C
  C286     1.0000 0.88757  0.38600  0.88576  Biso   1.000  C
  C287     1.0000 0.91217  0.42306  0.87322  Biso   1.000  C
  C288     1.0000 0.56940  0.36880  0.88940  Biso   1.000  C
  C289     1.0000 0.62451  0.36058  0.89765  Biso   1.000  C
  C290     1.0000 0.65360  0.37992  0.92772  Biso   1.000  C
  C291     1.0000 0.70860  0.37419  0.93497  Biso   1.000  C
  C292     1.0000 0.73449  0.34912  0.91213  Biso   1.000  C
  C293     1.0000 0.70540  0.32977  0.88206  Biso   1.000  C
  C294     1.0000 0.65040  0.33550  0.87481  Biso   1.000  C
  C295     1.0000 0.91510  0.17220  0.88220  Biso   1.000  C
  C296     1.0000 0.88207  0.21230  0.88942  Biso   1.000  C
  C297     1.0000 0.86210  0.24290  0.86318  Biso   1.000  C
  C298     1.0000 0.83805  0.28226  0.87212  Biso   1.000  C
  C299     1.0000 0.83394  0.29109  0.90730  Biso   1.000  C
  C300     1.0000 0.85390  0.26050  0.93354  Biso   1.000  C
  C301     1.0000 0.87796  0.22114  0.92460  Biso   1.000  C
  C302     1.0000 0.94282  0.35140  0.06740  Biso   1.000  C
  C303     1.0000 0.89900  0.34960  0.03576  Biso   1.000  C
  C304     1.0000 0.92049  0.36608  0.00701  Biso   1.000  C
  C305     1.0000 0.88970  0.36689  0.97356  Biso   1.000  C
  C306     1.0000 0.83750  0.35123  0.96887  Biso   1.000  C
  C307     1.0000 0.81604  0.33475  0.99762  Biso   1.000  C
  C308     1.0000 0.84680  0.33394  0.03107  Biso   1.000  C
  C309     1.0000 0.66220  0.49637  0.43887  Biso   1.000  C
  C310     1.0000 0.63584  0.53988  0.42742  Biso   1.000  C
  C311     1.0000 0.58056  0.54179  0.42419  Biso   1.000  C
  C312     1.0000 0.55397  0.58179  0.41457  Biso   1.000  C
  C313     1.0000 0.58266  0.61987  0.40819  Biso   1.000  C
  C314     1.0000 0.63794  0.61796  0.41142  Biso   1.000  C
  C315     1.0000 0.66453  0.57796  0.42103  Biso   1.000  C
  C316     1.0000 0.52050  0.67510  0.23000  Biso   1.000  C
  C317     1.0000 0.52834  0.67830  0.27020  Biso   1.000  C
  C318     1.0000 0.54947  0.64056  0.28870  Biso   1.000  C
  C319     1.0000 0.55595  0.63997  0.32548  Biso   1.000  C
  C320     1.0000 0.54129  0.67710  0.34378  Biso   1.000  C
  C321     1.0000 0.52015  0.71483  0.32528  Biso   1.000  C
  C322     1.0000 0.51367  0.71543  0.28849  Biso   1.000  C
  C323     1.0000 0.68730  0.81710  0.47620  Biso   1.000  C
  C324     1.0000 0.64991  0.78373  0.45716  Biso   1.000  C
  C325     1.0000 0.63265  0.79064  0.42123  Biso   1.000  C
  C326     1.0000 0.60188  0.75823  0.40137  Biso   1.000  C
  C327     1.0000 0.58837  0.71892  0.41745  Biso   1.000  C
  C328     1.0000 0.60564  0.71201  0.45338  Biso   1.000  C
  C329     1.0000 0.63641  0.74442  0.47324  Biso   1.000  C
  C330     1.0000 0.32294  0.63830  0.42910  Biso   1.000  C
  C331     1.0000 0.37996  0.64664  0.42412  Biso   1.000  C
  C332     1.0000 0.42290  0.65188  0.45122  Biso   1.000  C
  C333     1.0000 0.47281  0.66334  0.44328  Biso   1.000  C
  C334     1.0000 0.47975  0.66955  0.40824  Biso   1.000  C
  C335     1.0000 0.43680  0.66431  0.38115  Biso   1.000  C
  C336     1.0000 0.38689  0.65286  0.38908  Biso   1.000  C
  C337     1.0000 0.70430  0.97527  0.47272  Biso   1.000  C
  C338     1.0000 0.67506  0.01030  0.44984  Biso   1.000  C
  C339     1.0000 0.66603  0.00644  0.41315  Biso   1.000  C
  C340     1.0000 0.63394  0.03758  0.39276  Biso   1.000  C
  C341     1.0000 0.61088  0.07258  0.40907  Biso   1.000  C
  C342     1.0000 0.61991  0.07644  0.44576  Biso   1.000  C
  C343     1.0000 0.65200  0.04530  0.46615  Biso   1.000  C
  C344     1.0000 0.34370  0.10376  0.42822  Biso   1.000  C
  C345     1.0000 0.39545  0.10494  0.41387  Biso   1.000  C
  C346     1.0000 0.43298  0.07182  0.42489  Biso   1.000  C
  C347     1.0000 0.48339  0.07407  0.41508  Biso   1.000  C
  C348     1.0000 0.49628  0.10943  0.39425  Biso   1.000  C
  C349     1.0000 0.45875  0.14255  0.38322  Biso   1.000  C
  C350     1.0000 0.40833  0.14030  0.39304  Biso   1.000  C
  C351     1.0000 0.66770  0.29651  0.43087  Biso   1.000  C
  C352     1.0000 0.64215  0.25260  0.41733  Biso   1.000  C
  C353     1.0000 0.58981  0.24411  0.42192  Biso   1.000  C
  C354     1.0000 0.56595  0.20343  0.41092  Biso   1.000  C
  C355     1.0000 0.59444  0.17124  0.39532  Biso   1.000  C
  C356     1.0000 0.64678  0.17973  0.39073  Biso   1.000  C
  C357     1.0000 0.67064  0.22041  0.40174  Biso   1.000  C
  C358     1.0000 0.54673  0.06791  0.22453  Biso   1.000  C
  C359     1.0000 0.55377  0.08120  0.26303  Biso   1.000  C
  C360     1.0000 0.59183  0.11203  0.27806  Biso   1.000  C
  C361     1.0000 0.59611  0.12272  0.31380  Biso   1.000  C
  C362     1.0000 0.56233  0.10260  0.33449  Biso   1.000  C
  C363     1.0000 0.52428  0.07178  0.31946  Biso   1.000  C
  C364     1.0000 0.52000  0.06108  0.28373  Biso   1.000  C
  C365     1.0000 0.60890  0.89210  0.82674  Biso   1.000  C
  C366     1.0000 0.65911  0.88847  0.81552  Biso   1.000  C
  C367     1.0000 0.69359  0.92501  0.81943  Biso   1.000  C
  C368     1.0000 0.74344  0.92174  0.80887  Biso   1.000  C
  C369     1.0000 0.75879  0.88192  0.79439  Biso   1.000  C
  C370     1.0000 0.72431  0.84538  0.79047  Biso   1.000  C
  C371     1.0000 0.67446  0.84865  0.80104  Biso   1.000  C
  C372     1.0000 0.81040  0.90190  0.62104  Biso   1.000  C
  C373     1.0000 0.81455  0.89522  0.65813  Biso   1.000  C
  C374     1.0000 0.85854  0.87361  0.67708  Biso   1.000  C
  C375     1.0000 0.86169  0.86715  0.71337  Biso   1.000  C
  C376     1.0000 0.82085  0.88231  0.73071  Biso   1.000  C
  C377     1.0000 0.77686  0.90393  0.71176  Biso   1.000  C
  C378     1.0000 0.77371  0.91038  0.67547  Biso   1.000  C
  C379     1.0000 0.94860  0.70216  0.82921  Biso   1.000  C
  C380     1.0000 0.91882  0.74461  0.81720  Biso   1.000  C
  C381     1.0000 0.86752  0.74293  0.79810  Biso   1.000  C
  C382     1.0000 0.84077  0.78246  0.78722  Biso   1.000  C
  C383     1.0000 0.86531  0.82367  0.79544  Biso   1.000  C
  C384     1.0000 0.91660  0.82535  0.81453  Biso   1.000  C
  C385     1.0000 0.94336  0.78582  0.82541  Biso   1.000  C
  C386     1.0000 0.94000  0.03780  0.85270  Biso   1.000  C
  C387     1.0000 0.92009  0.99839  0.83530  Biso   1.000  C
  C388     1.0000 0.91162  0.99440  0.79859  Biso   1.000  C
  C389     1.0000 0.88560  0.95690  0.78260  Biso   1.000  C
  C390     1.0000 0.86798  0.92339  0.80330  Biso   1.000  C
  C391     1.0000 0.87640  0.92740  0.83999  Biso   1.000  C
  C392     1.0000 0.90250  0.96490  0.85597  Biso   1.000  C
  C393     1.0000 0.58590  0.00520  0.14331  Biso   1.000  C
  C394     1.0000 0.61325  0.96454  0.12919  Biso   1.000  C
  C395     1.0000 0.66327  0.96894  0.11907  Biso   1.000  C
  C396     1.0000 0.68787  0.93188  0.10653  Biso   1.000  C
  C397     1.0000 0.66246  0.89041  0.10411  Biso   1.000  C
  C398     1.0000 0.61243  0.88600  0.11424  Biso   1.000  C
  C399     1.0000 0.58783  0.92306  0.12678  Biso   1.000  C
  C400     1.0000 0.93060  0.86880  0.11060  Biso   1.000  C
  C401     1.0000 0.87549  0.86058  0.10235  Biso   1.000  C
  C402     1.0000 0.84640  0.87992  0.07228  Biso   1.000  C
  C403     1.0000 0.79140  0.87419  0.06503  Biso   1.000  C
  C404     1.0000 0.76551  0.84912  0.08787  Biso   1.000  C
  C405     1.0000 0.79460  0.82977  0.11794  Biso   1.000  C
  C406     1.0000 0.84960  0.83550  0.12519  Biso   1.000  C
  C407     1.0000 0.58490  0.67220  0.11780  Biso   1.000  C
  C408     1.0000 0.61793  0.71230  0.11058  Biso   1.000  C
  C409     1.0000 0.63790  0.74290  0.13682  Biso   1.000  C
  C410     1.0000 0.66195  0.78226  0.12788  Biso   1.000  C
  C411     1.0000 0.66606  0.79109  0.09270  Biso   1.000  C
  C412     1.0000 0.64610  0.76050  0.06646  Biso   1.000  C
  C413     1.0000 0.62204  0.72114  0.07540  Biso   1.000  C
  C414     1.0000 0.55718  0.85140  0.93260  Biso   1.000  C
  C415     1.0000 0.60100  0.84960  0.96424  Biso   1.000  C
  C416     1.0000 0.57951  0.86608  0.99299  Biso   1.000  C
  C417     1.0000 0.61030  0.86689  0.02644  Biso   1.000  C
  C418     1.0000 0.66250  0.85123  0.03113  Biso   1.000  C
  C419     1.0000 0.68396  0.83475  0.00238  Biso   1.000  C
  C420     1.0000 0.65320  0.83394  0.96893  Biso   1.000  C
  C421     1.0000 0.83780  0.99637  0.56113  Biso   1.000  C
  C422     1.0000 0.86416  0.03988  0.57258  Biso   1.000  C
  C423     1.0000 0.91944  0.04179  0.57581  Biso   1.000  C
  C424     1.0000 0.94603  0.08179  0.58543  Biso   1.000  C
  C425     1.0000 0.91734  0.11987  0.59181  Biso   1.000  C
  C426     1.0000 0.86206  0.11796  0.58858  Biso   1.000  C
  C427     1.0000 0.83547  0.07796  0.57897  Biso   1.000  C
  C428     1.0000 0.97950  0.17510  0.77000  Biso   1.000  C
  C429     1.0000 0.97166  0.17830  0.72980  Biso   1.000  C
  C430     1.0000 0.95053  0.14056  0.71130  Biso   1.000  C
  C431     1.0000 0.94405  0.13997  0.67452  Biso   1.000  C
  C432     1.0000 0.95871  0.17710  0.65622  Biso   1.000  C
  C433     1.0000 0.97985  0.21483  0.67472  Biso   1.000  C
  C434     1.0000 0.98633  0.21543  0.71151  Biso   1.000  C
  C435     1.0000 0.81270  0.31710  0.52380  Biso   1.000  C
  C436     1.0000 0.85009  0.28373  0.54284  Biso   1.000  C
  C437     1.0000 0.86735  0.29064  0.57877  Biso   1.000  C
  C438     1.0000 0.89812  0.25823  0.59863  Biso   1.000  C
  C439     1.0000 0.91163  0.21892  0.58255  Biso   1.000  C
  C440     1.0000 0.89436  0.21201  0.54662  Biso   1.000  C
  C441     1.0000 0.86359  0.24442  0.52676  Biso   1.000  C
  C442     1.0000 0.17706  0.13830  0.57090  Biso   1.000  C
  C443     1.0000 0.12004  0.14664  0.57588  Biso   1.000  C
  C444     1.0000 0.07710  0.15188  0.54878  Biso   1.000  C
  C445     1.0000 0.02719  0.16334  0.55672  Biso   1.000  C
  C446     1.0000 0.02025  0.16955  0.59176  Biso   1.000  C
  C447     1.0000 0.06320  0.16431  0.61885  Biso   1.000  C
  C448     1.0000 0.11311  0.15286  0.61092  Biso   1.000  C
  O1       1.0000 0.27486  0.60675  0.53011  Biso   1.000  O
  O2       1.0000 0.23206  0.55120  0.45642  Biso   1.000  O
  O3       1.0000 0.20511  0.52393  0.50505  Biso   1.000  O
  O4       1.0000 0.00889  0.40547  0.13687  Biso   1.000  O
  O5       1.0000 0.82690  0.43266  0.43906  Biso   1.000  O
  O6       1.0000 0.81876  0.35795  0.42661  Biso   1.000  O
  O7       1.0000 0.09560  0.35854  0.11349  Biso   1.000  O
  O8       1.0000 0.14264  0.17744  0.44594  Biso   1.000  O
  O9       1.0000 0.93500  0.51736  0.15525  Biso   1.000  O
  O10      1.0000 0.21464  0.20023  0.42408  Biso   1.000  O
  O11      1.0000 0.42470  0.60712  0.54047  Biso   1.000  O
  O12      1.0000 0.00291  0.45080  0.21096  Biso   1.000  O
  O13      1.0000 0.08265  0.41785  0.20737  Biso   1.000  O
  O14      1.0000 0.09643  0.57073  0.83939  Biso   1.000  O
  O15      1.0000 0.07954  0.64159  0.82419  Biso   1.000  O
  O16      1.0000 0.34966  0.60835  0.60489  Biso   1.000  O
  O17      1.0000 0.27180  0.57833  0.60456  Biso   1.000  O
  O18      1.0000 0.42608  0.83415  0.81715  Biso   1.000  O
  O19      1.0000 0.49391  0.79439  0.84867  Biso   1.000  O
  O20      1.0000 0.44570  0.45596  0.88359  Biso   1.000  O
  O21      1.0000 0.45670  0.43085  0.83340  Biso   1.000  O
  O22      1.0000 0.10993  0.45762  0.14146  Biso   1.000  O
  O23      1.0000 0.04043  0.50095  0.14747  Biso   1.000  O
  O24      1.0000 0.45492  0.64566  0.14015  Biso   1.000  O
  O25      1.0000 0.45640  0.61000  0.09177  Biso   1.000  O
  O26      1.0000 0.06040  0.85256  0.09358  Biso   1.000  O
  O27      1.0000 0.08230  0.83280  0.15050  Biso   1.000  O
  O28      1.0000 0.07800  0.65725  0.90500  Biso   1.000  O
  O29      1.0000 0.00669  0.65577  0.92488  Biso   1.000  O
  O30      1.0000 0.36064  0.53574  0.55416  Biso   1.000  O
  O31      1.0000 0.28562  0.50175  0.56234  Biso   1.000  O
  O32      1.0000 0.46760  0.35884  0.78332  Biso   1.000  O
  O33      1.0000 0.49440  0.28913  0.78554  Biso   1.000  O
  O34      1.0000 0.29867  0.19226  0.49135  Biso   1.000  O
  O35      1.0000 0.29891  0.14868  0.53697  Biso   1.000  O
  O36      1.0000 0.71712  0.36796  0.59571  Biso   1.000  O
  O37      1.0000 0.67714  0.37267  0.53870  Biso   1.000  O
  O38      1.0000 0.51600  0.58305  0.03048  Biso   1.000  O
  O39      1.0000 0.22514  0.10675  0.46989  Biso   1.000  O
  O40      1.0000 0.26794  0.05120  0.54358  Biso   1.000  O
  O41      1.0000 0.29489  0.02393  0.49495  Biso   1.000  O
  O42      1.0000 0.49111  0.90547  0.86313  Biso   1.000  O
  O43      1.0000 0.67310  0.93266  0.56094  Biso   1.000  O
  O44      1.0000 0.68124  0.85795  0.57339  Biso   1.000  O
  O45      1.0000 0.40440  0.85854  0.88651  Biso   1.000  O
  O46      1.0000 0.35736  0.67744  0.55406  Biso   1.000  O
  O47      1.0000 0.56500  0.01736  0.84475  Biso   1.000  O
  O48      1.0000 0.28536  0.70023  0.57592  Biso   1.000  O
  O49      1.0000 0.07530  0.10712  0.45953  Biso   1.000  O
  O50      1.0000 0.49709  0.95080  0.78904  Biso   1.000  O
  O51      1.0000 0.41735  0.91785  0.79263  Biso   1.000  O
  O52      1.0000 0.40357  0.07073  0.16061  Biso   1.000  O
  O53      1.0000 0.42046  0.14159  0.17581  Biso   1.000  O
  O54      1.0000 0.15034  0.10835  0.39511  Biso   1.000  O
  O55      1.0000 0.22820  0.07833  0.39544  Biso   1.000  O
  O56      1.0000 0.07392  0.33415  0.18285  Biso   1.000  O
  O57      1.0000 0.00609  0.29439  0.15133  Biso   1.000  O
  O58      1.0000 0.05430  0.95596  0.11641  Biso   1.000  O
  O59      1.0000 0.04330  0.93085  0.16660  Biso   1.000  O
  O60      1.0000 0.39007  0.95762  0.85854  Biso   1.000  O
  O61      1.0000 0.45957  0.00095  0.85253  Biso   1.000  O
  O62      1.0000 0.04508  0.14566  0.85985  Biso   1.000  O
  O63      1.0000 0.04360  0.11000  0.90823  Biso   1.000  O
  O64      1.0000 0.43960  0.35256  0.90642  Biso   1.000  O
  O65      1.0000 0.41770  0.33280  0.84950  Biso   1.000  O
  O66      1.0000 0.42200  0.15725  0.09500  Biso   1.000  O
  O67      1.0000 0.49331  0.15577  0.07512  Biso   1.000  O
  O68      1.0000 0.13936  0.03574  0.44584  Biso   1.000  O
  O69      1.0000 0.21438  0.00175  0.43766  Biso   1.000  O
  O70      1.0000 0.03240  0.85884  0.21668  Biso   1.000  O
  O71      1.0000 0.00560  0.78913  0.21446  Biso   1.000  O
  O72      1.0000 0.20133  0.69226  0.50865  Biso   1.000  O
  O73      1.0000 0.20109  0.64868  0.46303  Biso   1.000  O
  O74      1.0000 0.78288  0.86796  0.40429  Biso   1.000  O
  O75      1.0000 0.82286  0.87267  0.46130  Biso   1.000  O
  O76      1.0000 0.98400  0.08305  0.96952  Biso   1.000  O
  O77      1.0000 0.72514  0.39325  0.46989  Biso   1.000  O
  O78      1.0000 0.76794  0.44880  0.54358  Biso   1.000  O
  O79      1.0000 0.79489  0.47607  0.49495  Biso   1.000  O
  O80      1.0000 0.99111  0.59453  0.86313  Biso   1.000  O
  O81      1.0000 0.17310  0.56734  0.56094  Biso   1.000  O
  O82      1.0000 0.18124  0.64205  0.57339  Biso   1.000  O
  O83      1.0000 0.90440  0.64146  0.88651  Biso   1.000  O
  O84      1.0000 0.85736  0.82256  0.55406  Biso   1.000  O
  O85      1.0000 0.06500  0.48264  0.84475  Biso   1.000  O
  O86      1.0000 0.78536  0.79977  0.57592  Biso   1.000  O
  O87      1.0000 0.57530  0.39288  0.45953  Biso   1.000  O
  O88      1.0000 0.99709  0.54920  0.78904  Biso   1.000  O
  O89      1.0000 0.91735  0.58215  0.79263  Biso   1.000  O
  O90      1.0000 0.90357  0.42927  0.16061  Biso   1.000  O
  O91      1.0000 0.92046  0.35841  0.17581  Biso   1.000  O
  O92      1.0000 0.65034  0.39165  0.39511  Biso   1.000  O
  O93      1.0000 0.72820  0.42167  0.39544  Biso   1.000  O
  O94      1.0000 0.57392  0.16585  0.18285  Biso   1.000  O
  O95      1.0000 0.50609  0.20561  0.15133  Biso   1.000  O
  O96      1.0000 0.55430  0.54404  0.11641  Biso   1.000  O
  O97      1.0000 0.54330  0.56915  0.16660  Biso   1.000  O
  O98      1.0000 0.89007  0.54238  0.85854  Biso   1.000  O
  O99      1.0000 0.95957  0.49905  0.85253  Biso   1.000  O
  O100     1.0000 0.54508  0.35434  0.85985  Biso   1.000  O
  O101     1.0000 0.54360  0.39000  0.90823  Biso   1.000  O
  O102     1.0000 0.93960  0.14744  0.90642  Biso   1.000  O
  O103     1.0000 0.91770  0.16720  0.84950  Biso   1.000  O
  O104     1.0000 0.92200  0.34275  0.09500  Biso   1.000  O
  O105     1.0000 0.99331  0.34423  0.07512  Biso   1.000  O
  O106     1.0000 0.63936  0.46426  0.44584  Biso   1.000  O
  O107     1.0000 0.71438  0.49825  0.43766  Biso   1.000  O
  O108     1.0000 0.53240  0.64116  0.21668  Biso   1.000  O
  O109     1.0000 0.50560  0.71087  0.21446  Biso   1.000  O
  O110     1.0000 0.70133  0.80774  0.50865  Biso   1.000  O
  O111     1.0000 0.70109  0.85132  0.46303  Biso   1.000  O
  O112     1.0000 0.28288  0.63204  0.40429  Biso   1.000  O
  O113     1.0000 0.32286  0.62733  0.46130  Biso   1.000  O
  O114     1.0000 0.48400  0.41695  0.96952  Biso   1.000  O
  O115     1.0000 0.77486  0.89325  0.53011  Biso   1.000  O
  O116     1.0000 0.73206  0.94880  0.45642  Biso   1.000  O
  O117     1.0000 0.70511  0.97607  0.50505  Biso   1.000  O
  O118     1.0000 0.50889  0.09453  0.13687  Biso   1.000  O
  O119     1.0000 0.32690  0.06734  0.43906  Biso   1.000  O
  O120     1.0000 0.31876  0.14205  0.42661  Biso   1.000  O
  O121     1.0000 0.59560  0.14146  0.11349  Biso   1.000  O
  O122     1.0000 0.64264  0.32256  0.44594  Biso   1.000  O
  O123     1.0000 0.43500  0.98264  0.15525  Biso   1.000  O
  O124     1.0000 0.71464  0.29977  0.42408  Biso   1.000  O
  O125     1.0000 0.92470  0.89288  0.54047  Biso   1.000  O
  O126     1.0000 0.50291  0.04920  0.21096  Biso   1.000  O
  O127     1.0000 0.58265  0.08215  0.20737  Biso   1.000  O
  O128     1.0000 0.59643  0.92927  0.83939  Biso   1.000  O
  O129     1.0000 0.57954  0.85841  0.82419  Biso   1.000  O
  O130     1.0000 0.84966  0.89165  0.60489  Biso   1.000  O
  O131     1.0000 0.77180  0.92167  0.60456  Biso   1.000  O
  O132     1.0000 0.92608  0.66585  0.81715  Biso   1.000  O
  O133     1.0000 0.99391  0.70561  0.84867  Biso   1.000  O
  O134     1.0000 0.94570  0.04404  0.88359  Biso   1.000  O
  O135     1.0000 0.95670  0.06915  0.83340  Biso   1.000  O
  O136     1.0000 0.60993  0.04238  0.14146  Biso   1.000  O
  O137     1.0000 0.54043  0.99905  0.14747  Biso   1.000  O
  O138     1.0000 0.95492  0.85434  0.14015  Biso   1.000  O
  O139     1.0000 0.95640  0.89000  0.09177  Biso   1.000  O
  O140     1.0000 0.56040  0.64744  0.09358  Biso   1.000  O
  O141     1.0000 0.58230  0.66720  0.15050  Biso   1.000  O
  O142     1.0000 0.57800  0.84275  0.90500  Biso   1.000  O
  O143     1.0000 0.50669  0.84423  0.92488  Biso   1.000  O
  O144     1.0000 0.86064  0.96426  0.55416  Biso   1.000  O
  O145     1.0000 0.78562  0.99825  0.56234  Biso   1.000  O
  O146     1.0000 0.96760  0.14116  0.78332  Biso   1.000  O
  O147     1.0000 0.99440  0.21087  0.78554  Biso   1.000  O
  O148     1.0000 0.79867  0.30774  0.49135  Biso   1.000  O
  O149     1.0000 0.79891  0.35132  0.53697  Biso   1.000  O
  O150     1.0000 0.21712  0.13204  0.59571  Biso   1.000  O
  O151     1.0000 0.17714  0.12733  0.53870  Biso   1.000  O
  O152     1.0000 0.01600  0.91695  0.03048  Biso   1.000  O
