data_image0
_cell_length_a       12.5764
_cell_length_b       12.5764
_cell_length_c       62.941
_cell_angle_alpha    90
_cell_angle_beta     90
_cell_angle_gamma    120

_symmetry_space_group_name_H-M    P 1
_symmetry_int_tables_number       1

loop_
  _symmetry_equiv_pos_as_xyz
  'x, y, z'

loop_
  _atom_site_label
  _atom_site_occupancy
  _atom_site_fract_x
  _atom_site_fract_y
  _atom_site_fract_z
  _atom_site_thermal_displace_type
  _atom_site_B_iso_or_equiv
  _atom_site_type_symbol
  Co1      1.0000 0.59425  0.18850  0.41667  Biso   1.000  Co
  Co2      1.0000 0.59425  0.40575  0.75000  Biso   1.000  Co
  Co3      1.0000 0.81150  0.40575  0.08333  Biso   1.000  Co
  Co4      1.0000 0.40575  0.81150  0.91667  Biso   1.000  Co
  Co5      1.0000 0.40575  0.59425  0.25000  Biso   1.000  Co
  Co6      1.0000 0.18850  0.59425  0.58333  Biso   1.000  Co
  Co7      1.0000 0.69638  0.34819  0.58333  Biso   1.000  Co
  Co8      1.0000 0.65181  0.30362  0.91667  Biso   1.000  Co
  Co9      1.0000 0.65181  0.34819  0.25000  Biso   1.000  Co
  Co10     1.0000 0.30362  0.65181  0.08333  Biso   1.000  Co
  Co11     1.0000 0.34819  0.69638  0.41667  Biso   1.000  Co
  Co12     1.0000 0.34819  0.65181  0.75000  Biso   1.000  Co
  H1       1.0000 0.97800  0.18000  0.43430  Biso   1.000  H
  H2       1.0000 0.97770  0.30170  0.43950  Biso   1.000  H
  H3       1.0000 0.90360  0.61360  0.52040  Biso   1.000  H
  H4       1.0000 0.01500  0.62240  0.53310  Biso   1.000  H
  H5       1.0000 0.94260  0.73050  0.47180  Biso   1.000  H
  H6       1.0000 0.00120  0.79330  0.45010  Biso   1.000  H
  H7       1.0000 0.59090  0.43380  0.41820  Biso   1.000  H
  H8       1.0000 0.62480  0.58800  0.44190  Biso   1.000  H
  H9       1.0000 0.66200  0.39210  0.48810  Biso   1.000  H
  H10      1.0000 0.62730  0.24420  0.46400  Biso   1.000  H
  H11      1.0000 0.69020  0.68190  0.47580  Biso   1.000  H
  H12      1.0000 0.75350  0.63090  0.49080  Biso   1.000  H
  H13      1.0000 0.56000  0.50140  0.50730  Biso   1.000  H
  H14      1.0000 0.62880  0.37330  0.62940  Biso   1.000  H
  H15      1.0000 0.47130  0.28270  0.65250  Biso   1.000  H
  H16      1.0000 0.29950  0.00270  0.61150  Biso   1.000  H
  H17      1.0000 0.46370  0.10180  0.58940  Biso   1.000  H
  H18      1.0000 0.23950  0.12550  0.65720  Biso   1.000  H
  H19      1.0000 0.18320  0.00840  0.64260  Biso   1.000  H
  H20      1.0000 0.30410  0.94230  0.65940  Biso   1.000  H
  H21      1.0000 0.90320  0.17970  0.47140  Biso   1.000  H
  H22      1.0000 0.88970  0.39350  0.52720  Biso   1.000  H
  H23      1.0000 0.97420  0.61510  0.43930  Biso   1.000  H
  H24      1.0000 0.21450  0.90770  0.49250  Biso   1.000  H
  H25      1.0000 0.46930  0.99540  0.43560  Biso   1.000  H
  H26      1.0000 0.39110  0.04210  0.43580  Biso   1.000  H
  H27      1.0000 0.73100  0.56070  0.58110  Biso   1.000  H
  H28      1.0000 0.75860  0.54210  0.60100  Biso   1.000  H
  H29      1.0000 0.20200  0.02200  0.76763  Biso   1.000  H
  H30      1.0000 0.32400  0.02230  0.77283  Biso   1.000  H
  H31      1.0000 0.71000  0.09640  0.85373  Biso   1.000  H
  H32      1.0000 0.60740  0.98500  0.86643  Biso   1.000  H
  H33      1.0000 0.78790  0.05740  0.80513  Biso   1.000  H
  H34      1.0000 0.79210  0.99880  0.78343  Biso   1.000  H
  H35      1.0000 0.84290  0.40910  0.75153  Biso   1.000  H
  H36      1.0000 0.96320  0.37520  0.77523  Biso   1.000  H
  H37      1.0000 0.73010  0.33800  0.82143  Biso   1.000  H
  H38      1.0000 0.61690  0.37270  0.79733  Biso   1.000  H
  H39      1.0000 0.99170  0.30980  0.80913  Biso   1.000  H
  H40      1.0000 0.87740  0.24650  0.82413  Biso   1.000  H
  H41      1.0000 0.94140  0.44000  0.84063  Biso   1.000  H
  H42      1.0000 0.74450  0.37120  0.96273  Biso   1.000  H
  H43      1.0000 0.81140  0.52870  0.98583  Biso   1.000  H
  H44      1.0000 0.70320  0.70050  0.94483  Biso   1.000  H
  H45      1.0000 0.63810  0.53630  0.92273  Biso   1.000  H
  H46      1.0000 0.88600  0.76050  0.99053  Biso   1.000  H
  H47      1.0000 0.82520  0.81680  0.97593  Biso   1.000  H
  H48      1.0000 0.63820  0.69590  0.99273  Biso   1.000  H
  H49      1.0000 0.27650  0.09680  0.80473  Biso   1.000  H
  H50      1.0000 0.50380  0.11030  0.86053  Biso   1.000  H
  H51      1.0000 0.64090  0.02580  0.77263  Biso   1.000  H
  H52      1.0000 0.69320  0.78550  0.82583  Biso   1.000  H
  H53      1.0000 0.52610  0.53070  0.76893  Biso   1.000  H
  H54      1.0000 0.65100  0.60890  0.76913  Biso   1.000  H
  H55      1.0000 0.82970  0.26900  0.91443  Biso   1.000  H
  H56      1.0000 0.78350  0.24140  0.93433  Biso   1.000  H
  H57      1.0000 0.82000  0.79800  0.10097  Biso   1.000  H
  H58      1.0000 0.69830  0.67600  0.10617  Biso   1.000  H
  H59      1.0000 0.38640  0.29000  0.18707  Biso   1.000  H
  H60      1.0000 0.37760  0.39260  0.19977  Biso   1.000  H
  H61      1.0000 0.26950  0.21210  0.13847  Biso   1.000  H
  H62      1.0000 0.20670  0.20790  0.11677  Biso   1.000  H
  H63      1.0000 0.56620  0.15710  0.08487  Biso   1.000  H
  H64      1.0000 0.41200  0.03680  0.10857  Biso   1.000  H
  H65      1.0000 0.60790  0.26990  0.15477  Biso   1.000  H
  H66      1.0000 0.75580  0.38310  0.13067  Biso   1.000  H
  H67      1.0000 0.31810  0.00830  0.14247  Biso   1.000  H
  H68      1.0000 0.36910  0.12260  0.15747  Biso   1.000  H
  H69      1.0000 0.49860  0.05860  0.17397  Biso   1.000  H
  H70      1.0000 0.62670  0.25550  0.29607  Biso   1.000  H
  H71      1.0000 0.71730  0.18860  0.31917  Biso   1.000  H
  H72      1.0000 0.99730  0.29680  0.27817  Biso   1.000  H
  H73      1.0000 0.89820  0.36190  0.25607  Biso   1.000  H
  H74      1.0000 0.87450  0.11400  0.32387  Biso   1.000  H
  H75      1.0000 0.99160  0.17480  0.30927  Biso   1.000  H
  H76      1.0000 0.05770  0.36180  0.32607  Biso   1.000  H
  H77      1.0000 0.82030  0.72350  0.13807  Biso   1.000  H
  H78      1.0000 0.60650  0.49620  0.19387  Biso   1.000  H
  H79      1.0000 0.38490  0.35910  0.10597  Biso   1.000  H
  H80      1.0000 0.09230  0.30680  0.15917  Biso   1.000  H
  H81      1.0000 0.00460  0.47390  0.10227  Biso   1.000  H
  H82      1.0000 0.95790  0.34900  0.10247  Biso   1.000  H
  H83      1.0000 0.43930  0.17030  0.24777  Biso   1.000  H
  H84      1.0000 0.45790  0.21650  0.26767  Biso   1.000  H
  H85      1.0000 0.02200  0.82000  0.93430  Biso   1.000  H
  H86      1.0000 0.02230  0.69830  0.93950  Biso   1.000  H
  H87      1.0000 0.09640  0.38640  0.02040  Biso   1.000  H
  H88      1.0000 0.98500  0.37760  0.03310  Biso   1.000  H
  H89      1.0000 0.05740  0.26950  0.97180  Biso   1.000  H
  H90      1.0000 0.99880  0.20670  0.95010  Biso   1.000  H
  H91      1.0000 0.40910  0.56620  0.91820  Biso   1.000  H
  H92      1.0000 0.37520  0.41200  0.94190  Biso   1.000  H
  H93      1.0000 0.33800  0.60790  0.98810  Biso   1.000  H
  H94      1.0000 0.37270  0.75580  0.96400  Biso   1.000  H
  H95      1.0000 0.30980  0.31810  0.97580  Biso   1.000  H
  H96      1.0000 0.24650  0.36910  0.99080  Biso   1.000  H
  H97      1.0000 0.44000  0.49860  0.00730  Biso   1.000  H
  H98      1.0000 0.37120  0.62670  0.12940  Biso   1.000  H
  H99      1.0000 0.52870  0.71730  0.15250  Biso   1.000  H
  H100     1.0000 0.70050  0.99730  0.11150  Biso   1.000  H
  H101     1.0000 0.53630  0.89820  0.08940  Biso   1.000  H
  H102     1.0000 0.76050  0.87450  0.15720  Biso   1.000  H
  H103     1.0000 0.81680  0.99160  0.14260  Biso   1.000  H
  H104     1.0000 0.69590  0.05770  0.15940  Biso   1.000  H
  H105     1.0000 0.09680  0.82030  0.97140  Biso   1.000  H
  H106     1.0000 0.11030  0.60650  0.02720  Biso   1.000  H
  H107     1.0000 0.02580  0.38490  0.93930  Biso   1.000  H
  H108     1.0000 0.78550  0.09230  0.99250  Biso   1.000  H
  H109     1.0000 0.53070  0.00460  0.93560  Biso   1.000  H
  H110     1.0000 0.60890  0.95790  0.93580  Biso   1.000  H
  H111     1.0000 0.26900  0.43930  0.08110  Biso   1.000  H
  H112     1.0000 0.24140  0.45790  0.10100  Biso   1.000  H
  H113     1.0000 0.79800  0.97800  0.26763  Biso   1.000  H
  H114     1.0000 0.67600  0.97770  0.27283  Biso   1.000  H
  H115     1.0000 0.29000  0.90360  0.35373  Biso   1.000  H
  H116     1.0000 0.39260  0.01500  0.36643  Biso   1.000  H
  H117     1.0000 0.21210  0.94260  0.30513  Biso   1.000  H
  H118     1.0000 0.20790  0.00120  0.28343  Biso   1.000  H
  H119     1.0000 0.15710  0.59090  0.25153  Biso   1.000  H
  H120     1.0000 0.03680  0.62480  0.27523  Biso   1.000  H
  H121     1.0000 0.26990  0.66200  0.32143  Biso   1.000  H
  H122     1.0000 0.38310  0.62730  0.29733  Biso   1.000  H
  H123     1.0000 0.00830  0.69020  0.30913  Biso   1.000  H
  H124     1.0000 0.12260  0.75350  0.32413  Biso   1.000  H
  H125     1.0000 0.05860  0.56000  0.34063  Biso   1.000  H
  H126     1.0000 0.25550  0.62880  0.46273  Biso   1.000  H
  H127     1.0000 0.18860  0.47130  0.48583  Biso   1.000  H
  H128     1.0000 0.29680  0.29950  0.44483  Biso   1.000  H
  H129     1.0000 0.36190  0.46370  0.42273  Biso   1.000  H
  H130     1.0000 0.11400  0.23950  0.49053  Biso   1.000  H
  H131     1.0000 0.17480  0.18320  0.47593  Biso   1.000  H
  H132     1.0000 0.36180  0.30410  0.49273  Biso   1.000  H
  H133     1.0000 0.72350  0.90320  0.30473  Biso   1.000  H
  H134     1.0000 0.49620  0.88970  0.36053  Biso   1.000  H
  H135     1.0000 0.35910  0.97420  0.27263  Biso   1.000  H
  H136     1.0000 0.30680  0.21450  0.32583  Biso   1.000  H
  H137     1.0000 0.47390  0.46930  0.26893  Biso   1.000  H
  H138     1.0000 0.34900  0.39110  0.26913  Biso   1.000  H
  H139     1.0000 0.17030  0.73100  0.41443  Biso   1.000  H
  H140     1.0000 0.21650  0.75860  0.43433  Biso   1.000  H
  H141     1.0000 0.18000  0.20200  0.60097  Biso   1.000  H
  H142     1.0000 0.30170  0.32400  0.60617  Biso   1.000  H
  H143     1.0000 0.61360  0.71000  0.68707  Biso   1.000  H
  H144     1.0000 0.62240  0.60740  0.69977  Biso   1.000  H
  H145     1.0000 0.73050  0.78790  0.63847  Biso   1.000  H
  H146     1.0000 0.79330  0.79210  0.61677  Biso   1.000  H
  H147     1.0000 0.43380  0.84290  0.58487  Biso   1.000  H
  H148     1.0000 0.58800  0.96320  0.60857  Biso   1.000  H
  H149     1.0000 0.39210  0.73010  0.65477  Biso   1.000  H
  H150     1.0000 0.24420  0.61690  0.63067  Biso   1.000  H
  H151     1.0000 0.68190  0.99170  0.64247  Biso   1.000  H
  H152     1.0000 0.63090  0.87740  0.65747  Biso   1.000  H
  H153     1.0000 0.50140  0.94140  0.67397  Biso   1.000  H
  H154     1.0000 0.37330  0.74450  0.79607  Biso   1.000  H
  H155     1.0000 0.28270  0.81140  0.81917  Biso   1.000  H
  H156     1.0000 0.00270  0.70320  0.77817  Biso   1.000  H
  H157     1.0000 0.10180  0.63810  0.75607  Biso   1.000  H
  H158     1.0000 0.12550  0.88600  0.82387  Biso   1.000  H
  H159     1.0000 0.00840  0.82520  0.80927  Biso   1.000  H
  H160     1.0000 0.94230  0.63820  0.82607  Biso   1.000  H
  H161     1.0000 0.17970  0.27650  0.63807  Biso   1.000  H
  H162     1.0000 0.39350  0.50380  0.69387  Biso   1.000  H
  H163     1.0000 0.61510  0.64090  0.60597  Biso   1.000  H
  H164     1.0000 0.90770  0.69320  0.65917  Biso   1.000  H
  H165     1.0000 0.99540  0.52610  0.60227  Biso   1.000  H
  H166     1.0000 0.04210  0.65100  0.60247  Biso   1.000  H
  H167     1.0000 0.56070  0.82970  0.74777  Biso   1.000  H
  H168     1.0000 0.54210  0.78350  0.76767  Biso   1.000  H
  H169     1.0000 0.79800  0.82000  0.89903  Biso   1.000  H
  H170     1.0000 0.67600  0.69830  0.89383  Biso   1.000  H
  H171     1.0000 0.29000  0.38640  0.81293  Biso   1.000  H
  H172     1.0000 0.39260  0.37760  0.80023  Biso   1.000  H
  H173     1.0000 0.21210  0.26950  0.86153  Biso   1.000  H
  H174     1.0000 0.20790  0.20670  0.88323  Biso   1.000  H
  H175     1.0000 0.15710  0.56620  0.91513  Biso   1.000  H
  H176     1.0000 0.03680  0.41200  0.89143  Biso   1.000  H
  H177     1.0000 0.26990  0.60790  0.84523  Biso   1.000  H
  H178     1.0000 0.38310  0.75580  0.86933  Biso   1.000  H
  H179     1.0000 0.00830  0.31810  0.85753  Biso   1.000  H
  H180     1.0000 0.12260  0.36910  0.84253  Biso   1.000  H
  H181     1.0000 0.05860  0.49860  0.82603  Biso   1.000  H
  H182     1.0000 0.25550  0.62670  0.70393  Biso   1.000  H
  H183     1.0000 0.18860  0.71730  0.68083  Biso   1.000  H
  H184     1.0000 0.29680  0.99730  0.72183  Biso   1.000  H
  H185     1.0000 0.36190  0.89820  0.74393  Biso   1.000  H
  H186     1.0000 0.11400  0.87450  0.67613  Biso   1.000  H
  H187     1.0000 0.17480  0.99160  0.69073  Biso   1.000  H
  H188     1.0000 0.36180  0.05770  0.67393  Biso   1.000  H
  H189     1.0000 0.72350  0.82030  0.86193  Biso   1.000  H
  H190     1.0000 0.49620  0.60650  0.80613  Biso   1.000  H
  H191     1.0000 0.35910  0.38490  0.89403  Biso   1.000  H
  H192     1.0000 0.30680  0.09230  0.84083  Biso   1.000  H
  H193     1.0000 0.47390  0.00460  0.89773  Biso   1.000  H
  H194     1.0000 0.34900  0.95790  0.89753  Biso   1.000  H
  H195     1.0000 0.17030  0.43930  0.75223  Biso   1.000  H
  H196     1.0000 0.21650  0.45790  0.73233  Biso   1.000  H
  H197     1.0000 0.18000  0.97800  0.56570  Biso   1.000  H
  H198     1.0000 0.30170  0.97770  0.56050  Biso   1.000  H
  H199     1.0000 0.61360  0.90360  0.47960  Biso   1.000  H
  H200     1.0000 0.62240  0.01500  0.46690  Biso   1.000  H
  H201     1.0000 0.73050  0.94260  0.52820  Biso   1.000  H
  H202     1.0000 0.79330  0.00120  0.54990  Biso   1.000  H
  H203     1.0000 0.43380  0.59090  0.58180  Biso   1.000  H
  H204     1.0000 0.58800  0.62480  0.55810  Biso   1.000  H
  H205     1.0000 0.39210  0.66200  0.51190  Biso   1.000  H
  H206     1.0000 0.24420  0.62730  0.53600  Biso   1.000  H
  H207     1.0000 0.68190  0.69020  0.52420  Biso   1.000  H
  H208     1.0000 0.63090  0.75350  0.50920  Biso   1.000  H
  H209     1.0000 0.50140  0.56000  0.49270  Biso   1.000  H
  H210     1.0000 0.37330  0.62880  0.37060  Biso   1.000  H
  H211     1.0000 0.28270  0.47130  0.34750  Biso   1.000  H
  H212     1.0000 0.00270  0.29950  0.38850  Biso   1.000  H
  H213     1.0000 0.10180  0.46370  0.41060  Biso   1.000  H
  H214     1.0000 0.12550  0.23950  0.34280  Biso   1.000  H
  H215     1.0000 0.00840  0.18320  0.35740  Biso   1.000  H
  H216     1.0000 0.94230  0.30410  0.34060  Biso   1.000  H
  H217     1.0000 0.17970  0.90320  0.52860  Biso   1.000  H
  H218     1.0000 0.39350  0.88970  0.47280  Biso   1.000  H
  H219     1.0000 0.61510  0.97420  0.56070  Biso   1.000  H
  H220     1.0000 0.90770  0.21450  0.50750  Biso   1.000  H
  H221     1.0000 0.99540  0.46930  0.56440  Biso   1.000  H
  H222     1.0000 0.04210  0.39110  0.56420  Biso   1.000  H
  H223     1.0000 0.56070  0.73100  0.41890  Biso   1.000  H
  H224     1.0000 0.54210  0.75860  0.39900  Biso   1.000  H
  H225     1.0000 0.02200  0.20200  0.23237  Biso   1.000  H
  H226     1.0000 0.02230  0.32400  0.22717  Biso   1.000  H
  H227     1.0000 0.09640  0.71000  0.14627  Biso   1.000  H
  H228     1.0000 0.98500  0.60740  0.13357  Biso   1.000  H
  H229     1.0000 0.05740  0.78790  0.19487  Biso   1.000  H
  H230     1.0000 0.99880  0.79210  0.21657  Biso   1.000  H
  H231     1.0000 0.40910  0.84290  0.24847  Biso   1.000  H
  H232     1.0000 0.37520  0.96320  0.22477  Biso   1.000  H
  H233     1.0000 0.33800  0.73010  0.17857  Biso   1.000  H
  H234     1.0000 0.37270  0.61690  0.20267  Biso   1.000  H
  H235     1.0000 0.30980  0.99170  0.19087  Biso   1.000  H
  H236     1.0000 0.24650  0.87740  0.17587  Biso   1.000  H
  H237     1.0000 0.44000  0.94140  0.15937  Biso   1.000  H
  H238     1.0000 0.37120  0.74450  0.03727  Biso   1.000  H
  H239     1.0000 0.52870  0.81140  0.01417  Biso   1.000  H
  H240     1.0000 0.70050  0.70320  0.05517  Biso   1.000  H
  H241     1.0000 0.53630  0.63810  0.07727  Biso   1.000  H
  H242     1.0000 0.76050  0.88600  0.00947  Biso   1.000  H
  H243     1.0000 0.81680  0.82520  0.02407  Biso   1.000  H
  H244     1.0000 0.69590  0.63820  0.00727  Biso   1.000  H
  H245     1.0000 0.09680  0.27650  0.19527  Biso   1.000  H
  H246     1.0000 0.11030  0.50380  0.13947  Biso   1.000  H
  H247     1.0000 0.02580  0.64090  0.22737  Biso   1.000  H
  H248     1.0000 0.78550  0.69320  0.17417  Biso   1.000  H
  H249     1.0000 0.53070  0.52610  0.23107  Biso   1.000  H
  H250     1.0000 0.60890  0.65100  0.23087  Biso   1.000  H
  H251     1.0000 0.26900  0.82970  0.08557  Biso   1.000  H
  H252     1.0000 0.24140  0.78350  0.06567  Biso   1.000  H
  H253     1.0000 0.20200  0.18000  0.39903  Biso   1.000  H
  H254     1.0000 0.32400  0.30170  0.39383  Biso   1.000  H
  H255     1.0000 0.71000  0.61360  0.31293  Biso   1.000  H
  H256     1.0000 0.60740  0.62240  0.30023  Biso   1.000  H
  H257     1.0000 0.78790  0.73050  0.36153  Biso   1.000  H
  H258     1.0000 0.79210  0.79330  0.38323  Biso   1.000  H
  H259     1.0000 0.84290  0.43380  0.41513  Biso   1.000  H
  H260     1.0000 0.96320  0.58800  0.39143  Biso   1.000  H
  H261     1.0000 0.73010  0.39210  0.34523  Biso   1.000  H
  H262     1.0000 0.61690  0.24420  0.36933  Biso   1.000  H
  H263     1.0000 0.99170  0.68190  0.35753  Biso   1.000  H
  H264     1.0000 0.87740  0.63090  0.34253  Biso   1.000  H
  H265     1.0000 0.94140  0.50140  0.32603  Biso   1.000  H
  H266     1.0000 0.74450  0.37330  0.20393  Biso   1.000  H
  H267     1.0000 0.81140  0.28270  0.18083  Biso   1.000  H
  H268     1.0000 0.70320  0.00270  0.22183  Biso   1.000  H
  H269     1.0000 0.63810  0.10180  0.24393  Biso   1.000  H
  H270     1.0000 0.88600  0.12550  0.17613  Biso   1.000  H
  H271     1.0000 0.82520  0.00840  0.19073  Biso   1.000  H
  H272     1.0000 0.63820  0.94230  0.17393  Biso   1.000  H
  H273     1.0000 0.27650  0.17970  0.36193  Biso   1.000  H
  H274     1.0000 0.50380  0.39350  0.30613  Biso   1.000  H
  H275     1.0000 0.64090  0.61510  0.39403  Biso   1.000  H
  H276     1.0000 0.69320  0.90770  0.34083  Biso   1.000  H
  H277     1.0000 0.52610  0.99540  0.39773  Biso   1.000  H
  H278     1.0000 0.65100  0.04210  0.39753  Biso   1.000  H
  H279     1.0000 0.82970  0.56070  0.25223  Biso   1.000  H
  H280     1.0000 0.78350  0.54210  0.23233  Biso   1.000  H
  H281     1.0000 0.82000  0.02200  0.06570  Biso   1.000  H
  H282     1.0000 0.69830  0.02230  0.06050  Biso   1.000  H
  H283     1.0000 0.38640  0.09640  0.97960  Biso   1.000  H
  H284     1.0000 0.37760  0.98500  0.96690  Biso   1.000  H
  H285     1.0000 0.26950  0.05740  0.02820  Biso   1.000  H
  H286     1.0000 0.20670  0.99880  0.04990  Biso   1.000  H
  H287     1.0000 0.56620  0.40910  0.08180  Biso   1.000  H
  H288     1.0000 0.41200  0.37520  0.05810  Biso   1.000  H
  H289     1.0000 0.60790  0.33800  0.01190  Biso   1.000  H
  H290     1.0000 0.75580  0.37270  0.03600  Biso   1.000  H
  H291     1.0000 0.31810  0.30980  0.02420  Biso   1.000  H
  H292     1.0000 0.36910  0.24650  0.00920  Biso   1.000  H
  H293     1.0000 0.49860  0.44000  0.99270  Biso   1.000  H
  H294     1.0000 0.62670  0.37120  0.87060  Biso   1.000  H
  H295     1.0000 0.71730  0.52870  0.84750  Biso   1.000  H
  H296     1.0000 0.99730  0.70050  0.88850  Biso   1.000  H
  H297     1.0000 0.89820  0.53630  0.91060  Biso   1.000  H
  H298     1.0000 0.87450  0.76050  0.84280  Biso   1.000  H
  H299     1.0000 0.99160  0.81680  0.85740  Biso   1.000  H
  H300     1.0000 0.05770  0.69590  0.84060  Biso   1.000  H
  H301     1.0000 0.82030  0.09680  0.02860  Biso   1.000  H
  H302     1.0000 0.60650  0.11030  0.97280  Biso   1.000  H
  H303     1.0000 0.38490  0.02580  0.06070  Biso   1.000  H
  H304     1.0000 0.09230  0.78550  0.00750  Biso   1.000  H
  H305     1.0000 0.00460  0.53070  0.06440  Biso   1.000  H
  H306     1.0000 0.95790  0.60890  0.06420  Biso   1.000  H
  H307     1.0000 0.43930  0.26900  0.91890  Biso   1.000  H
  H308     1.0000 0.45790  0.24140  0.89900  Biso   1.000  H
  H309     1.0000 0.97800  0.79800  0.73237  Biso   1.000  H
  H310     1.0000 0.97770  0.67600  0.72717  Biso   1.000  H
  H311     1.0000 0.90360  0.29000  0.64627  Biso   1.000  H
  H312     1.0000 0.01500  0.39260  0.63357  Biso   1.000  H
  H313     1.0000 0.94260  0.21210  0.69487  Biso   1.000  H
  H314     1.0000 0.00120  0.20790  0.71657  Biso   1.000  H
  H315     1.0000 0.59090  0.15710  0.74847  Biso   1.000  H
  H316     1.0000 0.62480  0.03680  0.72477  Biso   1.000  H
  H317     1.0000 0.66200  0.26990  0.67857  Biso   1.000  H
  H318     1.0000 0.62730  0.38310  0.70267  Biso   1.000  H
  H319     1.0000 0.69020  0.00830  0.69087  Biso   1.000  H
  H320     1.0000 0.75350  0.12260  0.67587  Biso   1.000  H
  H321     1.0000 0.56000  0.05860  0.65937  Biso   1.000  H
  H322     1.0000 0.62880  0.25550  0.53727  Biso   1.000  H
  H323     1.0000 0.47130  0.18860  0.51417  Biso   1.000  H
  H324     1.0000 0.29950  0.29680  0.55517  Biso   1.000  H
  H325     1.0000 0.46370  0.36190  0.57727  Biso   1.000  H
  H326     1.0000 0.23950  0.11400  0.50947  Biso   1.000  H
  H327     1.0000 0.18320  0.17480  0.52407  Biso   1.000  H
  H328     1.0000 0.30410  0.36180  0.50727  Biso   1.000  H
  H329     1.0000 0.90320  0.72350  0.69527  Biso   1.000  H
  H330     1.0000 0.88970  0.49620  0.63947  Biso   1.000  H
  H331     1.0000 0.97420  0.35910  0.72737  Biso   1.000  H
  H332     1.0000 0.21450  0.30680  0.67417  Biso   1.000  H
  H333     1.0000 0.46930  0.47390  0.73107  Biso   1.000  H
  H334     1.0000 0.39110  0.34900  0.73087  Biso   1.000  H
  H335     1.0000 0.73100  0.17030  0.58557  Biso   1.000  H
  H336     1.0000 0.75860  0.21650  0.56567  Biso   1.000  H
  C1       1.0000 0.92330  0.33840  0.46900  Biso   1.000  C
  C2       1.0000 0.92470  0.45120  0.49875  Biso   1.000  C
  C3       1.0000 0.95920  0.53150  0.46552  Biso   1.000  C
  C4       1.0000 0.92980  0.21360  0.43973  Biso   1.000  C
  C5       1.0000 0.81770  0.17210  0.42601  Biso   1.000  C
  C6       1.0000 0.92850  0.56970  0.52994  Biso   1.000  C
  C7       1.0000 0.85560  0.54140  0.55026  Biso   1.000  C
  C8       1.0000 0.00530  0.74350  0.46144  Biso   1.000  C
  C9       1.0000 0.13060  0.81360  0.47203  Biso   1.000  C
  C10      1.0000 0.60580  0.42510  0.43239  Biso   1.000  C
  C11      1.0000 0.62670  0.51900  0.44667  Biso   1.000  C
  C12      1.0000 0.65040  0.50980  0.46794  Biso   1.000  C
  C13      1.0000 0.64860  0.40340  0.47396  Biso   1.000  C
  C14      1.0000 0.62740  0.31450  0.45941  Biso   1.000  C
  C15      1.0000 0.67760  0.60980  0.48349  Biso   1.000  C
  C16      1.0000 0.56100  0.29880  0.62554  Biso   1.000  C
  C17      1.0000 0.46670  0.24480  0.63963  Biso   1.000  C
  C18      1.0000 0.36350  0.13310  0.63479  Biso   1.000  C
  C19      1.0000 0.36490  0.07880  0.61537  Biso   1.000  C
  C20      1.0000 0.46410  0.13970  0.60214  Biso   1.000  C
  C21      1.0000 0.25630  0.06650  0.65030  Biso   1.000  C
  C22      1.0000 0.41510  0.07670  0.80233  Biso   1.000  C
  C23      1.0000 0.52650  0.07530  0.83208  Biso   1.000  C
  C24      1.0000 0.57230  0.04080  0.79885  Biso   1.000  C
  C25      1.0000 0.28380  0.07020  0.77306  Biso   1.000  C
  C26      1.0000 0.35440  0.18230  0.75934  Biso   1.000  C
  C27      1.0000 0.64120  0.07150  0.86327  Biso   1.000  C
  C28      1.0000 0.68580  0.14440  0.88359  Biso   1.000  C
  C29      1.0000 0.73820  0.99470  0.79477  Biso   1.000  C
  C30      1.0000 0.68300  0.86940  0.80536  Biso   1.000  C
  C31      1.0000 0.81930  0.39420  0.76572  Biso   1.000  C
  C32      1.0000 0.89230  0.37330  0.78000  Biso   1.000  C
  C33      1.0000 0.85940  0.34960  0.80127  Biso   1.000  C
  C34      1.0000 0.75480  0.35140  0.80729  Biso   1.000  C
  C35      1.0000 0.68710  0.37260  0.79274  Biso   1.000  C
  C36      1.0000 0.93220  0.32240  0.81682  Biso   1.000  C
  C37      1.0000 0.73780  0.43900  0.95887  Biso   1.000  C
  C38      1.0000 0.77810  0.53330  0.97296  Biso   1.000  C
  C39      1.0000 0.76960  0.63650  0.96812  Biso   1.000  C
  C40      1.0000 0.71390  0.63510  0.94870  Biso   1.000  C
  C41      1.0000 0.67560  0.53590  0.93547  Biso   1.000  C
  C42      1.0000 0.81020  0.74370  0.98363  Biso   1.000  C
  C43      1.0000 0.66160  0.58490  0.13567  Biso   1.000  C
  C44      1.0000 0.54880  0.47350  0.16542  Biso   1.000  C
  C45      1.0000 0.46850  0.42770  0.13219  Biso   1.000  C
  C46      1.0000 0.78640  0.71620  0.10640  Biso   1.000  C
  C47      1.0000 0.82790  0.64560  0.09268  Biso   1.000  C
  C48      1.0000 0.43030  0.35880  0.19661  Biso   1.000  C
  C49      1.0000 0.45860  0.31420  0.21693  Biso   1.000  C
  C50      1.0000 0.25650  0.26180  0.12811  Biso   1.000  C
  C51      1.0000 0.18640  0.31700  0.13870  Biso   1.000  C
  C52      1.0000 0.57490  0.18070  0.09906  Biso   1.000  C
  C53      1.0000 0.48100  0.10770  0.11334  Biso   1.000  C
  C54      1.0000 0.49020  0.14060  0.13461  Biso   1.000  C
  C55      1.0000 0.59660  0.24520  0.14063  Biso   1.000  C
  C56      1.0000 0.68550  0.31290  0.12608  Biso   1.000  C
  C57      1.0000 0.39020  0.06780  0.15016  Biso   1.000  C
  C58      1.0000 0.70120  0.26220  0.29221  Biso   1.000  C
  C59      1.0000 0.75520  0.22190  0.30630  Biso   1.000  C
  C60      1.0000 0.86690  0.23040  0.30146  Biso   1.000  C
  C61      1.0000 0.92120  0.28610  0.28204  Biso   1.000  C
  C62      1.0000 0.86030  0.32440  0.26881  Biso   1.000  C
  C63      1.0000 0.93350  0.18980  0.31697  Biso   1.000  C
  C64      1.0000 0.07670  0.66160  0.96900  Biso   1.000  C
  C65      1.0000 0.07530  0.54880  0.99875  Biso   1.000  C
  C66      1.0000 0.04080  0.46850  0.96552  Biso   1.000  C
  C67      1.0000 0.07020  0.78640  0.93973  Biso   1.000  C
  C68      1.0000 0.18230  0.82790  0.92601  Biso   1.000  C
  C69      1.0000 0.07150  0.43030  0.02994  Biso   1.000  C
  C70      1.0000 0.14440  0.45860  0.05026  Biso   1.000  C
  C71      1.0000 0.99470  0.25650  0.96144  Biso   1.000  C
  C72      1.0000 0.86940  0.18640  0.97203  Biso   1.000  C
  C73      1.0000 0.39420  0.57490  0.93239  Biso   1.000  C
  C74      1.0000 0.37330  0.48100  0.94667  Biso   1.000  C
  C75      1.0000 0.34960  0.49020  0.96794  Biso   1.000  C
  C76      1.0000 0.35140  0.59660  0.97396  Biso   1.000  C
  C77      1.0000 0.37260  0.68550  0.95941  Biso   1.000  C
  C78      1.0000 0.32240  0.39020  0.98349  Biso   1.000  C
  C79      1.0000 0.43900  0.70120  0.12554  Biso   1.000  C
  C80      1.0000 0.53330  0.75520  0.13963  Biso   1.000  C
  C81      1.0000 0.63650  0.86690  0.13479  Biso   1.000  C
  C82      1.0000 0.63510  0.92120  0.11537  Biso   1.000  C
  C83      1.0000 0.53590  0.86030  0.10214  Biso   1.000  C
  C84      1.0000 0.74370  0.93350  0.15030  Biso   1.000  C
  C85      1.0000 0.58490  0.92330  0.30233  Biso   1.000  C
  C86      1.0000 0.47350  0.92470  0.33208  Biso   1.000  C
  C87      1.0000 0.42770  0.95920  0.29885  Biso   1.000  C
  C88      1.0000 0.71620  0.92980  0.27306  Biso   1.000  C
  C89      1.0000 0.64560  0.81770  0.25934  Biso   1.000  C
  C90      1.0000 0.35880  0.92850  0.36327  Biso   1.000  C
  C91      1.0000 0.31420  0.85560  0.38359  Biso   1.000  C
  C92      1.0000 0.26180  0.00530  0.29477  Biso   1.000  C
  C93      1.0000 0.31700  0.13060  0.30536  Biso   1.000  C
  C94      1.0000 0.18070  0.60580  0.26572  Biso   1.000  C
  C95      1.0000 0.10770  0.62670  0.28000  Biso   1.000  C
  C96      1.0000 0.14060  0.65040  0.30127  Biso   1.000  C
  C97      1.0000 0.24520  0.64860  0.30729  Biso   1.000  C
  C98      1.0000 0.31290  0.62740  0.29274  Biso   1.000  C
  C99      1.0000 0.06780  0.67760  0.31682  Biso   1.000  C
  C100     1.0000 0.26220  0.56100  0.45887  Biso   1.000  C
  C101     1.0000 0.22190  0.46670  0.47296  Biso   1.000  C
  C102     1.0000 0.23040  0.36350  0.46812  Biso   1.000  C
  C103     1.0000 0.28610  0.36490  0.44870  Biso   1.000  C
  C104     1.0000 0.32440  0.46410  0.43547  Biso   1.000  C
  C105     1.0000 0.18980  0.25630  0.48363  Biso   1.000  C
  C106     1.0000 0.33840  0.41510  0.63567  Biso   1.000  C
  C107     1.0000 0.45120  0.52650  0.66542  Biso   1.000  C
  C108     1.0000 0.53150  0.57230  0.63219  Biso   1.000  C
  C109     1.0000 0.21360  0.28380  0.60640  Biso   1.000  C
  C110     1.0000 0.17210  0.35440  0.59268  Biso   1.000  C
  C111     1.0000 0.56970  0.64120  0.69661  Biso   1.000  C
  C112     1.0000 0.54140  0.68580  0.71693  Biso   1.000  C
  C113     1.0000 0.74350  0.73820  0.62811  Biso   1.000  C
  C114     1.0000 0.81360  0.68300  0.63870  Biso   1.000  C
  C115     1.0000 0.42510  0.81930  0.59906  Biso   1.000  C
  C116     1.0000 0.51900  0.89230  0.61334  Biso   1.000  C
  C117     1.0000 0.50980  0.85940  0.63461  Biso   1.000  C
  C118     1.0000 0.40340  0.75480  0.64063  Biso   1.000  C
  C119     1.0000 0.31450  0.68710  0.62608  Biso   1.000  C
  C120     1.0000 0.60980  0.93220  0.65016  Biso   1.000  C
  C121     1.0000 0.29880  0.73780  0.79221  Biso   1.000  C
  C122     1.0000 0.24480  0.77810  0.80630  Biso   1.000  C
  C123     1.0000 0.13310  0.76960  0.80146  Biso   1.000  C
  C124     1.0000 0.07880  0.71390  0.78204  Biso   1.000  C
  C125     1.0000 0.13970  0.67560  0.76881  Biso   1.000  C
  C126     1.0000 0.06650  0.81020  0.81697  Biso   1.000  C
  C127     1.0000 0.58490  0.66160  0.86433  Biso   1.000  C
  C128     1.0000 0.47350  0.54880  0.83458  Biso   1.000  C
  C129     1.0000 0.42770  0.46850  0.86781  Biso   1.000  C
  C130     1.0000 0.71620  0.78640  0.89360  Biso   1.000  C
  C131     1.0000 0.64560  0.82790  0.90732  Biso   1.000  C
  C132     1.0000 0.35880  0.43030  0.80339  Biso   1.000  C
  C133     1.0000 0.31420  0.45860  0.78307  Biso   1.000  C
  C134     1.0000 0.26180  0.25650  0.87189  Biso   1.000  C
  C135     1.0000 0.31700  0.18640  0.86130  Biso   1.000  C
  C136     1.0000 0.18070  0.57490  0.90094  Biso   1.000  C
  C137     1.0000 0.10770  0.48100  0.88666  Biso   1.000  C
  C138     1.0000 0.14060  0.49020  0.86539  Biso   1.000  C
  C139     1.0000 0.24520  0.59660  0.85937  Biso   1.000  C
  C140     1.0000 0.31290  0.68550  0.87392  Biso   1.000  C
  C141     1.0000 0.06780  0.39020  0.84984  Biso   1.000  C
  C142     1.0000 0.26220  0.70120  0.70779  Biso   1.000  C
  C143     1.0000 0.22190  0.75520  0.69370  Biso   1.000  C
  C144     1.0000 0.23040  0.86690  0.69854  Biso   1.000  C
  C145     1.0000 0.28610  0.92120  0.71796  Biso   1.000  C
  C146     1.0000 0.32440  0.86030  0.73119  Biso   1.000  C
  C147     1.0000 0.18980  0.93350  0.68303  Biso   1.000  C
  C148     1.0000 0.33840  0.92330  0.53100  Biso   1.000  C
  C149     1.0000 0.45120  0.92470  0.50125  Biso   1.000  C
  C150     1.0000 0.53150  0.95920  0.53448  Biso   1.000  C
  C151     1.0000 0.21360  0.92980  0.56027  Biso   1.000  C
  C152     1.0000 0.17210  0.81770  0.57399  Biso   1.000  C
  C153     1.0000 0.56970  0.92850  0.47006  Biso   1.000  C
  C154     1.0000 0.54140  0.85560  0.44974  Biso   1.000  C
  C155     1.0000 0.74350  0.00530  0.53856  Biso   1.000  C
  C156     1.0000 0.81360  0.13060  0.52797  Biso   1.000  C
  C157     1.0000 0.42510  0.60580  0.56761  Biso   1.000  C
  C158     1.0000 0.51900  0.62670  0.55333  Biso   1.000  C
  C159     1.0000 0.50980  0.65040  0.53206  Biso   1.000  C
  C160     1.0000 0.40340  0.64860  0.52604  Biso   1.000  C
  C161     1.0000 0.31450  0.62740  0.54059  Biso   1.000  C
  C162     1.0000 0.60980  0.67760  0.51651  Biso   1.000  C
  C163     1.0000 0.29880  0.56100  0.37446  Biso   1.000  C
  C164     1.0000 0.24480  0.46670  0.36037  Biso   1.000  C
  C165     1.0000 0.13310  0.36350  0.36521  Biso   1.000  C
  C166     1.0000 0.07880  0.36490  0.38463  Biso   1.000  C
  C167     1.0000 0.13970  0.46410  0.39786  Biso   1.000  C
  C168     1.0000 0.06650  0.25630  0.34970  Biso   1.000  C
  C169     1.0000 0.07670  0.41510  0.19767  Biso   1.000  C
  C170     1.0000 0.07530  0.52650  0.16792  Biso   1.000  C
  C171     1.0000 0.04080  0.57230  0.20115  Biso   1.000  C
  C172     1.0000 0.07020  0.28380  0.22694  Biso   1.000  C
  C173     1.0000 0.18230  0.35440  0.24066  Biso   1.000  C
  C174     1.0000 0.07150  0.64120  0.13673  Biso   1.000  C
  C175     1.0000 0.14440  0.68580  0.11641  Biso   1.000  C
  C176     1.0000 0.99470  0.73820  0.20523  Biso   1.000  C
  C177     1.0000 0.86940  0.68300  0.19464  Biso   1.000  C
  C178     1.0000 0.39420  0.81930  0.23428  Biso   1.000  C
  C179     1.0000 0.37330  0.89230  0.22000  Biso   1.000  C
  C180     1.0000 0.34960  0.85940  0.19873  Biso   1.000  C
  C181     1.0000 0.35140  0.75480  0.19271  Biso   1.000  C
  C182     1.0000 0.37260  0.68710  0.20726  Biso   1.000  C
  C183     1.0000 0.32240  0.93220  0.18318  Biso   1.000  C
  C184     1.0000 0.43900  0.73780  0.04113  Biso   1.000  C
  C185     1.0000 0.53330  0.77810  0.02704  Biso   1.000  C
  C186     1.0000 0.63650  0.76960  0.03188  Biso   1.000  C
  C187     1.0000 0.63510  0.71390  0.05130  Biso   1.000  C
  C188     1.0000 0.53590  0.67560  0.06453  Biso   1.000  C
  C189     1.0000 0.74370  0.81020  0.01637  Biso   1.000  C
  C190     1.0000 0.41510  0.33840  0.36433  Biso   1.000  C
  C191     1.0000 0.52650  0.45120  0.33458  Biso   1.000  C
  C192     1.0000 0.57230  0.53150  0.36781  Biso   1.000  C
  C193     1.0000 0.28380  0.21360  0.39360  Biso   1.000  C
  C194     1.0000 0.35440  0.17210  0.40732  Biso   1.000  C
  C195     1.0000 0.64120  0.56970  0.30339  Biso   1.000  C
  C196     1.0000 0.68580  0.54140  0.28307  Biso   1.000  C
  C197     1.0000 0.73820  0.74350  0.37189  Biso   1.000  C
  C198     1.0000 0.68300  0.81360  0.36130  Biso   1.000  C
  C199     1.0000 0.81930  0.42510  0.40094  Biso   1.000  C
  C200     1.0000 0.89230  0.51900  0.38666  Biso   1.000  C
  C201     1.0000 0.85940  0.50980  0.36539  Biso   1.000  C
  C202     1.0000 0.75480  0.40340  0.35937  Biso   1.000  C
  C203     1.0000 0.68710  0.31450  0.37392  Biso   1.000  C
  C204     1.0000 0.93220  0.60980  0.34984  Biso   1.000  C
  C205     1.0000 0.73780  0.29880  0.20779  Biso   1.000  C
  C206     1.0000 0.77810  0.24480  0.19370  Biso   1.000  C
  C207     1.0000 0.76960  0.13310  0.19854  Biso   1.000  C
  C208     1.0000 0.71390  0.07880  0.21796  Biso   1.000  C
  C209     1.0000 0.67560  0.13970  0.23119  Biso   1.000  C
  C210     1.0000 0.81020  0.06650  0.18303  Biso   1.000  C
  C211     1.0000 0.66160  0.07670  0.03100  Biso   1.000  C
  C212     1.0000 0.54880  0.07530  0.00125  Biso   1.000  C
  C213     1.0000 0.46850  0.04080  0.03448  Biso   1.000  C
  C214     1.0000 0.78640  0.07020  0.06027  Biso   1.000  C
  C215     1.0000 0.82790  0.18230  0.07399  Biso   1.000  C
  C216     1.0000 0.43030  0.07150  0.97006  Biso   1.000  C
  C217     1.0000 0.45860  0.14440  0.94974  Biso   1.000  C
  C218     1.0000 0.25650  0.99470  0.03856  Biso   1.000  C
  C219     1.0000 0.18640  0.86940  0.02797  Biso   1.000  C
  C220     1.0000 0.57490  0.39420  0.06761  Biso   1.000  C
  C221     1.0000 0.48100  0.37330  0.05333  Biso   1.000  C
  C222     1.0000 0.49020  0.34960  0.03206  Biso   1.000  C
  C223     1.0000 0.59660  0.35140  0.02604  Biso   1.000  C
  C224     1.0000 0.68550  0.37260  0.04059  Biso   1.000  C
  C225     1.0000 0.39020  0.32240  0.01651  Biso   1.000  C
  C226     1.0000 0.70120  0.43900  0.87446  Biso   1.000  C
  C227     1.0000 0.75520  0.53330  0.86037  Biso   1.000  C
  C228     1.0000 0.86690  0.63650  0.86521  Biso   1.000  C
  C229     1.0000 0.92120  0.63510  0.88463  Biso   1.000  C
  C230     1.0000 0.86030  0.53590  0.89786  Biso   1.000  C
  C231     1.0000 0.93350  0.74370  0.84970  Biso   1.000  C
  C232     1.0000 0.92330  0.58490  0.69767  Biso   1.000  C
  C233     1.0000 0.92470  0.47350  0.66792  Biso   1.000  C
  C234     1.0000 0.95920  0.42770  0.70115  Biso   1.000  C
  C235     1.0000 0.92980  0.71620  0.72694  Biso   1.000  C
  C236     1.0000 0.81770  0.64560  0.74066  Biso   1.000  C
  C237     1.0000 0.92850  0.35880  0.63673  Biso   1.000  C
  C238     1.0000 0.85560  0.31420  0.61641  Biso   1.000  C
  C239     1.0000 0.00530  0.26180  0.70523  Biso   1.000  C
  C240     1.0000 0.13060  0.31700  0.69464  Biso   1.000  C
  C241     1.0000 0.60580  0.18070  0.73428  Biso   1.000  C
  C242     1.0000 0.62670  0.10770  0.72000  Biso   1.000  C
  C243     1.0000 0.65040  0.14060  0.69873  Biso   1.000  C
  C244     1.0000 0.64860  0.24520  0.69271  Biso   1.000  C
  C245     1.0000 0.62740  0.31290  0.70726  Biso   1.000  C
  C246     1.0000 0.67760  0.06780  0.68318  Biso   1.000  C
  C247     1.0000 0.56100  0.26220  0.54113  Biso   1.000  C
  C248     1.0000 0.46670  0.22190  0.52704  Biso   1.000  C
  C249     1.0000 0.36350  0.23040  0.53188  Biso   1.000  C
  C250     1.0000 0.36490  0.28610  0.55130  Biso   1.000  C
  C251     1.0000 0.46410  0.32440  0.56453  Biso   1.000  C
  C252     1.0000 0.25630  0.18980  0.51637  Biso   1.000  C
  C253     1.0000 0.57630  0.57630  0.50000  Biso   1.000  C
  C254     1.0000 0.00000  0.42370  0.83333  Biso   1.000  C
  C255     1.0000 0.42370  0.00000  0.16667  Biso   1.000  C
  C256     1.0000 0.42370  0.42370  0.00000  Biso   1.000  C
  C257     1.0000 0.00000  0.57630  0.33333  Biso   1.000  C
  C258     1.0000 0.57630  0.00000  0.66667  Biso   1.000  C
  C259     1.0000 0.28770  0.00000  0.66667  Biso   1.000  C
  C260     1.0000 0.71230  0.71230  0.00000  Biso   1.000  C
  C261     1.0000 0.00000  0.28770  0.33333  Biso   1.000  C
  C262     1.0000 0.71230  0.00000  0.16667  Biso   1.000  C
  C263     1.0000 0.28770  0.28770  0.50000  Biso   1.000  C
  C264     1.0000 0.00000  0.71230  0.83333  Biso   1.000  C
  N1       1.0000 0.94710  0.42990  0.45595  Biso   1.000  N
  N2       1.0000 0.90890  0.34350  0.49086  Biso   1.000  N
  N3       1.0000 0.95140  0.54930  0.48672  Biso   1.000  N
  N4       1.0000 0.91630  0.23590  0.46225  Biso   1.000  N
  N5       1.0000 0.91040  0.45770  0.51953  Biso   1.000  N
  N6       1.0000 0.97820  0.62530  0.45280  Biso   1.000  N
  N7       1.0000 0.60630  0.32350  0.43835  Biso   1.000  N
  N8       1.0000 0.56270  0.25130  0.60635  Biso   1.000  N
  N9       1.0000 0.48280  0.05290  0.78928  Biso   1.000  N
  N10      1.0000 0.43460  0.09110  0.82419  Biso   1.000  N
  N11      1.0000 0.59790  0.04860  0.82005  Biso   1.000  N
  N12      1.0000 0.31960  0.08370  0.79558  Biso   1.000  N
  N13      1.0000 0.54730  0.08960  0.85286  Biso   1.000  N
  N14      1.0000 0.64710  0.02180  0.78613  Biso   1.000  N
  N15      1.0000 0.71720  0.39370  0.77168  Biso   1.000  N
  N16      1.0000 0.68860  0.43730  0.93968  Biso   1.000  N
  N17      1.0000 0.57010  0.51720  0.12262  Biso   1.000  N
  N18      1.0000 0.65650  0.56540  0.15753  Biso   1.000  N
  N19      1.0000 0.45070  0.40210  0.15339  Biso   1.000  N
  N20      1.0000 0.76410  0.68040  0.12892  Biso   1.000  N
  N21      1.0000 0.54230  0.45270  0.18620  Biso   1.000  N
  N22      1.0000 0.37470  0.35290  0.11947  Biso   1.000  N
  N23      1.0000 0.67650  0.28280  0.10502  Biso   1.000  N
  N24      1.0000 0.74870  0.31140  0.27302  Biso   1.000  N
  N25      1.0000 0.05290  0.57010  0.95595  Biso   1.000  N
  N26      1.0000 0.09110  0.65650  0.99086  Biso   1.000  N
  N27      1.0000 0.04860  0.45070  0.98672  Biso   1.000  N
  N28      1.0000 0.08370  0.76410  0.96225  Biso   1.000  N
  N29      1.0000 0.08960  0.54230  0.01953  Biso   1.000  N
  N30      1.0000 0.02180  0.37470  0.95280  Biso   1.000  N
  N31      1.0000 0.39370  0.67650  0.93835  Biso   1.000  N
  N32      1.0000 0.43730  0.74870  0.10635  Biso   1.000  N
  N33      1.0000 0.51720  0.94710  0.28928  Biso   1.000  N
  N34      1.0000 0.56540  0.90890  0.32419  Biso   1.000  N
  N35      1.0000 0.40210  0.95140  0.32005  Biso   1.000  N
  N36      1.0000 0.68040  0.91630  0.29558  Biso   1.000  N
  N37      1.0000 0.45270  0.91040  0.35286  Biso   1.000  N
  N38      1.0000 0.35290  0.97820  0.28613  Biso   1.000  N
  N39      1.0000 0.28280  0.60630  0.27168  Biso   1.000  N
  N40      1.0000 0.31140  0.56270  0.43968  Biso   1.000  N
  N41      1.0000 0.42990  0.48280  0.62262  Biso   1.000  N
  N42      1.0000 0.34350  0.43460  0.65753  Biso   1.000  N
  N43      1.0000 0.54930  0.59790  0.65339  Biso   1.000  N
  N44      1.0000 0.23590  0.31960  0.62892  Biso   1.000  N
  N45      1.0000 0.45770  0.54730  0.68620  Biso   1.000  N
  N46      1.0000 0.62530  0.64710  0.61947  Biso   1.000  N
  N47      1.0000 0.32350  0.71720  0.60502  Biso   1.000  N
  N48      1.0000 0.25130  0.68860  0.77302  Biso   1.000  N
  N49      1.0000 0.51720  0.57010  0.87738  Biso   1.000  N
  N50      1.0000 0.56540  0.65650  0.84247  Biso   1.000  N
  N51      1.0000 0.40210  0.45070  0.84661  Biso   1.000  N
  N52      1.0000 0.68040  0.76410  0.87108  Biso   1.000  N
  N53      1.0000 0.45270  0.54230  0.81380  Biso   1.000  N
  N54      1.0000 0.35290  0.37470  0.88053  Biso   1.000  N
  N55      1.0000 0.28280  0.67650  0.89498  Biso   1.000  N
  N56      1.0000 0.31140  0.74870  0.72698  Biso   1.000  N
  N57      1.0000 0.42990  0.94710  0.54405  Biso   1.000  N
  N58      1.0000 0.34350  0.90890  0.50914  Biso   1.000  N
  N59      1.0000 0.54930  0.95140  0.51328  Biso   1.000  N
  N60      1.0000 0.23590  0.91630  0.53775  Biso   1.000  N
  N61      1.0000 0.45770  0.91040  0.48047  Biso   1.000  N
  N62      1.0000 0.62530  0.97820  0.54720  Biso   1.000  N
  N63      1.0000 0.32350  0.60630  0.56165  Biso   1.000  N
  N64      1.0000 0.25130  0.56270  0.39365  Biso   1.000  N
  N65      1.0000 0.05290  0.48280  0.21072  Biso   1.000  N
  N66      1.0000 0.09110  0.43460  0.17581  Biso   1.000  N
  N67      1.0000 0.04860  0.59790  0.17995  Biso   1.000  N
  N68      1.0000 0.08370  0.31960  0.20442  Biso   1.000  N
  N69      1.0000 0.08960  0.54730  0.14714  Biso   1.000  N
  N70      1.0000 0.02180  0.64710  0.21387  Biso   1.000  N
  N71      1.0000 0.39370  0.71720  0.22832  Biso   1.000  N
  N72      1.0000 0.43730  0.68860  0.06032  Biso   1.000  N
  N73      1.0000 0.48280  0.42990  0.37738  Biso   1.000  N
  N74      1.0000 0.43460  0.34350  0.34247  Biso   1.000  N
  N75      1.0000 0.59790  0.54930  0.34661  Biso   1.000  N
  N76      1.0000 0.31960  0.23590  0.37108  Biso   1.000  N
  N77      1.0000 0.54730  0.45770  0.31380  Biso   1.000  N
  N78      1.0000 0.64710  0.62530  0.38053  Biso   1.000  N
  N79      1.0000 0.71720  0.32350  0.39498  Biso   1.000  N
  N80      1.0000 0.68860  0.25130  0.22698  Biso   1.000  N
  N81      1.0000 0.57010  0.05290  0.04405  Biso   1.000  N
  N82      1.0000 0.65650  0.09110  0.00914  Biso   1.000  N
  N83      1.0000 0.45070  0.04860  0.01328  Biso   1.000  N
  N84      1.0000 0.76410  0.08370  0.03775  Biso   1.000  N
  N85      1.0000 0.54230  0.08960  0.98047  Biso   1.000  N
  N86      1.0000 0.37470  0.02180  0.04720  Biso   1.000  N
  N87      1.0000 0.67650  0.39370  0.06165  Biso   1.000  N
  N88      1.0000 0.74870  0.43730  0.89365  Biso   1.000  N
  N89      1.0000 0.94710  0.51720  0.71072  Biso   1.000  N
  N90      1.0000 0.90890  0.56540  0.67581  Biso   1.000  N
  N91      1.0000 0.95140  0.40210  0.67995  Biso   1.000  N
  N92      1.0000 0.91630  0.68040  0.70442  Biso   1.000  N
  N93      1.0000 0.91040  0.45270  0.64714  Biso   1.000  N
  N94      1.0000 0.97820  0.35290  0.71387  Biso   1.000  N
  N95      1.0000 0.60630  0.28280  0.72832  Biso   1.000  N
  N96      1.0000 0.56270  0.31140  0.56032  Biso   1.000  N
  O1       1.0000 0.73280  0.18450  0.43350  Biso   1.000  O
  O2       1.0000 0.82060  0.13020  0.40815  Biso   1.000  O
  O3       1.0000 0.82900  0.44300  0.56005  Biso   1.000  O
  O4       1.0000 0.82790  0.62080  0.55662  Biso   1.000  O
  O5       1.0000 0.14300  0.87480  0.48846  Biso   1.000  O
  O6       1.0000 0.21740  0.80620  0.46317  Biso   1.000  O
  O7       1.0000 0.46520  0.06000  0.43762  Biso   1.000  O
  O8       1.0000 0.70330  0.51090  0.59146  Biso   1.000  O
  O9       1.0000 0.45170  0.26720  0.76683  Biso   1.000  O
  O10      1.0000 0.30960  0.17940  0.74148  Biso   1.000  O
  O11      1.0000 0.61400  0.17100  0.89338  Biso   1.000  O
  O12      1.0000 0.79290  0.17210  0.88995  Biso   1.000  O
  O13      1.0000 0.73180  0.85700  0.82179  Biso   1.000  O
  O14      1.0000 0.58880  0.78260  0.79650  Biso   1.000  O
  O15      1.0000 0.59480  0.53480  0.77095  Biso   1.000  O
  O16      1.0000 0.80760  0.29670  0.92479  Biso   1.000  O
  O17      1.0000 0.81550  0.54830  0.10017  Biso   1.000  O
  O18      1.0000 0.86980  0.69040  0.07482  Biso   1.000  O
  O19      1.0000 0.55700  0.38600  0.22672  Biso   1.000  O
  O20      1.0000 0.37920  0.20710  0.22329  Biso   1.000  O
  O21      1.0000 0.12520  0.26820  0.15513  Biso   1.000  O
  O22      1.0000 0.19380  0.41120  0.12984  Biso   1.000  O
  O23      1.0000 0.94000  0.40520  0.10429  Biso   1.000  O
  O24      1.0000 0.48910  0.19240  0.25813  Biso   1.000  O
  O25      1.0000 0.26720  0.81550  0.93350  Biso   1.000  O
  O26      1.0000 0.17940  0.86980  0.90815  Biso   1.000  O
  O27      1.0000 0.17100  0.55700  0.06005  Biso   1.000  O
  O28      1.0000 0.17210  0.37920  0.05662  Biso   1.000  O
  O29      1.0000 0.85700  0.12520  0.98846  Biso   1.000  O
  O30      1.0000 0.78260  0.19380  0.96317  Biso   1.000  O
  O31      1.0000 0.53480  0.94000  0.93762  Biso   1.000  O
  O32      1.0000 0.29670  0.48910  0.09146  Biso   1.000  O
  O33      1.0000 0.54830  0.73280  0.26683  Biso   1.000  O
  O34      1.0000 0.69040  0.82060  0.24148  Biso   1.000  O
  O35      1.0000 0.38600  0.82900  0.39338  Biso   1.000  O
  O36      1.0000 0.20710  0.82790  0.38995  Biso   1.000  O
  O37      1.0000 0.26820  0.14300  0.32179  Biso   1.000  O
  O38      1.0000 0.41120  0.21740  0.29650  Biso   1.000  O
  O39      1.0000 0.40520  0.46520  0.27095  Biso   1.000  O
  O40      1.0000 0.19240  0.70330  0.42479  Biso   1.000  O
  O41      1.0000 0.18450  0.45170  0.60017  Biso   1.000  O
  O42      1.0000 0.13020  0.30960  0.57482  Biso   1.000  O
  O43      1.0000 0.44300  0.61400  0.72672  Biso   1.000  O
  O44      1.0000 0.62080  0.79290  0.72329  Biso   1.000  O
  O45      1.0000 0.87480  0.73180  0.65513  Biso   1.000  O
  O46      1.0000 0.80620  0.58880  0.62984  Biso   1.000  O
  O47      1.0000 0.06000  0.59480  0.60429  Biso   1.000  O
  O48      1.0000 0.51090  0.80760  0.75813  Biso   1.000  O
  O49      1.0000 0.54830  0.81550  0.89983  Biso   1.000  O
  O50      1.0000 0.69040  0.86980  0.92518  Biso   1.000  O
  O51      1.0000 0.38600  0.55700  0.77328  Biso   1.000  O
  O52      1.0000 0.20710  0.37920  0.77671  Biso   1.000  O
  O53      1.0000 0.26820  0.12520  0.84487  Biso   1.000  O
  O54      1.0000 0.41120  0.19380  0.87016  Biso   1.000  O
  O55      1.0000 0.40520  0.94000  0.89571  Biso   1.000  O
  O56      1.0000 0.19240  0.48910  0.74187  Biso   1.000  O
  O57      1.0000 0.18450  0.73280  0.56650  Biso   1.000  O
  O58      1.0000 0.13020  0.82060  0.59185  Biso   1.000  O
  O59      1.0000 0.44300  0.82900  0.43995  Biso   1.000  O
  O60      1.0000 0.62080  0.82790  0.44338  Biso   1.000  O
  O61      1.0000 0.87480  0.14300  0.51154  Biso   1.000  O
  O62      1.0000 0.80620  0.21740  0.53683  Biso   1.000  O
  O63      1.0000 0.06000  0.46520  0.56238  Biso   1.000  O
  O64      1.0000 0.51090  0.70330  0.40854  Biso   1.000  O
  O65      1.0000 0.26720  0.45170  0.23317  Biso   1.000  O
  O66      1.0000 0.17940  0.30960  0.25852  Biso   1.000  O
  O67      1.0000 0.17100  0.61400  0.10662  Biso   1.000  O
  O68      1.0000 0.17210  0.79290  0.11005  Biso   1.000  O
  O69      1.0000 0.85700  0.73180  0.17821  Biso   1.000  O
  O70      1.0000 0.78260  0.58880  0.20350  Biso   1.000  O
  O71      1.0000 0.53480  0.59480  0.22905  Biso   1.000  O
  O72      1.0000 0.29670  0.80760  0.07521  Biso   1.000  O
  O73      1.0000 0.45170  0.18450  0.39983  Biso   1.000  O
  O74      1.0000 0.30960  0.13020  0.42518  Biso   1.000  O
  O75      1.0000 0.61400  0.44300  0.27328  Biso   1.000  O
  O76      1.0000 0.79290  0.62080  0.27671  Biso   1.000  O
  O77      1.0000 0.73180  0.87480  0.34487  Biso   1.000  O
  O78      1.0000 0.58880  0.80620  0.37016  Biso   1.000  O
  O79      1.0000 0.59480  0.06000  0.39571  Biso   1.000  O
  O80      1.0000 0.80760  0.51090  0.24187  Biso   1.000  O
  O81      1.0000 0.81550  0.26720  0.06650  Biso   1.000  O
  O82      1.0000 0.86980  0.17940  0.09185  Biso   1.000  O
  O83      1.0000 0.55700  0.17100  0.93995  Biso   1.000  O
  O84      1.0000 0.37920  0.17210  0.94338  Biso   1.000  O
  O85      1.0000 0.12520  0.85700  0.01154  Biso   1.000  O
  O86      1.0000 0.19380  0.78260  0.03683  Biso   1.000  O
  O87      1.0000 0.94000  0.53480  0.06238  Biso   1.000  O
  O88      1.0000 0.48910  0.29670  0.90854  Biso   1.000  O
  O89      1.0000 0.73280  0.54830  0.73317  Biso   1.000  O
  O90      1.0000 0.82060  0.69040  0.75852  Biso   1.000  O
  O91      1.0000 0.82900  0.38600  0.60662  Biso   1.000  O
  O92      1.0000 0.82790  0.20710  0.61005  Biso   1.000  O
  O93      1.0000 0.14300  0.26820  0.67821  Biso   1.000  O
  O94      1.0000 0.21740  0.41120  0.70350  Biso   1.000  O
  O95      1.0000 0.46520  0.40520  0.72905  Biso   1.000  O
  O96      1.0000 0.70330  0.19240  0.57521  Biso   1.000  O
