data_image0
_cell_length_a       12.5611
_cell_length_b       12.5611
_cell_length_c       62.471
_cell_angle_alpha    90
_cell_angle_beta     90
_cell_angle_gamma    120

_symmetry_space_group_name_H-M    P 1
_symmetry_int_tables_number       1

loop_
  _symmetry_equiv_pos_as_xyz
  'x, y, z'

loop_
  _atom_site_label
  _atom_site_occupancy
  _atom_site_fract_x
  _atom_site_fract_y
  _atom_site_fract_z
  _atom_site_thermal_displace_type
  _atom_site_B_iso_or_equiv
  _atom_site_type_symbol
  Ni1      1.0000 0.59427  0.18854  0.41667  Biso   1.000  Ni
  Ni2      1.0000 0.59427  0.40573  0.75000  Biso   1.000  Ni
  Ni3      1.0000 0.81146  0.40573  0.08333  Biso   1.000  Ni
  Ni4      1.0000 0.40573  0.81146  0.91667  Biso   1.000  Ni
  Ni5      1.0000 0.40573  0.59427  0.25000  Biso   1.000  Ni
  Ni6      1.0000 0.18854  0.59427  0.58333  Biso   1.000  Ni
  Ni7      1.0000 0.69610  0.34805  0.58333  Biso   1.000  Ni
  Ni8      1.0000 0.65195  0.30390  0.91667  Biso   1.000  Ni
  Ni9      1.0000 0.65195  0.34805  0.25000  Biso   1.000  Ni
  Ni10     1.0000 0.30390  0.65195  0.08333  Biso   1.000  Ni
  Ni11     1.0000 0.34805  0.69610  0.41667  Biso   1.000  Ni
  Ni12     1.0000 0.34805  0.65195  0.75000  Biso   1.000  Ni
  H1       1.0000 0.96360  0.16320  0.44430  Biso   1.000  H
  H2       1.0000 0.99640  0.28990  0.43400  Biso   1.000  H
  H3       1.0000 0.90360  0.61320  0.52020  Biso   1.000  H
  H4       1.0000 0.01520  0.62250  0.53310  Biso   1.000  H
  H5       1.0000 0.94140  0.73030  0.47160  Biso   1.000  H
  H6       1.0000 0.00020  0.79250  0.44970  Biso   1.000  H
  H7       1.0000 0.59110  0.43410  0.41820  Biso   1.000  H
  H8       1.0000 0.62620  0.58790  0.44170  Biso   1.000  H
  H9       1.0000 0.66210  0.39150  0.48820  Biso   1.000  H
  H10      1.0000 0.62690  0.24320  0.46400  Biso   1.000  H
  H11      1.0000 0.69100  0.68280  0.47580  Biso   1.000  H
  H12      1.0000 0.75360  0.63090  0.49100  Biso   1.000  H
  H13      1.0000 0.56050  0.50190  0.50730  Biso   1.000  H
  H14      1.0000 0.62790  0.37450  0.62910  Biso   1.000  H
  H15      1.0000 0.47220  0.28130  0.65280  Biso   1.000  H
  H16      1.0000 0.29980  0.00240  0.61140  Biso   1.000  H
  H17      1.0000 0.46370  0.10300  0.58920  Biso   1.000  H
  H18      1.0000 0.24020  0.12660  0.65750  Biso   1.000  H
  H19      1.0000 0.18260  0.00970  0.64270  Biso   1.000  H
  H20      1.0000 0.30440  0.94260  0.65940  Biso   1.000  H
  H21      1.0000 0.90300  0.17890  0.47130  Biso   1.000  H
  H22      1.0000 0.89110  0.39430  0.52740  Biso   1.000  H
  H23      1.0000 0.97520  0.61510  0.43910  Biso   1.000  H
  H24      1.0000 0.21440  0.90740  0.49250  Biso   1.000  H
  H25      1.0000 0.47010  0.99620  0.43540  Biso   1.000  H
  H26      1.0000 0.39290  0.04380  0.43470  Biso   1.000  H
  H27      1.0000 0.73110  0.56050  0.58110  Biso   1.000  H
  H28      1.0000 0.75670  0.54120  0.60140  Biso   1.000  H
  H29      1.0000 0.19960  0.03640  0.77763  Biso   1.000  H
  H30      1.0000 0.29350  0.00360  0.76733  Biso   1.000  H
  H31      1.0000 0.70960  0.09640  0.85353  Biso   1.000  H
  H32      1.0000 0.60730  0.98480  0.86643  Biso   1.000  H
  H33      1.0000 0.78890  0.05860  0.80493  Biso   1.000  H
  H34      1.0000 0.79230  0.99980  0.78303  Biso   1.000  H
  H35      1.0000 0.84300  0.40890  0.75153  Biso   1.000  H
  H36      1.0000 0.96170  0.37380  0.77503  Biso   1.000  H
  H37      1.0000 0.72940  0.33790  0.82153  Biso   1.000  H
  H38      1.0000 0.61630  0.37310  0.79733  Biso   1.000  H
  H39      1.0000 0.99180  0.30900  0.80913  Biso   1.000  H
  H40      1.0000 0.87730  0.24640  0.82433  Biso   1.000  H
  H41      1.0000 0.94140  0.43950  0.84063  Biso   1.000  H
  H42      1.0000 0.74660  0.37210  0.96243  Biso   1.000  H
  H43      1.0000 0.80910  0.52780  0.98613  Biso   1.000  H
  H44      1.0000 0.70260  0.70020  0.94473  Biso   1.000  H
  H45      1.0000 0.63930  0.53630  0.92253  Biso   1.000  H
  H46      1.0000 0.88640  0.75980  0.99083  Biso   1.000  H
  H47      1.0000 0.82710  0.81740  0.97603  Biso   1.000  H
  H48      1.0000 0.63820  0.69560  0.99273  Biso   1.000  H
  H49      1.0000 0.27590  0.09700  0.80463  Biso   1.000  H
  H50      1.0000 0.50320  0.10890  0.86073  Biso   1.000  H
  H51      1.0000 0.63990  0.02480  0.77243  Biso   1.000  H
  H52      1.0000 0.69300  0.78560  0.82583  Biso   1.000  H
  H53      1.0000 0.52610  0.52990  0.76873  Biso   1.000  H
  H54      1.0000 0.65090  0.60710  0.76803  Biso   1.000  H
  H55      1.0000 0.82940  0.26890  0.91443  Biso   1.000  H
  H56      1.0000 0.78450  0.24330  0.93473  Biso   1.000  H
  H57      1.0000 0.83680  0.80040  0.11097  Biso   1.000  H
  H58      1.0000 0.71010  0.70650  0.10067  Biso   1.000  H
  H59      1.0000 0.38680  0.29040  0.18687  Biso   1.000  H
  H60      1.0000 0.37750  0.39270  0.19977  Biso   1.000  H
  H61      1.0000 0.26970  0.21110  0.13827  Biso   1.000  H
  H62      1.0000 0.20750  0.20770  0.11637  Biso   1.000  H
  H63      1.0000 0.56590  0.15700  0.08487  Biso   1.000  H
  H64      1.0000 0.41210  0.03830  0.10837  Biso   1.000  H
  H65      1.0000 0.60850  0.27060  0.15487  Biso   1.000  H
  H66      1.0000 0.75680  0.38370  0.13067  Biso   1.000  H
  H67      1.0000 0.31720  0.00820  0.14247  Biso   1.000  H
  H68      1.0000 0.36910  0.12270  0.15767  Biso   1.000  H
  H69      1.0000 0.49810  0.05860  0.17397  Biso   1.000  H
  H70      1.0000 0.62550  0.25340  0.29577  Biso   1.000  H
  H71      1.0000 0.71870  0.19090  0.31947  Biso   1.000  H
  H72      1.0000 0.99760  0.29740  0.27807  Biso   1.000  H
  H73      1.0000 0.89700  0.36070  0.25587  Biso   1.000  H
  H74      1.0000 0.87340  0.11360  0.32417  Biso   1.000  H
  H75      1.0000 0.99030  0.17290  0.30937  Biso   1.000  H
  H76      1.0000 0.05740  0.36180  0.32607  Biso   1.000  H
  H77      1.0000 0.82110  0.72410  0.13797  Biso   1.000  H
  H78      1.0000 0.60570  0.49680  0.19407  Biso   1.000  H
  H79      1.0000 0.38490  0.36010  0.10577  Biso   1.000  H
  H80      1.0000 0.09260  0.30700  0.15917  Biso   1.000  H
  H81      1.0000 0.00380  0.47390  0.10207  Biso   1.000  H
  H82      1.0000 0.95620  0.34910  0.10137  Biso   1.000  H
  H83      1.0000 0.43950  0.17060  0.24777  Biso   1.000  H
  H84      1.0000 0.45880  0.21550  0.26807  Biso   1.000  H
  H85      1.0000 0.03640  0.83680  0.94430  Biso   1.000  H
  H86      1.0000 0.00360  0.71010  0.93400  Biso   1.000  H
  H87      1.0000 0.09640  0.38680  0.02020  Biso   1.000  H
  H88      1.0000 0.98480  0.37750  0.03310  Biso   1.000  H
  H89      1.0000 0.05860  0.26970  0.97160  Biso   1.000  H
  H90      1.0000 0.99980  0.20750  0.94970  Biso   1.000  H
  H91      1.0000 0.40890  0.56590  0.91820  Biso   1.000  H
  H92      1.0000 0.37380  0.41210  0.94170  Biso   1.000  H
  H93      1.0000 0.33790  0.60850  0.98820  Biso   1.000  H
  H94      1.0000 0.37310  0.75680  0.96400  Biso   1.000  H
  H95      1.0000 0.30900  0.31720  0.97580  Biso   1.000  H
  H96      1.0000 0.24640  0.36910  0.99100  Biso   1.000  H
  H97      1.0000 0.43950  0.49810  0.00730  Biso   1.000  H
  H98      1.0000 0.37210  0.62550  0.12910  Biso   1.000  H
  H99      1.0000 0.52780  0.71870  0.15280  Biso   1.000  H
  H100     1.0000 0.70020  0.99760  0.11140  Biso   1.000  H
  H101     1.0000 0.53630  0.89700  0.08920  Biso   1.000  H
  H102     1.0000 0.75980  0.87340  0.15750  Biso   1.000  H
  H103     1.0000 0.81740  0.99030  0.14270  Biso   1.000  H
  H104     1.0000 0.69560  0.05740  0.15940  Biso   1.000  H
  H105     1.0000 0.09700  0.82110  0.97130  Biso   1.000  H
  H106     1.0000 0.10890  0.60570  0.02740  Biso   1.000  H
  H107     1.0000 0.02480  0.38490  0.93910  Biso   1.000  H
  H108     1.0000 0.78560  0.09260  0.99250  Biso   1.000  H
  H109     1.0000 0.52990  0.00380  0.93540  Biso   1.000  H
  H110     1.0000 0.60710  0.95620  0.93470  Biso   1.000  H
  H111     1.0000 0.26890  0.43950  0.08110  Biso   1.000  H
  H112     1.0000 0.24330  0.45880  0.10140  Biso   1.000  H
  H113     1.0000 0.80040  0.96360  0.27763  Biso   1.000  H
  H114     1.0000 0.70650  0.99640  0.26733  Biso   1.000  H
  H115     1.0000 0.29040  0.90360  0.35353  Biso   1.000  H
  H116     1.0000 0.39270  0.01520  0.36643  Biso   1.000  H
  H117     1.0000 0.21110  0.94140  0.30493  Biso   1.000  H
  H118     1.0000 0.20770  0.00020  0.28303  Biso   1.000  H
  H119     1.0000 0.15700  0.59110  0.25153  Biso   1.000  H
  H120     1.0000 0.03830  0.62620  0.27503  Biso   1.000  H
  H121     1.0000 0.27060  0.66210  0.32153  Biso   1.000  H
  H122     1.0000 0.38370  0.62690  0.29733  Biso   1.000  H
  H123     1.0000 0.00820  0.69100  0.30913  Biso   1.000  H
  H124     1.0000 0.12270  0.75360  0.32433  Biso   1.000  H
  H125     1.0000 0.05860  0.56050  0.34063  Biso   1.000  H
  H126     1.0000 0.25340  0.62790  0.46243  Biso   1.000  H
  H127     1.0000 0.19090  0.47220  0.48613  Biso   1.000  H
  H128     1.0000 0.29740  0.29980  0.44473  Biso   1.000  H
  H129     1.0000 0.36070  0.46370  0.42253  Biso   1.000  H
  H130     1.0000 0.11360  0.24020  0.49083  Biso   1.000  H
  H131     1.0000 0.17290  0.18260  0.47603  Biso   1.000  H
  H132     1.0000 0.36180  0.30440  0.49273  Biso   1.000  H
  H133     1.0000 0.72410  0.90300  0.30463  Biso   1.000  H
  H134     1.0000 0.49680  0.89110  0.36073  Biso   1.000  H
  H135     1.0000 0.36010  0.97520  0.27243  Biso   1.000  H
  H136     1.0000 0.30700  0.21440  0.32583  Biso   1.000  H
  H137     1.0000 0.47390  0.47010  0.26873  Biso   1.000  H
  H138     1.0000 0.34910  0.39290  0.26803  Biso   1.000  H
  H139     1.0000 0.17060  0.73110  0.41443  Biso   1.000  H
  H140     1.0000 0.21550  0.75670  0.43473  Biso   1.000  H
  H141     1.0000 0.16320  0.19960  0.61097  Biso   1.000  H
  H142     1.0000 0.28990  0.29350  0.60067  Biso   1.000  H
  H143     1.0000 0.61320  0.70960  0.68687  Biso   1.000  H
  H144     1.0000 0.62250  0.60730  0.69977  Biso   1.000  H
  H145     1.0000 0.73030  0.78890  0.63827  Biso   1.000  H
  H146     1.0000 0.79250  0.79230  0.61637  Biso   1.000  H
  H147     1.0000 0.43410  0.84300  0.58487  Biso   1.000  H
  H148     1.0000 0.58790  0.96170  0.60837  Biso   1.000  H
  H149     1.0000 0.39150  0.72940  0.65487  Biso   1.000  H
  H150     1.0000 0.24320  0.61630  0.63067  Biso   1.000  H
  H151     1.0000 0.68280  0.99180  0.64247  Biso   1.000  H
  H152     1.0000 0.63090  0.87730  0.65767  Biso   1.000  H
  H153     1.0000 0.50190  0.94140  0.67397  Biso   1.000  H
  H154     1.0000 0.37450  0.74660  0.79577  Biso   1.000  H
  H155     1.0000 0.28130  0.80910  0.81947  Biso   1.000  H
  H156     1.0000 0.00240  0.70260  0.77807  Biso   1.000  H
  H157     1.0000 0.10300  0.63930  0.75587  Biso   1.000  H
  H158     1.0000 0.12660  0.88640  0.82417  Biso   1.000  H
  H159     1.0000 0.00970  0.82710  0.80937  Biso   1.000  H
  H160     1.0000 0.94260  0.63820  0.82607  Biso   1.000  H
  H161     1.0000 0.17890  0.27590  0.63797  Biso   1.000  H
  H162     1.0000 0.39430  0.50320  0.69407  Biso   1.000  H
  H163     1.0000 0.61510  0.63990  0.60577  Biso   1.000  H
  H164     1.0000 0.90740  0.69300  0.65917  Biso   1.000  H
  H165     1.0000 0.99620  0.52610  0.60207  Biso   1.000  H
  H166     1.0000 0.04380  0.65090  0.60137  Biso   1.000  H
  H167     1.0000 0.56050  0.82940  0.74777  Biso   1.000  H
  H168     1.0000 0.54120  0.78450  0.76807  Biso   1.000  H
  H169     1.0000 0.80040  0.83680  0.88903  Biso   1.000  H
  H170     1.0000 0.70650  0.71010  0.89933  Biso   1.000  H
  H171     1.0000 0.29040  0.38680  0.81313  Biso   1.000  H
  H172     1.0000 0.39270  0.37750  0.80023  Biso   1.000  H
  H173     1.0000 0.21110  0.26970  0.86173  Biso   1.000  H
  H174     1.0000 0.20770  0.20750  0.88363  Biso   1.000  H
  H175     1.0000 0.15700  0.56590  0.91513  Biso   1.000  H
  H176     1.0000 0.03830  0.41210  0.89163  Biso   1.000  H
  H177     1.0000 0.27060  0.60850  0.84513  Biso   1.000  H
  H178     1.0000 0.38370  0.75680  0.86933  Biso   1.000  H
  H179     1.0000 0.00820  0.31720  0.85753  Biso   1.000  H
  H180     1.0000 0.12270  0.36910  0.84233  Biso   1.000  H
  H181     1.0000 0.05860  0.49810  0.82603  Biso   1.000  H
  H182     1.0000 0.25340  0.62550  0.70423  Biso   1.000  H
  H183     1.0000 0.19090  0.71870  0.68053  Biso   1.000  H
  H184     1.0000 0.29740  0.99760  0.72193  Biso   1.000  H
  H185     1.0000 0.36070  0.89700  0.74413  Biso   1.000  H
  H186     1.0000 0.11360  0.87340  0.67583  Biso   1.000  H
  H187     1.0000 0.17290  0.99030  0.69063  Biso   1.000  H
  H188     1.0000 0.36180  0.05740  0.67393  Biso   1.000  H
  H189     1.0000 0.72410  0.82110  0.86203  Biso   1.000  H
  H190     1.0000 0.49680  0.60570  0.80593  Biso   1.000  H
  H191     1.0000 0.36010  0.38490  0.89423  Biso   1.000  H
  H192     1.0000 0.30700  0.09260  0.84083  Biso   1.000  H
  H193     1.0000 0.47390  0.00380  0.89793  Biso   1.000  H
  H194     1.0000 0.34910  0.95620  0.89863  Biso   1.000  H
  H195     1.0000 0.17060  0.43950  0.75223  Biso   1.000  H
  H196     1.0000 0.21550  0.45880  0.73193  Biso   1.000  H
  H197     1.0000 0.16320  0.96360  0.55570  Biso   1.000  H
  H198     1.0000 0.28990  0.99640  0.56600  Biso   1.000  H
  H199     1.0000 0.61320  0.90360  0.47980  Biso   1.000  H
  H200     1.0000 0.62250  0.01520  0.46690  Biso   1.000  H
  H201     1.0000 0.73030  0.94140  0.52840  Biso   1.000  H
  H202     1.0000 0.79250  0.00020  0.55030  Biso   1.000  H
  H203     1.0000 0.43410  0.59110  0.58180  Biso   1.000  H
  H204     1.0000 0.58790  0.62620  0.55830  Biso   1.000  H
  H205     1.0000 0.39150  0.66210  0.51180  Biso   1.000  H
  H206     1.0000 0.24320  0.62690  0.53600  Biso   1.000  H
  H207     1.0000 0.68280  0.69100  0.52420  Biso   1.000  H
  H208     1.0000 0.63090  0.75360  0.50900  Biso   1.000  H
  H209     1.0000 0.50190  0.56050  0.49270  Biso   1.000  H
  H210     1.0000 0.37450  0.62790  0.37090  Biso   1.000  H
  H211     1.0000 0.28130  0.47220  0.34720  Biso   1.000  H
  H212     1.0000 0.00240  0.29980  0.38860  Biso   1.000  H
  H213     1.0000 0.10300  0.46370  0.41080  Biso   1.000  H
  H214     1.0000 0.12660  0.24020  0.34250  Biso   1.000  H
  H215     1.0000 0.00970  0.18260  0.35730  Biso   1.000  H
  H216     1.0000 0.94260  0.30440  0.34060  Biso   1.000  H
  H217     1.0000 0.17890  0.90300  0.52870  Biso   1.000  H
  H218     1.0000 0.39430  0.89110  0.47260  Biso   1.000  H
  H219     1.0000 0.61510  0.97520  0.56090  Biso   1.000  H
  H220     1.0000 0.90740  0.21440  0.50750  Biso   1.000  H
  H221     1.0000 0.99620  0.47010  0.56460  Biso   1.000  H
  H222     1.0000 0.04380  0.39290  0.56530  Biso   1.000  H
  H223     1.0000 0.56050  0.73110  0.41890  Biso   1.000  H
  H224     1.0000 0.54120  0.75670  0.39860  Biso   1.000  H
  H225     1.0000 0.03640  0.19960  0.22237  Biso   1.000  H
  H226     1.0000 0.00360  0.29350  0.23267  Biso   1.000  H
  H227     1.0000 0.09640  0.70960  0.14647  Biso   1.000  H
  H228     1.0000 0.98480  0.60730  0.13357  Biso   1.000  H
  H229     1.0000 0.05860  0.78890  0.19507  Biso   1.000  H
  H230     1.0000 0.99980  0.79230  0.21697  Biso   1.000  H
  H231     1.0000 0.40890  0.84300  0.24847  Biso   1.000  H
  H232     1.0000 0.37380  0.96170  0.22497  Biso   1.000  H
  H233     1.0000 0.33790  0.72940  0.17847  Biso   1.000  H
  H234     1.0000 0.37310  0.61630  0.20267  Biso   1.000  H
  H235     1.0000 0.30900  0.99180  0.19087  Biso   1.000  H
  H236     1.0000 0.24640  0.87730  0.17567  Biso   1.000  H
  H237     1.0000 0.43950  0.94140  0.15937  Biso   1.000  H
  H238     1.0000 0.37210  0.74660  0.03757  Biso   1.000  H
  H239     1.0000 0.52780  0.80910  0.01387  Biso   1.000  H
  H240     1.0000 0.70020  0.70260  0.05527  Biso   1.000  H
  H241     1.0000 0.53630  0.63930  0.07747  Biso   1.000  H
  H242     1.0000 0.75980  0.88640  0.00917  Biso   1.000  H
  H243     1.0000 0.81740  0.82710  0.02397  Biso   1.000  H
  H244     1.0000 0.69560  0.63820  0.00727  Biso   1.000  H
  H245     1.0000 0.09700  0.27590  0.19537  Biso   1.000  H
  H246     1.0000 0.10890  0.50320  0.13927  Biso   1.000  H
  H247     1.0000 0.02480  0.63990  0.22757  Biso   1.000  H
  H248     1.0000 0.78560  0.69300  0.17417  Biso   1.000  H
  H249     1.0000 0.52990  0.52610  0.23127  Biso   1.000  H
  H250     1.0000 0.60710  0.65090  0.23197  Biso   1.000  H
  H251     1.0000 0.26890  0.82940  0.08557  Biso   1.000  H
  H252     1.0000 0.24330  0.78450  0.06527  Biso   1.000  H
  H253     1.0000 0.19960  0.16320  0.38903  Biso   1.000  H
  H254     1.0000 0.29350  0.28990  0.39933  Biso   1.000  H
  H255     1.0000 0.70960  0.61320  0.31313  Biso   1.000  H
  H256     1.0000 0.60730  0.62250  0.30023  Biso   1.000  H
  H257     1.0000 0.78890  0.73030  0.36173  Biso   1.000  H
  H258     1.0000 0.79230  0.79250  0.38363  Biso   1.000  H
  H259     1.0000 0.84300  0.43410  0.41513  Biso   1.000  H
  H260     1.0000 0.96170  0.58790  0.39163  Biso   1.000  H
  H261     1.0000 0.72940  0.39150  0.34513  Biso   1.000  H
  H262     1.0000 0.61630  0.24320  0.36933  Biso   1.000  H
  H263     1.0000 0.99180  0.68280  0.35753  Biso   1.000  H
  H264     1.0000 0.87730  0.63090  0.34233  Biso   1.000  H
  H265     1.0000 0.94140  0.50190  0.32603  Biso   1.000  H
  H266     1.0000 0.74660  0.37450  0.20423  Biso   1.000  H
  H267     1.0000 0.80910  0.28130  0.18053  Biso   1.000  H
  H268     1.0000 0.70260  0.00240  0.22193  Biso   1.000  H
  H269     1.0000 0.63930  0.10300  0.24413  Biso   1.000  H
  H270     1.0000 0.88640  0.12660  0.17583  Biso   1.000  H
  H271     1.0000 0.82710  0.00970  0.19063  Biso   1.000  H
  H272     1.0000 0.63820  0.94260  0.17393  Biso   1.000  H
  H273     1.0000 0.27590  0.17890  0.36203  Biso   1.000  H
  H274     1.0000 0.50320  0.39430  0.30593  Biso   1.000  H
  H275     1.0000 0.63990  0.61510  0.39423  Biso   1.000  H
  H276     1.0000 0.69300  0.90740  0.34083  Biso   1.000  H
  H277     1.0000 0.52610  0.99620  0.39793  Biso   1.000  H
  H278     1.0000 0.65090  0.04380  0.39863  Biso   1.000  H
  H279     1.0000 0.82940  0.56050  0.25223  Biso   1.000  H
  H280     1.0000 0.78450  0.54120  0.23193  Biso   1.000  H
  H281     1.0000 0.83680  0.03640  0.05570  Biso   1.000  H
  H282     1.0000 0.71010  0.00360  0.06600  Biso   1.000  H
  H283     1.0000 0.38680  0.09640  0.97980  Biso   1.000  H
  H284     1.0000 0.37750  0.98480  0.96690  Biso   1.000  H
  H285     1.0000 0.26970  0.05860  0.02840  Biso   1.000  H
  H286     1.0000 0.20750  0.99980  0.05030  Biso   1.000  H
  H287     1.0000 0.56590  0.40890  0.08180  Biso   1.000  H
  H288     1.0000 0.41210  0.37380  0.05830  Biso   1.000  H
  H289     1.0000 0.60850  0.33790  0.01180  Biso   1.000  H
  H290     1.0000 0.75680  0.37310  0.03600  Biso   1.000  H
  H291     1.0000 0.31720  0.30900  0.02420  Biso   1.000  H
  H292     1.0000 0.36910  0.24640  0.00900  Biso   1.000  H
  H293     1.0000 0.49810  0.43950  0.99270  Biso   1.000  H
  H294     1.0000 0.62550  0.37210  0.87090  Biso   1.000  H
  H295     1.0000 0.71870  0.52780  0.84720  Biso   1.000  H
  H296     1.0000 0.99760  0.70020  0.88860  Biso   1.000  H
  H297     1.0000 0.89700  0.53630  0.91080  Biso   1.000  H
  H298     1.0000 0.87340  0.75980  0.84250  Biso   1.000  H
  H299     1.0000 0.99030  0.81740  0.85730  Biso   1.000  H
  H300     1.0000 0.05740  0.69560  0.84060  Biso   1.000  H
  H301     1.0000 0.82110  0.09700  0.02870  Biso   1.000  H
  H302     1.0000 0.60570  0.10890  0.97260  Biso   1.000  H
  H303     1.0000 0.38490  0.02480  0.06090  Biso   1.000  H
  H304     1.0000 0.09260  0.78560  0.00750  Biso   1.000  H
  H305     1.0000 0.00380  0.52990  0.06460  Biso   1.000  H
  H306     1.0000 0.95620  0.60710  0.06530  Biso   1.000  H
  H307     1.0000 0.43950  0.26890  0.91890  Biso   1.000  H
  H308     1.0000 0.45880  0.24330  0.89860  Biso   1.000  H
  H309     1.0000 0.96360  0.80040  0.72237  Biso   1.000  H
  H310     1.0000 0.99640  0.70650  0.73267  Biso   1.000  H
  H311     1.0000 0.90360  0.29040  0.64647  Biso   1.000  H
  H312     1.0000 0.01520  0.39270  0.63357  Biso   1.000  H
  H313     1.0000 0.94140  0.21110  0.69507  Biso   1.000  H
  H314     1.0000 0.00020  0.20770  0.71697  Biso   1.000  H
  H315     1.0000 0.59110  0.15700  0.74847  Biso   1.000  H
  H316     1.0000 0.62620  0.03830  0.72497  Biso   1.000  H
  H317     1.0000 0.66210  0.27060  0.67847  Biso   1.000  H
  H318     1.0000 0.62690  0.38370  0.70267  Biso   1.000  H
  H319     1.0000 0.69100  0.00820  0.69087  Biso   1.000  H
  H320     1.0000 0.75360  0.12270  0.67567  Biso   1.000  H
  H321     1.0000 0.56050  0.05860  0.65937  Biso   1.000  H
  H322     1.0000 0.62790  0.25340  0.53757  Biso   1.000  H
  H323     1.0000 0.47220  0.19090  0.51387  Biso   1.000  H
  H324     1.0000 0.29980  0.29740  0.55527  Biso   1.000  H
  H325     1.0000 0.46370  0.36070  0.57747  Biso   1.000  H
  H326     1.0000 0.24020  0.11360  0.50917  Biso   1.000  H
  H327     1.0000 0.18260  0.17290  0.52397  Biso   1.000  H
  H328     1.0000 0.30440  0.36180  0.50727  Biso   1.000  H
  H329     1.0000 0.90300  0.72410  0.69537  Biso   1.000  H
  H330     1.0000 0.89110  0.49680  0.63927  Biso   1.000  H
  H331     1.0000 0.97520  0.36010  0.72757  Biso   1.000  H
  H332     1.0000 0.21440  0.30700  0.67417  Biso   1.000  H
  H333     1.0000 0.47010  0.47390  0.73127  Biso   1.000  H
  H334     1.0000 0.39290  0.34910  0.73197  Biso   1.000  H
  H335     1.0000 0.73110  0.17060  0.58557  Biso   1.000  H
  H336     1.0000 0.75670  0.21550  0.56527  Biso   1.000  H
  C1       1.0000 0.92390  0.33810  0.46903  Biso   1.000  C
  C2       1.0000 0.92430  0.45150  0.49859  Biso   1.000  C
  C3       1.0000 0.95860  0.53060  0.46546  Biso   1.000  C
  C4       1.0000 0.92960  0.21360  0.43958  Biso   1.000  C
  C5       1.0000 0.81800  0.17220  0.42599  Biso   1.000  C
  C6       1.0000 0.92860  0.56950  0.52996  Biso   1.000  C
  C7       1.0000 0.85550  0.54160  0.55043  Biso   1.000  C
  C8       1.0000 0.00420  0.74310  0.46126  Biso   1.000  C
  C9       1.0000 0.13080  0.81380  0.47199  Biso   1.000  C
  C10      1.0000 0.60610  0.42510  0.43245  Biso   1.000  C
  C11      1.0000 0.62720  0.51850  0.44659  Biso   1.000  C
  C12      1.0000 0.64960  0.50920  0.46789  Biso   1.000  C
  C13      1.0000 0.64840  0.40270  0.47399  Biso   1.000  C
  C14      1.0000 0.62710  0.31360  0.45931  Biso   1.000  C
  C15      1.0000 0.67790  0.61030  0.48360  Biso   1.000  C
  C16      1.0000 0.56070  0.29890  0.62539  Biso   1.000  C
  C17      1.0000 0.46680  0.24400  0.63971  Biso   1.000  C
  C18      1.0000 0.36350  0.13310  0.63478  Biso   1.000  C
  C19      1.0000 0.36500  0.07880  0.61530  Biso   1.000  C
  C20      1.0000 0.46410  0.14020  0.60208  Biso   1.000  C
  C21      1.0000 0.25610  0.06720  0.65039  Biso   1.000  C
  C22      1.0000 0.41420  0.07610  0.80236  Biso   1.000  C
  C23      1.0000 0.52720  0.07570  0.83192  Biso   1.000  C
  C24      1.0000 0.57200  0.04140  0.79879  Biso   1.000  C
  C25      1.0000 0.28400  0.07040  0.77291  Biso   1.000  C
  C26      1.0000 0.35420  0.18200  0.75932  Biso   1.000  C
  C27      1.0000 0.64090  0.07140  0.86329  Biso   1.000  C
  C28      1.0000 0.68610  0.14450  0.88376  Biso   1.000  C
  C29      1.0000 0.73890  0.99580  0.79459  Biso   1.000  C
  C30      1.0000 0.68300  0.86920  0.80532  Biso   1.000  C
  C31      1.0000 0.81900  0.39390  0.76578  Biso   1.000  C
  C32      1.0000 0.89130  0.37280  0.77992  Biso   1.000  C
  C33      1.0000 0.85960  0.35040  0.80122  Biso   1.000  C
  C34      1.0000 0.75430  0.35160  0.80732  Biso   1.000  C
  C35      1.0000 0.68650  0.37290  0.79264  Biso   1.000  C
  C36      1.0000 0.93240  0.32210  0.81693  Biso   1.000  C
  C37      1.0000 0.73820  0.43930  0.95872  Biso   1.000  C
  C38      1.0000 0.77720  0.53320  0.97304  Biso   1.000  C
  C39      1.0000 0.76960  0.63650  0.96811  Biso   1.000  C
  C40      1.0000 0.71380  0.63500  0.94863  Biso   1.000  C
  C41      1.0000 0.67610  0.53590  0.93541  Biso   1.000  C
  C42      1.0000 0.81110  0.74390  0.98372  Biso   1.000  C
  C43      1.0000 0.66190  0.58580  0.13570  Biso   1.000  C
  C44      1.0000 0.54850  0.47280  0.16526  Biso   1.000  C
  C45      1.0000 0.46940  0.42800  0.13213  Biso   1.000  C
  C46      1.0000 0.78640  0.71600  0.10625  Biso   1.000  C
  C47      1.0000 0.82780  0.64580  0.09266  Biso   1.000  C
  C48      1.0000 0.43050  0.35910  0.19663  Biso   1.000  C
  C49      1.0000 0.45840  0.31390  0.21710  Biso   1.000  C
  C50      1.0000 0.25690  0.26110  0.12793  Biso   1.000  C
  C51      1.0000 0.18620  0.31700  0.13866  Biso   1.000  C
  C52      1.0000 0.57490  0.18100  0.09912  Biso   1.000  C
  C53      1.0000 0.48150  0.10870  0.11326  Biso   1.000  C
  C54      1.0000 0.49080  0.14040  0.13456  Biso   1.000  C
  C55      1.0000 0.59730  0.24570  0.14066  Biso   1.000  C
  C56      1.0000 0.68640  0.31350  0.12598  Biso   1.000  C
  C57      1.0000 0.38970  0.06760  0.15027  Biso   1.000  C
  C58      1.0000 0.70110  0.26180  0.29206  Biso   1.000  C
  C59      1.0000 0.75600  0.22280  0.30638  Biso   1.000  C
  C60      1.0000 0.86690  0.23040  0.30145  Biso   1.000  C
  C61      1.0000 0.92120  0.28620  0.28197  Biso   1.000  C
  C62      1.0000 0.85980  0.32390  0.26875  Biso   1.000  C
  C63      1.0000 0.93280  0.18890  0.31706  Biso   1.000  C
  C64      1.0000 0.07610  0.66190  0.96903  Biso   1.000  C
  C65      1.0000 0.07570  0.54850  0.99859  Biso   1.000  C
  C66      1.0000 0.04140  0.46940  0.96546  Biso   1.000  C
  C67      1.0000 0.07040  0.78640  0.93958  Biso   1.000  C
  C68      1.0000 0.18200  0.82780  0.92599  Biso   1.000  C
  C69      1.0000 0.07140  0.43050  0.02996  Biso   1.000  C
  C70      1.0000 0.14450  0.45840  0.05043  Biso   1.000  C
  C71      1.0000 0.99580  0.25690  0.96126  Biso   1.000  C
  C72      1.0000 0.86920  0.18620  0.97199  Biso   1.000  C
  C73      1.0000 0.39390  0.57490  0.93245  Biso   1.000  C
  C74      1.0000 0.37280  0.48150  0.94659  Biso   1.000  C
  C75      1.0000 0.35040  0.49080  0.96789  Biso   1.000  C
  C76      1.0000 0.35160  0.59730  0.97399  Biso   1.000  C
  C77      1.0000 0.37290  0.68640  0.95931  Biso   1.000  C
  C78      1.0000 0.32210  0.38970  0.98360  Biso   1.000  C
  C79      1.0000 0.43930  0.70110  0.12539  Biso   1.000  C
  C80      1.0000 0.53320  0.75600  0.13971  Biso   1.000  C
  C81      1.0000 0.63650  0.86690  0.13478  Biso   1.000  C
  C82      1.0000 0.63500  0.92120  0.11530  Biso   1.000  C
  C83      1.0000 0.53590  0.85980  0.10208  Biso   1.000  C
  C84      1.0000 0.74390  0.93280  0.15039  Biso   1.000  C
  C85      1.0000 0.58580  0.92390  0.30236  Biso   1.000  C
  C86      1.0000 0.47280  0.92430  0.33192  Biso   1.000  C
  C87      1.0000 0.42800  0.95860  0.29879  Biso   1.000  C
  C88      1.0000 0.71600  0.92960  0.27291  Biso   1.000  C
  C89      1.0000 0.64580  0.81800  0.25932  Biso   1.000  C
  C90      1.0000 0.35910  0.92860  0.36329  Biso   1.000  C
  C91      1.0000 0.31390  0.85550  0.38376  Biso   1.000  C
  C92      1.0000 0.26110  0.00420  0.29459  Biso   1.000  C
  C93      1.0000 0.31700  0.13080  0.30532  Biso   1.000  C
  C94      1.0000 0.18100  0.60610  0.26578  Biso   1.000  C
  C95      1.0000 0.10870  0.62720  0.27992  Biso   1.000  C
  C96      1.0000 0.14040  0.64960  0.30122  Biso   1.000  C
  C97      1.0000 0.24570  0.64840  0.30732  Biso   1.000  C
  C98      1.0000 0.31350  0.62710  0.29264  Biso   1.000  C
  C99      1.0000 0.06760  0.67790  0.31693  Biso   1.000  C
  C100     1.0000 0.26180  0.56070  0.45872  Biso   1.000  C
  C101     1.0000 0.22280  0.46680  0.47304  Biso   1.000  C
  C102     1.0000 0.23040  0.36350  0.46811  Biso   1.000  C
  C103     1.0000 0.28620  0.36500  0.44863  Biso   1.000  C
  C104     1.0000 0.32390  0.46410  0.43541  Biso   1.000  C
  C105     1.0000 0.18890  0.25610  0.48372  Biso   1.000  C
  C106     1.0000 0.33810  0.41420  0.63570  Biso   1.000  C
  C107     1.0000 0.45150  0.52720  0.66526  Biso   1.000  C
  C108     1.0000 0.53060  0.57200  0.63213  Biso   1.000  C
  C109     1.0000 0.21360  0.28400  0.60625  Biso   1.000  C
  C110     1.0000 0.17220  0.35420  0.59266  Biso   1.000  C
  C111     1.0000 0.56950  0.64090  0.69663  Biso   1.000  C
  C112     1.0000 0.54160  0.68610  0.71710  Biso   1.000  C
  C113     1.0000 0.74310  0.73890  0.62793  Biso   1.000  C
  C114     1.0000 0.81380  0.68300  0.63866  Biso   1.000  C
  C115     1.0000 0.42510  0.81900  0.59912  Biso   1.000  C
  C116     1.0000 0.51850  0.89130  0.61326  Biso   1.000  C
  C117     1.0000 0.50920  0.85960  0.63456  Biso   1.000  C
  C118     1.0000 0.40270  0.75430  0.64066  Biso   1.000  C
  C119     1.0000 0.31360  0.68650  0.62598  Biso   1.000  C
  C120     1.0000 0.61030  0.93240  0.65027  Biso   1.000  C
  C121     1.0000 0.29890  0.73820  0.79206  Biso   1.000  C
  C122     1.0000 0.24400  0.77720  0.80638  Biso   1.000  C
  C123     1.0000 0.13310  0.76960  0.80145  Biso   1.000  C
  C124     1.0000 0.07880  0.71380  0.78197  Biso   1.000  C
  C125     1.0000 0.14020  0.67610  0.76875  Biso   1.000  C
  C126     1.0000 0.06720  0.81110  0.81706  Biso   1.000  C
  C127     1.0000 0.58580  0.66190  0.86430  Biso   1.000  C
  C128     1.0000 0.47280  0.54850  0.83474  Biso   1.000  C
  C129     1.0000 0.42800  0.46940  0.86787  Biso   1.000  C
  C130     1.0000 0.71600  0.78640  0.89375  Biso   1.000  C
  C131     1.0000 0.64580  0.82780  0.90734  Biso   1.000  C
  C132     1.0000 0.35910  0.43050  0.80337  Biso   1.000  C
  C133     1.0000 0.31390  0.45840  0.78290  Biso   1.000  C
  C134     1.0000 0.26110  0.25690  0.87207  Biso   1.000  C
  C135     1.0000 0.31700  0.18620  0.86134  Biso   1.000  C
  C136     1.0000 0.18100  0.57490  0.90088  Biso   1.000  C
  C137     1.0000 0.10870  0.48150  0.88674  Biso   1.000  C
  C138     1.0000 0.14040  0.49080  0.86544  Biso   1.000  C
  C139     1.0000 0.24570  0.59730  0.85934  Biso   1.000  C
  C140     1.0000 0.31350  0.68640  0.87402  Biso   1.000  C
  C141     1.0000 0.06760  0.38970  0.84973  Biso   1.000  C
  C142     1.0000 0.26180  0.70110  0.70794  Biso   1.000  C
  C143     1.0000 0.22280  0.75600  0.69362  Biso   1.000  C
  C144     1.0000 0.23040  0.86690  0.69855  Biso   1.000  C
  C145     1.0000 0.28620  0.92120  0.71803  Biso   1.000  C
  C146     1.0000 0.32390  0.85980  0.73125  Biso   1.000  C
  C147     1.0000 0.18890  0.93280  0.68294  Biso   1.000  C
  C148     1.0000 0.33810  0.92390  0.53097  Biso   1.000  C
  C149     1.0000 0.45150  0.92430  0.50141  Biso   1.000  C
  C150     1.0000 0.53060  0.95860  0.53454  Biso   1.000  C
  C151     1.0000 0.21360  0.92960  0.56042  Biso   1.000  C
  C152     1.0000 0.17220  0.81800  0.57401  Biso   1.000  C
  C153     1.0000 0.56950  0.92860  0.47004  Biso   1.000  C
  C154     1.0000 0.54160  0.85550  0.44957  Biso   1.000  C
  C155     1.0000 0.74310  0.00420  0.53874  Biso   1.000  C
  C156     1.0000 0.81380  0.13080  0.52801  Biso   1.000  C
  C157     1.0000 0.42510  0.60610  0.56755  Biso   1.000  C
  C158     1.0000 0.51850  0.62720  0.55341  Biso   1.000  C
  C159     1.0000 0.50920  0.64960  0.53211  Biso   1.000  C
  C160     1.0000 0.40270  0.64840  0.52601  Biso   1.000  C
  C161     1.0000 0.31360  0.62710  0.54069  Biso   1.000  C
  C162     1.0000 0.61030  0.67790  0.51640  Biso   1.000  C
  C163     1.0000 0.29890  0.56070  0.37461  Biso   1.000  C
  C164     1.0000 0.24400  0.46680  0.36029  Biso   1.000  C
  C165     1.0000 0.13310  0.36350  0.36522  Biso   1.000  C
  C166     1.0000 0.07880  0.36500  0.38470  Biso   1.000  C
  C167     1.0000 0.14020  0.46410  0.39792  Biso   1.000  C
  C168     1.0000 0.06720  0.25610  0.34961  Biso   1.000  C
  C169     1.0000 0.07610  0.41420  0.19764  Biso   1.000  C
  C170     1.0000 0.07570  0.52720  0.16808  Biso   1.000  C
  C171     1.0000 0.04140  0.57200  0.20121  Biso   1.000  C
  C172     1.0000 0.07040  0.28400  0.22709  Biso   1.000  C
  C173     1.0000 0.18200  0.35420  0.24068  Biso   1.000  C
  C174     1.0000 0.07140  0.64090  0.13671  Biso   1.000  C
  C175     1.0000 0.14450  0.68610  0.11624  Biso   1.000  C
  C176     1.0000 0.99580  0.73890  0.20541  Biso   1.000  C
  C177     1.0000 0.86920  0.68300  0.19468  Biso   1.000  C
  C178     1.0000 0.39390  0.81900  0.23422  Biso   1.000  C
  C179     1.0000 0.37280  0.89130  0.22008  Biso   1.000  C
  C180     1.0000 0.35040  0.85960  0.19878  Biso   1.000  C
  C181     1.0000 0.35160  0.75430  0.19268  Biso   1.000  C
  C182     1.0000 0.37290  0.68650  0.20736  Biso   1.000  C
  C183     1.0000 0.32210  0.93240  0.18307  Biso   1.000  C
  C184     1.0000 0.43930  0.73820  0.04128  Biso   1.000  C
  C185     1.0000 0.53320  0.77720  0.02696  Biso   1.000  C
  C186     1.0000 0.63650  0.76960  0.03189  Biso   1.000  C
  C187     1.0000 0.63500  0.71380  0.05137  Biso   1.000  C
  C188     1.0000 0.53590  0.67610  0.06459  Biso   1.000  C
  C189     1.0000 0.74390  0.81110  0.01628  Biso   1.000  C
  C190     1.0000 0.41420  0.33810  0.36430  Biso   1.000  C
  C191     1.0000 0.52720  0.45150  0.33474  Biso   1.000  C
  C192     1.0000 0.57200  0.53060  0.36787  Biso   1.000  C
  C193     1.0000 0.28400  0.21360  0.39375  Biso   1.000  C
  C194     1.0000 0.35420  0.17220  0.40734  Biso   1.000  C
  C195     1.0000 0.64090  0.56950  0.30337  Biso   1.000  C
  C196     1.0000 0.68610  0.54160  0.28290  Biso   1.000  C
  C197     1.0000 0.73890  0.74310  0.37207  Biso   1.000  C
  C198     1.0000 0.68300  0.81380  0.36134  Biso   1.000  C
  C199     1.0000 0.81900  0.42510  0.40088  Biso   1.000  C
  C200     1.0000 0.89130  0.51850  0.38674  Biso   1.000  C
  C201     1.0000 0.85960  0.50920  0.36544  Biso   1.000  C
  C202     1.0000 0.75430  0.40270  0.35934  Biso   1.000  C
  C203     1.0000 0.68650  0.31360  0.37402  Biso   1.000  C
  C204     1.0000 0.93240  0.61030  0.34973  Biso   1.000  C
  C205     1.0000 0.73820  0.29890  0.20794  Biso   1.000  C
  C206     1.0000 0.77720  0.24400  0.19362  Biso   1.000  C
  C207     1.0000 0.76960  0.13310  0.19855  Biso   1.000  C
  C208     1.0000 0.71380  0.07880  0.21803  Biso   1.000  C
  C209     1.0000 0.67610  0.14020  0.23125  Biso   1.000  C
  C210     1.0000 0.81110  0.06720  0.18294  Biso   1.000  C
  C211     1.0000 0.66190  0.07610  0.03097  Biso   1.000  C
  C212     1.0000 0.54850  0.07570  0.00141  Biso   1.000  C
  C213     1.0000 0.46940  0.04140  0.03454  Biso   1.000  C
  C214     1.0000 0.78640  0.07040  0.06042  Biso   1.000  C
  C215     1.0000 0.82780  0.18200  0.07401  Biso   1.000  C
  C216     1.0000 0.43050  0.07140  0.97004  Biso   1.000  C
  C217     1.0000 0.45840  0.14450  0.94957  Biso   1.000  C
  C218     1.0000 0.25690  0.99580  0.03874  Biso   1.000  C
  C219     1.0000 0.18620  0.86920  0.02801  Biso   1.000  C
  C220     1.0000 0.57490  0.39390  0.06755  Biso   1.000  C
  C221     1.0000 0.48150  0.37280  0.05341  Biso   1.000  C
  C222     1.0000 0.49080  0.35040  0.03211  Biso   1.000  C
  C223     1.0000 0.59730  0.35160  0.02601  Biso   1.000  C
  C224     1.0000 0.68640  0.37290  0.04069  Biso   1.000  C
  C225     1.0000 0.38970  0.32210  0.01640  Biso   1.000  C
  C226     1.0000 0.70110  0.43930  0.87461  Biso   1.000  C
  C227     1.0000 0.75600  0.53320  0.86029  Biso   1.000  C
  C228     1.0000 0.86690  0.63650  0.86522  Biso   1.000  C
  C229     1.0000 0.92120  0.63500  0.88470  Biso   1.000  C
  C230     1.0000 0.85980  0.53590  0.89792  Biso   1.000  C
  C231     1.0000 0.93280  0.74390  0.84961  Biso   1.000  C
  C232     1.0000 0.92390  0.58580  0.69764  Biso   1.000  C
  C233     1.0000 0.92430  0.47280  0.66808  Biso   1.000  C
  C234     1.0000 0.95860  0.42800  0.70121  Biso   1.000  C
  C235     1.0000 0.92960  0.71600  0.72709  Biso   1.000  C
  C236     1.0000 0.81800  0.64580  0.74068  Biso   1.000  C
  C237     1.0000 0.92860  0.35910  0.63671  Biso   1.000  C
  C238     1.0000 0.85550  0.31390  0.61624  Biso   1.000  C
  C239     1.0000 0.00420  0.26110  0.70541  Biso   1.000  C
  C240     1.0000 0.13080  0.31700  0.69468  Biso   1.000  C
  C241     1.0000 0.60610  0.18100  0.73422  Biso   1.000  C
  C242     1.0000 0.62720  0.10870  0.72008  Biso   1.000  C
  C243     1.0000 0.64960  0.14040  0.69878  Biso   1.000  C
  C244     1.0000 0.64840  0.24570  0.69268  Biso   1.000  C
  C245     1.0000 0.62710  0.31350  0.70736  Biso   1.000  C
  C246     1.0000 0.67790  0.06760  0.68307  Biso   1.000  C
  C247     1.0000 0.56070  0.26180  0.54128  Biso   1.000  C
  C248     1.0000 0.46680  0.22280  0.52696  Biso   1.000  C
  C249     1.0000 0.36350  0.23040  0.53189  Biso   1.000  C
  C250     1.0000 0.36500  0.28620  0.55137  Biso   1.000  C
  C251     1.0000 0.46410  0.32390  0.56459  Biso   1.000  C
  C252     1.0000 0.25610  0.18890  0.51628  Biso   1.000  C
  C253     1.0000 0.57670  0.57670  0.50000  Biso   1.000  C
  C254     1.0000 0.00000  0.42330  0.83333  Biso   1.000  C
  C255     1.0000 0.42330  0.00000  0.16667  Biso   1.000  C
  C256     1.0000 0.42330  0.42330  0.00000  Biso   1.000  C
  C257     1.0000 0.00000  0.57670  0.33333  Biso   1.000  C
  C258     1.0000 0.57670  0.00000  0.66667  Biso   1.000  C
  C259     1.0000 0.28800  0.00000  0.66667  Biso   1.000  C
  C260     1.0000 0.71200  0.71200  0.00000  Biso   1.000  C
  C261     1.0000 0.00000  0.28800  0.33333  Biso   1.000  C
  C262     1.0000 0.71200  0.00000  0.16667  Biso   1.000  C
  C263     1.0000 0.28800  0.28800  0.50000  Biso   1.000  C
  C264     1.0000 0.00000  0.71200  0.83333  Biso   1.000  C
  N1       1.0000 0.94700  0.42960  0.45588  Biso   1.000  N
  N2       1.0000 0.90880  0.34340  0.49090  Biso   1.000  N
  N3       1.0000 0.95190  0.54890  0.48671  Biso   1.000  N
  N4       1.0000 0.91630  0.23540  0.46218  Biso   1.000  N
  N5       1.0000 0.91090  0.45820  0.51964  Biso   1.000  N
  N6       1.0000 0.97820  0.62500  0.45279  Biso   1.000  N
  N7       1.0000 0.60620  0.32260  0.43824  Biso   1.000  N
  N8       1.0000 0.56230  0.25090  0.60641  Biso   1.000  N
  N9       1.0000 0.48260  0.05300  0.78921  Biso   1.000  N
  N10      1.0000 0.43460  0.09120  0.82423  Biso   1.000  N
  N11      1.0000 0.59700  0.04810  0.82004  Biso   1.000  N
  N12      1.0000 0.31910  0.08370  0.79551  Biso   1.000  N
  N13      1.0000 0.54730  0.08910  0.85297  Biso   1.000  N
  N14      1.0000 0.64680  0.02180  0.78612  Biso   1.000  N
  N15      1.0000 0.71640  0.39380  0.77157  Biso   1.000  N
  N16      1.0000 0.68860  0.43770  0.93974  Biso   1.000  N
  N17      1.0000 0.57040  0.51740  0.12255  Biso   1.000  N
  N18      1.0000 0.65660  0.56540  0.15757  Biso   1.000  N
  N19      1.0000 0.45110  0.40300  0.15338  Biso   1.000  N
  N20      1.0000 0.76460  0.68090  0.12885  Biso   1.000  N
  N21      1.0000 0.54180  0.45270  0.18631  Biso   1.000  N
  N22      1.0000 0.37500  0.35320  0.11946  Biso   1.000  N
  N23      1.0000 0.67740  0.28360  0.10491  Biso   1.000  N
  N24      1.0000 0.74910  0.31140  0.27308  Biso   1.000  N
  N25      1.0000 0.05300  0.57040  0.95588  Biso   1.000  N
  N26      1.0000 0.09120  0.65660  0.99090  Biso   1.000  N
  N27      1.0000 0.04810  0.45110  0.98671  Biso   1.000  N
  N28      1.0000 0.08370  0.76460  0.96218  Biso   1.000  N
  N29      1.0000 0.08910  0.54180  0.01964  Biso   1.000  N
  N30      1.0000 0.02180  0.37500  0.95279  Biso   1.000  N
  N31      1.0000 0.39380  0.67740  0.93824  Biso   1.000  N
  N32      1.0000 0.43770  0.74910  0.10641  Biso   1.000  N
  N33      1.0000 0.51740  0.94700  0.28921  Biso   1.000  N
  N34      1.0000 0.56540  0.90880  0.32423  Biso   1.000  N
  N35      1.0000 0.40300  0.95190  0.32004  Biso   1.000  N
  N36      1.0000 0.68090  0.91630  0.29551  Biso   1.000  N
  N37      1.0000 0.45270  0.91090  0.35297  Biso   1.000  N
  N38      1.0000 0.35320  0.97820  0.28612  Biso   1.000  N
  N39      1.0000 0.28360  0.60620  0.27157  Biso   1.000  N
  N40      1.0000 0.31140  0.56230  0.43974  Biso   1.000  N
  N41      1.0000 0.42960  0.48260  0.62255  Biso   1.000  N
  N42      1.0000 0.34340  0.43460  0.65757  Biso   1.000  N
  N43      1.0000 0.54890  0.59700  0.65338  Biso   1.000  N
  N44      1.0000 0.23540  0.31910  0.62885  Biso   1.000  N
  N45      1.0000 0.45820  0.54730  0.68631  Biso   1.000  N
  N46      1.0000 0.62500  0.64680  0.61946  Biso   1.000  N
  N47      1.0000 0.32260  0.71640  0.60491  Biso   1.000  N
  N48      1.0000 0.25090  0.68860  0.77308  Biso   1.000  N
  N49      1.0000 0.51740  0.57040  0.87745  Biso   1.000  N
  N50      1.0000 0.56540  0.65660  0.84243  Biso   1.000  N
  N51      1.0000 0.40300  0.45110  0.84662  Biso   1.000  N
  N52      1.0000 0.68090  0.76460  0.87115  Biso   1.000  N
  N53      1.0000 0.45270  0.54180  0.81369  Biso   1.000  N
  N54      1.0000 0.35320  0.37500  0.88054  Biso   1.000  N
  N55      1.0000 0.28360  0.67740  0.89509  Biso   1.000  N
  N56      1.0000 0.31140  0.74910  0.72692  Biso   1.000  N
  N57      1.0000 0.42960  0.94700  0.54412  Biso   1.000  N
  N58      1.0000 0.34340  0.90880  0.50910  Biso   1.000  N
  N59      1.0000 0.54890  0.95190  0.51329  Biso   1.000  N
  N60      1.0000 0.23540  0.91630  0.53782  Biso   1.000  N
  N61      1.0000 0.45820  0.91090  0.48036  Biso   1.000  N
  N62      1.0000 0.62500  0.97820  0.54721  Biso   1.000  N
  N63      1.0000 0.32260  0.60620  0.56176  Biso   1.000  N
  N64      1.0000 0.25090  0.56230  0.39359  Biso   1.000  N
  N65      1.0000 0.05300  0.48260  0.21079  Biso   1.000  N
  N66      1.0000 0.09120  0.43460  0.17577  Biso   1.000  N
  N67      1.0000 0.04810  0.59700  0.17996  Biso   1.000  N
  N68      1.0000 0.08370  0.31910  0.20449  Biso   1.000  N
  N69      1.0000 0.08910  0.54730  0.14703  Biso   1.000  N
  N70      1.0000 0.02180  0.64680  0.21388  Biso   1.000  N
  N71      1.0000 0.39380  0.71640  0.22843  Biso   1.000  N
  N72      1.0000 0.43770  0.68860  0.06026  Biso   1.000  N
  N73      1.0000 0.48260  0.42960  0.37745  Biso   1.000  N
  N74      1.0000 0.43460  0.34340  0.34243  Biso   1.000  N
  N75      1.0000 0.59700  0.54890  0.34662  Biso   1.000  N
  N76      1.0000 0.31910  0.23540  0.37115  Biso   1.000  N
  N77      1.0000 0.54730  0.45820  0.31369  Biso   1.000  N
  N78      1.0000 0.64680  0.62500  0.38054  Biso   1.000  N
  N79      1.0000 0.71640  0.32260  0.39509  Biso   1.000  N
  N80      1.0000 0.68860  0.25090  0.22692  Biso   1.000  N
  N81      1.0000 0.57040  0.05300  0.04412  Biso   1.000  N
  N82      1.0000 0.65660  0.09120  0.00910  Biso   1.000  N
  N83      1.0000 0.45110  0.04810  0.01329  Biso   1.000  N
  N84      1.0000 0.76460  0.08370  0.03782  Biso   1.000  N
  N85      1.0000 0.54180  0.08910  0.98036  Biso   1.000  N
  N86      1.0000 0.37500  0.02180  0.04721  Biso   1.000  N
  N87      1.0000 0.67740  0.39380  0.06176  Biso   1.000  N
  N88      1.0000 0.74910  0.43770  0.89359  Biso   1.000  N
  N89      1.0000 0.94700  0.51740  0.71079  Biso   1.000  N
  N90      1.0000 0.90880  0.56540  0.67577  Biso   1.000  N
  N91      1.0000 0.95190  0.40300  0.67996  Biso   1.000  N
  N92      1.0000 0.91630  0.68090  0.70449  Biso   1.000  N
  N93      1.0000 0.91090  0.45270  0.64703  Biso   1.000  N
  N94      1.0000 0.97820  0.35320  0.71388  Biso   1.000  N
  N95      1.0000 0.60620  0.28360  0.72843  Biso   1.000  N
  N96      1.0000 0.56230  0.31140  0.56026  Biso   1.000  N
  O1       1.0000 0.73300  0.18500  0.43344  Biso   1.000  O
  O2       1.0000 0.82030  0.12990  0.40804  Biso   1.000  O
  O3       1.0000 0.82880  0.44320  0.56007  Biso   1.000  O
  O4       1.0000 0.82790  0.62030  0.55672  Biso   1.000  O
  O5       1.0000 0.14280  0.87430  0.48849  Biso   1.000  O
  O6       1.0000 0.21690  0.80570  0.46313  Biso   1.000  O
  O7       1.0000 0.46580  0.06070  0.43762  Biso   1.000  O
  O8       1.0000 0.70290  0.51070  0.59151  Biso   1.000  O
  O9       1.0000 0.45200  0.26700  0.76677  Biso   1.000  O
  O10      1.0000 0.30960  0.17970  0.74137  Biso   1.000  O
  O11      1.0000 0.61440  0.17120  0.89340  Biso   1.000  O
  O12      1.0000 0.79240  0.17210  0.89005  Biso   1.000  O
  O13      1.0000 0.73150  0.85720  0.82182  Biso   1.000  O
  O14      1.0000 0.58880  0.78310  0.79646  Biso   1.000  O
  O15      1.0000 0.59490  0.53420  0.77095  Biso   1.000  O
  O16      1.0000 0.80780  0.29710  0.92484  Biso   1.000  O
  O17      1.0000 0.81500  0.54800  0.10011  Biso   1.000  O
  O18      1.0000 0.87010  0.69040  0.07471  Biso   1.000  O
  O19      1.0000 0.55680  0.38560  0.22674  Biso   1.000  O
  O20      1.0000 0.37970  0.20760  0.22339  Biso   1.000  O
  O21      1.0000 0.12570  0.26850  0.15516  Biso   1.000  O
  O22      1.0000 0.19430  0.41120  0.12980  Biso   1.000  O
  O23      1.0000 0.93930  0.40510  0.10429  Biso   1.000  O
  O24      1.0000 0.48930  0.19220  0.25818  Biso   1.000  O
  O25      1.0000 0.26700  0.81500  0.93344  Biso   1.000  O
  O26      1.0000 0.17970  0.87010  0.90804  Biso   1.000  O
  O27      1.0000 0.17120  0.55680  0.06007  Biso   1.000  O
  O28      1.0000 0.17210  0.37970  0.05672  Biso   1.000  O
  O29      1.0000 0.85720  0.12570  0.98849  Biso   1.000  O
  O30      1.0000 0.78310  0.19430  0.96313  Biso   1.000  O
  O31      1.0000 0.53420  0.93930  0.93762  Biso   1.000  O
  O32      1.0000 0.29710  0.48930  0.09151  Biso   1.000  O
  O33      1.0000 0.54800  0.73300  0.26677  Biso   1.000  O
  O34      1.0000 0.69040  0.82030  0.24137  Biso   1.000  O
  O35      1.0000 0.38560  0.82880  0.39340  Biso   1.000  O
  O36      1.0000 0.20760  0.82790  0.39005  Biso   1.000  O
  O37      1.0000 0.26850  0.14280  0.32182  Biso   1.000  O
  O38      1.0000 0.41120  0.21690  0.29646  Biso   1.000  O
  O39      1.0000 0.40510  0.46580  0.27095  Biso   1.000  O
  O40      1.0000 0.19220  0.70290  0.42484  Biso   1.000  O
  O41      1.0000 0.18500  0.45200  0.60011  Biso   1.000  O
  O42      1.0000 0.12990  0.30960  0.57471  Biso   1.000  O
  O43      1.0000 0.44320  0.61440  0.72674  Biso   1.000  O
  O44      1.0000 0.62030  0.79240  0.72339  Biso   1.000  O
  O45      1.0000 0.87430  0.73150  0.65516  Biso   1.000  O
  O46      1.0000 0.80570  0.58880  0.62980  Biso   1.000  O
  O47      1.0000 0.06070  0.59490  0.60429  Biso   1.000  O
  O48      1.0000 0.51070  0.80780  0.75818  Biso   1.000  O
  O49      1.0000 0.54800  0.81500  0.89989  Biso   1.000  O
  O50      1.0000 0.69040  0.87010  0.92529  Biso   1.000  O
  O51      1.0000 0.38560  0.55680  0.77326  Biso   1.000  O
  O52      1.0000 0.20760  0.37970  0.77661  Biso   1.000  O
  O53      1.0000 0.26850  0.12570  0.84484  Biso   1.000  O
  O54      1.0000 0.41120  0.19430  0.87020  Biso   1.000  O
  O55      1.0000 0.40510  0.93930  0.89571  Biso   1.000  O
  O56      1.0000 0.19220  0.48930  0.74182  Biso   1.000  O
  O57      1.0000 0.18500  0.73300  0.56656  Biso   1.000  O
  O58      1.0000 0.12990  0.82030  0.59196  Biso   1.000  O
  O59      1.0000 0.44320  0.82880  0.43993  Biso   1.000  O
  O60      1.0000 0.62030  0.82790  0.44328  Biso   1.000  O
  O61      1.0000 0.87430  0.14280  0.51151  Biso   1.000  O
  O62      1.0000 0.80570  0.21690  0.53687  Biso   1.000  O
  O63      1.0000 0.06070  0.46580  0.56238  Biso   1.000  O
  O64      1.0000 0.51070  0.70290  0.40849  Biso   1.000  O
  O65      1.0000 0.26700  0.45200  0.23323  Biso   1.000  O
  O66      1.0000 0.17970  0.30960  0.25863  Biso   1.000  O
  O67      1.0000 0.17120  0.61440  0.10660  Biso   1.000  O
  O68      1.0000 0.17210  0.79240  0.10995  Biso   1.000  O
  O69      1.0000 0.85720  0.73150  0.17818  Biso   1.000  O
  O70      1.0000 0.78310  0.58880  0.20354  Biso   1.000  O
  O71      1.0000 0.53420  0.59490  0.22905  Biso   1.000  O
  O72      1.0000 0.29710  0.80780  0.07516  Biso   1.000  O
  O73      1.0000 0.45200  0.18500  0.39989  Biso   1.000  O
  O74      1.0000 0.30960  0.12990  0.42529  Biso   1.000  O
  O75      1.0000 0.61440  0.44320  0.27326  Biso   1.000  O
  O76      1.0000 0.79240  0.62030  0.27661  Biso   1.000  O
  O77      1.0000 0.73150  0.87430  0.34484  Biso   1.000  O
  O78      1.0000 0.58880  0.80570  0.37020  Biso   1.000  O
  O79      1.0000 0.59490  0.06070  0.39571  Biso   1.000  O
  O80      1.0000 0.80780  0.51070  0.24182  Biso   1.000  O
  O81      1.0000 0.81500  0.26700  0.06656  Biso   1.000  O
  O82      1.0000 0.87010  0.17970  0.09196  Biso   1.000  O
  O83      1.0000 0.55680  0.17120  0.93993  Biso   1.000  O
  O84      1.0000 0.37970  0.17210  0.94328  Biso   1.000  O
  O85      1.0000 0.12570  0.85720  0.01151  Biso   1.000  O
  O86      1.0000 0.19430  0.78310  0.03687  Biso   1.000  O
  O87      1.0000 0.93930  0.53420  0.06238  Biso   1.000  O
  O88      1.0000 0.48930  0.29710  0.90849  Biso   1.000  O
  O89      1.0000 0.73300  0.54800  0.73323  Biso   1.000  O
  O90      1.0000 0.82030  0.69040  0.75863  Biso   1.000  O
  O91      1.0000 0.82880  0.38560  0.60660  Biso   1.000  O
  O92      1.0000 0.82790  0.20760  0.60995  Biso   1.000  O
  O93      1.0000 0.14280  0.26850  0.67818  Biso   1.000  O
  O94      1.0000 0.21690  0.41120  0.70354  Biso   1.000  O
  O95      1.0000 0.46580  0.40510  0.72905  Biso   1.000  O
  O96      1.0000 0.70290  0.19220  0.57516  Biso   1.000  O
