data_image0
_cell_length_a       27.8595
_cell_length_b       27.8595
_cell_length_c       27.8595
_cell_angle_alpha    96.3589
_cell_angle_beta     116.399
_cell_angle_gamma    116.399

_symmetry_space_group_name_H-M    P 1
_symmetry_int_tables_number       1

loop_
  _symmetry_equiv_pos_as_xyz
  'x, y, z'

loop_
  _atom_site_label
  _atom_site_occupancy
  _atom_site_fract_x
  _atom_site_fract_y
  _atom_site_fract_z
  _atom_site_thermal_displace_type
  _atom_site_B_iso_or_equiv
  _atom_site_type_symbol
  Cu1      1.0000 0.77427  0.59704  0.38353  Biso   1.000  Cu
  Cu2      1.0000 0.70956  0.64772  0.36048  Biso   1.000  Cu
  Cu3      1.0000 0.73994  0.64917  0.83509  Biso   1.000  Cu
  Cu4      1.0000 0.72573  0.10927  0.82277  Biso   1.000  Cu
  Cu5      1.0000 0.79044  0.15092  0.93816  Biso   1.000  Cu
  Cu6      1.0000 0.76006  0.59515  0.90923  Biso   1.000  Cu
  Cu7      1.0000 0.21351  0.61647  0.89074  Biso   1.000  Cu
  Cu8      1.0000 0.28724  0.63952  0.84908  Biso   1.000  Cu
  Cu9      1.0000 0.81408  0.16491  0.40485  Biso   1.000  Cu
  Cu10     1.0000 0.28649  0.17723  0.40295  Biso   1.000  Cu
  Cu11     1.0000 0.21276  0.06184  0.35228  Biso   1.000  Cu
  Cu12     1.0000 0.68592  0.09077  0.35083  Biso   1.000  Cu
  H1       1.0000 0.86580  0.65590  0.56810  Biso   1.000  H
  H2       1.0000 0.74440  0.70770  0.53150  Biso   1.000  H
  H3       1.0000 0.77010  0.72780  0.62510  Biso   1.000  H
  H4       1.0000 0.84240  0.71200  0.68920  Biso   1.000  H
  H5       1.0000 0.86980  0.65140  0.79020  Biso   1.000  H
  H6       1.0000 0.89800  0.57120  0.90140  Biso   1.000  H
  H7       1.0000 0.96700  0.56340  0.88520  Biso   1.000  H
  H8       1.0000 0.97890  0.58850  0.81300  Biso   1.000  H
  H9       1.0000 0.07780  0.64470  0.77230  Biso   1.000  H
  H10      1.0000 0.17980  0.67430  0.70110  Biso   1.000  H
  H11      1.0000 0.10930  0.69020  0.62990  Biso   1.000  H
  H12      1.0000 0.02870  0.68940  0.63530  Biso   1.000  H
  H13      1.0000 0.62250  0.59140  0.17330  Biso   1.000  H
  H14      1.0000 0.73690  0.53020  0.21710  Biso   1.000  H
  H15      1.0000 0.71410  0.50620  0.12430  Biso   1.000  H
  H16      1.0000 0.64850  0.52980  0.05590  Biso   1.000  H
  H17      1.0000 0.63210  0.59840  0.95830  Biso   1.000  H
  H18      1.0000 0.54660  0.59570  0.79610  Biso   1.000  H
  H19      1.0000 0.45030  0.56210  0.79040  Biso   1.000  H
  H20      1.0000 0.45000  0.56150  0.87410  Biso   1.000  H
  H21      1.0000 0.42250  0.61010  0.96900  Biso   1.000  H
  H22      1.0000 0.31330  0.57490  0.03500  Biso   1.000  H
  H23      1.0000 0.37530  0.55170  0.10200  Biso   1.000  H
  H24      1.0000 0.46280  0.55580  0.10280  Biso   1.000  H
  H25      1.0000 0.69640  0.63160  0.71180  Biso   1.000  H
  H26      1.0000 0.65880  0.66490  0.63730  Biso   1.000  H
  H27      1.0000 0.66250  0.74910  0.66660  Biso   1.000  H
  H28      1.0000 0.69310  0.79220  0.75590  Biso   1.000  H
  H29      1.0000 0.72900  0.75290  0.82530  Biso   1.000  H
  H30      1.0000 0.83350  0.48780  0.40210  Biso   1.000  H
  H31      1.0000 0.77000  0.47280  0.34680  Biso   1.000  H
  H32      1.0000 0.77610  0.47930  0.40620  Biso   1.000  H
  H33      1.0000 0.57980  0.61590  0.26430  Biso   1.000  H
  H34      1.0000 0.57260  0.66870  0.26570  Biso   1.000  H
  H35      1.0000 0.55970  0.63400  0.30390  Biso   1.000  H
  H36      1.0000 0.63420  0.20230  0.79010  Biso   1.000  H
  H37      1.0000 0.75560  0.28710  0.96330  Biso   1.000  H
  H38      1.0000 0.72990  0.35500  0.95770  Biso   1.000  H
  H39      1.0000 0.65760  0.34680  0.86960  Biso   1.000  H
  H40      1.0000 0.63020  0.42040  0.78160  Biso   1.000  H
  H41      1.0000 0.60200  0.50340  0.67320  Biso   1.000  H
  H42      1.0000 0.53300  0.41820  0.59640  Biso   1.000  H
  H43      1.0000 0.52110  0.33410  0.60960  Biso   1.000  H
  H44      1.0000 0.42220  0.19450  0.56690  Biso   1.000  H
  H45      1.0000 0.32020  0.02130  0.49450  Biso   1.000  H
  H46      1.0000 0.39070  0.02060  0.58090  Biso   1.000  H
  H47      1.0000 0.47130  0.10660  0.66070  Biso   1.000  H
  H48      1.0000 0.87750  0.05080  0.96890  Biso   1.000  H
  H49      1.0000 0.76310  0.98020  0.79330  Biso   1.000  H
  H50      1.0000 0.78590  0.91020  0.79210  Biso   1.000  H
  H51      1.0000 0.85150  0.90740  0.88130  Biso   1.000  H
  H52      1.0000 0.86790  0.82620  0.96630  Biso   1.000  H
  H53      1.0000 0.95340  0.74950  0.04910  Biso   1.000  H
  H54      1.0000 0.04970  0.84010  0.11180  Biso   1.000  H
  H55      1.0000 0.05000  0.92410  0.11150  Biso   1.000  H
  H56      1.0000 0.07750  0.04650  0.18760  Biso   1.000  H
  H57      1.0000 0.18670  0.22170  0.26160  Biso   1.000  H
  H58      1.0000 0.12470  0.22670  0.17640  Biso   1.000  H
  H59      1.0000 0.03720  0.14000  0.09300  Biso   1.000  H
  H60      1.0000 0.80360  0.51540  0.93520  Biso   1.000  H
  H61      1.0000 0.84120  0.47850  0.00610  Biso   1.000  H
  H62      1.0000 0.83750  0.50410  0.08660  Biso   1.000  H
  H63      1.0000 0.80690  0.56280  0.09910  Biso   1.000  H
  H64      1.0000 0.77100  0.59630  0.02390  Biso   1.000  H
  H65      1.0000 0.66650  0.06860  0.65430  Biso   1.000  H
  H66      1.0000 0.73000  0.07680  0.70280  Biso   1.000  H
  H67      1.0000 0.72390  0.13010  0.70320  Biso   1.000  H
  H68      1.0000 0.92020  0.18450  0.03610  Biso   1.000  H
  H69      1.0000 0.92740  0.19310  0.09610  Biso   1.000  H
  H70      1.0000 0.94030  0.24420  0.07430  Biso   1.000  H
  H71      1.0000 0.08780  0.43190  0.79770  Biso   1.000  H
  H72      1.0000 0.17620  0.46850  0.71290  Biso   1.000  H
  H73      1.0000 0.10270  0.37490  0.64500  Biso   1.000  H
  H74      1.0000 0.02280  0.31080  0.65320  Biso   1.000  H
  H75      1.0000 0.86120  0.20980  0.57960  Biso   1.000  H
  H76      1.0000 0.66980  0.09860  0.49660  Biso   1.000  H
  H77      1.0000 0.67820  0.11480  0.58180  Biso   1.000  H
  H78      1.0000 0.77550  0.18700  0.66590  Biso   1.000  H
  H79      1.0000 0.87240  0.22770  0.80550  Biso   1.000  H
  H80      1.0000 0.97320  0.29890  0.97870  Biso   1.000  H
  H81      1.0000 0.06030  0.37010  0.97940  Biso   1.000  H
  H82      1.0000 0.05410  0.36470  0.89340  Biso   1.000  H
  H83      1.0000 0.41810  0.82670  0.94920  Biso   1.000  H
  H84      1.0000 0.31310  0.78290  0.01980  Biso   1.000  H
  H85      1.0000 0.38190  0.87570  0.08980  Biso   1.000  H
  H86      1.0000 0.47390  0.94410  0.09260  Biso   1.000  H
  H87      1.0000 0.64010  0.04170  0.17380  Biso   1.000  H
  H88      1.0000 0.79960  0.20390  0.25050  Biso   1.000  H
  H89      1.0000 0.77170  0.20960  0.15990  Biso   1.000  H
  H90      1.0000 0.68740  0.12590  0.07590  Biso   1.000  H
  H91      1.0000 0.64110  0.03100  0.95350  Biso   1.000  H
  H92      1.0000 0.53990  0.96500  0.77830  Biso   1.000  H
  H93      1.0000 0.44970  0.89800  0.77330  Biso   1.000  H
  H94      1.0000 0.45300  0.89720  0.86000  Biso   1.000  H
  H95      1.0000 0.91980  0.28820  0.48460  Biso   1.000  H
  H96      1.0000 0.02760  0.36270  0.52150  Biso   1.000  H
  H97      1.0000 0.08250  0.33340  0.49590  Biso   1.000  H
  H98      1.0000 0.03630  0.24410  0.43720  Biso   1.000  H
  H99      1.0000 0.92760  0.17470  0.40370  Biso   1.000  H
  H100     1.0000 0.08570  0.59790  0.93140  Biso   1.000  H
  H101     1.0000 0.12600  0.65320  0.92320  Biso   1.000  H
  H102     1.0000 0.07310  0.59380  0.86990  Biso   1.000  H
  H103     1.0000 0.35160  0.73570  0.81550  Biso   1.000  H
  H104     1.0000 0.40300  0.73430  0.80690  Biso   1.000  H
  H105     1.0000 0.33010  0.69610  0.75580  Biso   1.000  H
  H106     1.0000 0.41220  0.20990  0.34410  Biso   1.000  H
  H107     1.0000 0.32380  0.03670  0.29230  Biso   1.000  H
  H108     1.0000 0.39730  0.04230  0.27220  Biso   1.000  H
  H109     1.0000 0.47720  0.13040  0.28800  Biso   1.000  H
  H110     1.0000 0.63880  0.21840  0.34860  Biso   1.000  H
  H111     1.0000 0.83020  0.32680  0.42880  Biso   1.000  H
  H112     1.0000 0.82180  0.40360  0.43660  Biso   1.000  H
  H113     1.0000 0.72450  0.39040  0.41150  Biso   1.000  H
  H114     1.0000 0.62760  0.43310  0.35530  Biso   1.000  H
  H115     1.0000 0.52680  0.50550  0.32570  Biso   1.000  H
  H116     1.0000 0.43970  0.41910  0.30980  Biso   1.000  H
  H117     1.0000 0.44590  0.33930  0.31060  Biso   1.000  H
  H118     1.0000 0.08190  0.03110  0.40860  Biso   1.000  H
  H119     1.0000 0.18690  0.20670  0.46980  Biso   1.000  H
  H120     1.0000 0.11810  0.20790  0.49380  Biso   1.000  H
  H121     1.0000 0.02610  0.11870  0.47020  Biso   1.000  H
  H122     1.0000 0.85990  0.03370  0.40160  Biso   1.000  H
  H123     1.0000 0.70040  0.95090  0.40430  Biso   1.000  H
  H124     1.0000 0.72830  0.88820  0.43790  Biso   1.000  H
  H125     1.0000 0.81260  0.88850  0.43850  Biso   1.000  H
  H126     1.0000 0.85890  0.81240  0.38990  Biso   1.000  H
  H127     1.0000 0.96010  0.73840  0.42510  Biso   1.000  H
  H128     1.0000 0.05030  0.82360  0.44830  Biso   1.000  H
  H129     1.0000 0.04700  0.90700  0.44420  Biso   1.000  H
  H130     1.0000 0.58020  0.06480  0.36840  Biso   1.000  H
  H131     1.0000 0.47240  0.99390  0.33510  Biso   1.000  H
  H132     1.0000 0.41750  0.91340  0.25090  Biso   1.000  H
  H133     1.0000 0.46370  0.90090  0.20780  Biso   1.000  H
  H134     1.0000 0.57240  0.97610  0.24710  Biso   1.000  H
  H135     1.0000 0.41430  0.34570  0.51220  Biso   1.000  H
  H136     1.0000 0.37400  0.29720  0.52720  Biso   1.000  H
  H137     1.0000 0.42690  0.29680  0.52070  Biso   1.000  H
  H138     1.0000 0.14840  0.96390  0.38410  Biso   1.000  H
  H139     1.0000 0.09700  0.90390  0.33130  Biso   1.000  H
  H140     1.0000 0.16990  0.92570  0.36600  Biso   1.000  H
  C1       1.0000 0.90931  0.67411  0.67782  Biso   1.000  C
  C2       1.0000 0.93990  0.64650  0.75300  Biso   1.000  C
  C3       1.0000 0.99130  0.66228  0.70798  Biso   1.000  C
  C4       1.0000 0.86310  0.68478  0.63648  Biso   1.000  C
  C5       1.0000 0.84640  0.67043  0.57923  Biso   1.000  C
  C6       1.0000 0.80120  0.67784  0.53904  Biso   1.000  C
  C7       1.0000 0.77360  0.70093  0.55753  Biso   1.000  C
  C8       1.0000 0.78920  0.71339  0.61339  Biso   1.000  C
  C9       1.0000 0.83290  0.70452  0.65162  Biso   1.000  C
  C10      1.0000 0.78101  0.66029  0.47714  Biso   1.000  C
  C11      1.0000 0.93000  0.62780  0.79800  Biso   1.000  C
  C12      1.0000 0.88990  0.63410  0.80940  Biso   1.000  C
  C13      1.0000 0.87940  0.61520  0.84900  Biso   1.000  C
  C14      1.0000 0.90710  0.58593  0.87603  Biso   1.000  C
  C15      1.0000 0.94600  0.57966  0.86506  Biso   1.000  C
  C16      1.0000 0.95560  0.59718  0.82378  Biso   1.000  C
  C17      1.0000 0.83330  0.62016  0.86046  Biso   1.000  C
  C18      1.0000 0.04410  0.66507  0.70377  Biso   1.000  C
  C19      1.0000 0.08480  0.65450  0.74410  Biso   1.000  C
  C20      1.0000 0.13660  0.65793  0.74413  Biso   1.000  C
  C21      1.0000 0.14570  0.67170  0.70180  Biso   1.000  C
  C22      1.0000 0.10370  0.68220  0.65930  Biso   1.000  C
  C23      1.0000 0.05480  0.68040  0.66180  Biso   1.000  C
  C24      1.0000 0.17930  0.64550  0.78900  Biso   1.000  C
  C25      1.0000 0.58360  0.57121  0.06501  Biso   1.000  C
  C26      1.0000 0.54140  0.57790  0.97750  Biso   1.000  C
  C27      1.0000 0.50210  0.58290  0.03160  Biso   1.000  C
  C28      1.0000 0.63080  0.56270  0.10910  Biso   1.000  C
  C29      1.0000 0.64190  0.57550  0.16400  Biso   1.000  C
  C30      1.0000 0.68360  0.56360  0.20620  Biso   1.000  C
  C31      1.0000 0.70990  0.53810  0.19000  Biso   1.000  C
  C32      1.0000 0.69690  0.52420  0.13450  Biso   1.000  C
  C33      1.0000 0.65680  0.53780  0.09300  Biso   1.000  C
  C34      1.0000 0.70305  0.58374  0.26631  Biso   1.000  C
  C35      1.0000 0.54280  0.58140  0.92680  Biso   1.000  C
  C36      1.0000 0.59710  0.59340  0.92550  Biso   1.000  C
  C37      1.0000 0.60100  0.59790  0.87910  Biso   1.000  C
  C38      1.0000 0.54430  0.58940  0.82730  Biso   1.000  C
  C39      1.0000 0.48730  0.57210  0.82480  Biso   1.000  C
  C40      1.0000 0.48650  0.57010  0.87460  Biso   1.000  C
  C41      1.0000 0.65860  0.61230  0.87930  Biso   1.000  C
  C42      1.0000 0.45110  0.58373  0.03563  Biso   1.000  C
  C43      1.0000 0.41317  0.59827  0.99544  Biso   1.000  C
  C44      1.0000 0.36197  0.59524  0.99501  Biso   1.000  C
  C45      1.0000 0.34800  0.57724  0.03564  Biso   1.000  C
  C46      1.0000 0.38470  0.56300  0.07550  Biso   1.000  C
  C47      1.0000 0.43780  0.56570  0.07630  Biso   1.000  C
  C48      1.0000 0.32140  0.60971  0.95151  Biso   1.000  C
  C49      1.0000 0.69640  0.66470  0.72110  Biso   1.000  C
  C50      1.0000 0.67350  0.68370  0.67540  Biso   1.000  C
  C51      1.0000 0.67540  0.73350  0.69390  Biso   1.000  C
  C52      1.0000 0.69380  0.75960  0.74580  Biso   1.000  C
  C53      1.0000 0.71570  0.73540  0.78750  Biso   1.000  C
  C54      1.0000 0.79890  0.49350  0.38800  Biso   1.000  C
  C55      1.0000 0.58550  0.64810  0.28840  Biso   1.000  C
  C56      1.0000 0.59069  0.26851  0.76480  Biso   1.000  C
  C57      1.0000 0.56010  0.31310  0.70660  Biso   1.000  C
  C58      1.0000 0.50870  0.21668  0.67098  Biso   1.000  C
  C59      1.0000 0.63690  0.27338  0.82168  Biso   1.000  C
  C60      1.0000 0.65360  0.23283  0.82403  Biso   1.000  C
  C61      1.0000 0.69880  0.23784  0.87664  Biso   1.000  C
  C62      1.0000 0.72640  0.28393  0.92733  Biso   1.000  C
  C63      1.0000 0.71080  0.32419  0.92419  Biso   1.000  C
  C64      1.0000 0.66710  0.31872  0.87162  Biso   1.000  C
  C65      1.0000 0.71899  0.19613  0.87928  Biso   1.000  C
  C66      1.0000 0.57000  0.36800  0.69780  Biso   1.000  C
  C67      1.0000 0.61010  0.41950  0.74420  Biso   1.000  C
  C68      1.0000 0.62060  0.46960  0.73580  Biso   1.000  C
  C69      1.0000 0.59290  0.46893  0.67883  Biso   1.000  C
  C70      1.0000 0.55400  0.41906  0.63366  Biso   1.000  C
  C71      1.0000 0.54440  0.36818  0.64158  Biso   1.000  C
  C72      1.0000 0.66670  0.52716  0.78686  Biso   1.000  C
  C73      1.0000 0.45590  0.15967  0.62097  Biso   1.000  C
  C74      1.0000 0.41520  0.15930  0.56970  Biso   1.000  C
  C75      1.0000 0.36340  0.10753  0.52133  Biso   1.000  C
  C76      1.0000 0.35430  0.05610  0.52600  Biso   1.000  C
  C77      1.0000 0.39630  0.05560  0.57850  Biso   1.000  C
  C78      1.0000 0.44520  0.10700  0.62560  Biso   1.000  C
  C79      1.0000 0.32070  0.10970  0.46620  Biso   1.000  C
  C80      1.0000 0.91640  0.98141  0.98761  Biso   1.000  C
  C81      1.0000 0.95860  0.93610  0.03650  Biso   1.000  C
  C82      1.0000 0.99790  0.02950  0.08080  Biso   1.000  C
  C83      1.0000 0.86920  0.97830  0.93190  Biso   1.000  C
  C84      1.0000 0.85810  0.02210  0.93360  Biso   1.000  C
  C85      1.0000 0.81640  0.02260  0.88000  Biso   1.000  C
  C86      1.0000 0.79010  0.98010  0.82820  Biso   1.000  C
  C87      1.0000 0.80310  0.93760  0.82730  Biso   1.000  C
  C88      1.0000 0.84320  0.93620  0.88100  Biso   1.000  C
  C89      1.0000 0.79695  0.06326  0.88069  Biso   1.000  C
  C90      1.0000 0.95720  0.88400  0.03860  Biso   1.000  C
  C91      1.0000 0.90290  0.82840  0.99630  Biso   1.000  C
  C92      1.0000 0.89900  0.77810  0.99690  Biso   1.000  C
  C93      1.0000 0.95570  0.78300  0.04510  Biso   1.000  C
  C94      1.0000 0.01270  0.83750  0.08480  Biso   1.000  C
  C95      1.0000 0.01350  0.88810  0.08360  Biso   1.000  C
  C96      1.0000 0.84140  0.72070  0.95370  Biso   1.000  C
  C97      1.0000 0.04890  0.08453  0.13263  Biso   1.000  C
  C98      1.0000 0.08683  0.08227  0.18510  Biso   1.000  C
  C99      1.0000 0.13803  0.13304  0.23327  Biso   1.000  C
  C100     1.0000 0.15200  0.18764  0.22924  Biso   1.000  C
  C101     1.0000 0.11530  0.19080  0.17830  Biso   1.000  C
  C102     1.0000 0.06220  0.13850  0.12790  Biso   1.000  C
  C103     1.0000 0.17860  0.13011  0.28831  Biso   1.000  C
  C104     1.0000 0.80360  0.52470  0.96830  Biso   1.000  C
  C105     1.0000 0.82650  0.50190  0.01020  Biso   1.000  C
  C106     1.0000 0.82460  0.51850  0.05810  Biso   1.000  C
  C107     1.0000 0.80620  0.55200  0.06580  Biso   1.000  C
  C108     1.0000 0.78430  0.57180  0.01970  Biso   1.000  C
  C109     1.0000 0.70110  0.08910  0.69460  Biso   1.000  C
  C110     1.0000 0.91450  0.20290  0.06260  Biso   1.000  C
  C111     1.0000 0.99629  0.32218  0.73149  Biso   1.000  C
  C112     1.0000 0.89350  0.24700  0.68690  Biso   1.000  C
  C113     1.0000 0.95430  0.29202  0.78332  Biso   1.000  C
  C114     1.0000 0.04830  0.36352  0.72662  Biso   1.000  C
  C115     1.0000 0.09120  0.42077  0.76717  Biso   1.000  C
  C116     1.0000 0.13880  0.46096  0.76216  Biso   1.000  C
  C117     1.0000 0.14340  0.44247  0.71607  Biso   1.000  C
  C118     1.0000 0.10000  0.38661  0.67581  Biso   1.000  C
  C119     1.0000 0.05290  0.34838  0.68128  Biso   1.000  C
  C120     1.0000 0.18315  0.52286  0.80387  Biso   1.000  C
  C121     1.0000 0.82980  0.20200  0.63200  Biso   1.000  C
  C122     1.0000 0.82470  0.19060  0.58050  Biso   1.000  C
  C123     1.0000 0.76620  0.15100  0.53040  Biso   1.000  C
  C124     1.0000 0.70990  0.12397  0.53107  Biso   1.000  C
  C125     1.0000 0.71460  0.13494  0.58094  Biso   1.000  C
  C126     1.0000 0.77340  0.17622  0.63182  Biso   1.000  C
  C127     1.0000 0.75970  0.13954  0.47284  Biso   1.000  C
  C128     1.0000 0.96130  0.29623  0.84033  Biso   1.000  C
  C129     1.0000 0.91040  0.25590  0.84070  Biso   1.000  C
  C130     1.0000 0.91380  0.25587  0.89247  Biso   1.000  C
  C131     1.0000 0.96990  0.29820  0.94390  Biso   1.000  C
  C132     1.0000 0.02290  0.34070  0.94440  Biso   1.000  C
  C133     1.0000 0.01860  0.33820  0.89300  Biso   1.000  C
  C134     1.0000 0.85650  0.21100  0.89030  Biso   1.000  C
  C135     1.0000 0.50620  0.93499  0.01859  Biso   1.000  C
  C136     1.0000 0.60040  0.02250  0.06390  Biso   1.000  C
  C137     1.0000 0.55130  0.96840  0.97050  Biso   1.000  C
  C138     1.0000 0.45360  0.89090  0.02170  Biso   1.000  C
  C139     1.0000 0.41150  0.83600  0.97790  Biso   1.000  C
  C140     1.0000 0.35740  0.79380  0.97740  Biso   1.000  C
  C141     1.0000 0.34810  0.81000  0.01990  Biso   1.000  C
  C142     1.0000 0.38970  0.86550  0.06240  Biso   1.000  C
  C143     1.0000 0.44480  0.90700  0.06380  Biso   1.000  C
  C144     1.0000 0.31743  0.73369  0.93674  Biso   1.000  C
  C145     1.0000 0.65460  0.07320  0.11600  Biso   1.000  C
  C146     1.0000 0.66790  0.07450  0.17160  Biso   1.000  C
  C147     1.0000 0.71880  0.12090  0.22190  Biso   1.000  C
  C148     1.0000 0.76210  0.17270  0.21700  Biso   1.000  C
  C149     1.0000 0.74730  0.17520  0.16250  Biso   1.000  C
  C150     1.0000 0.69550  0.12540  0.11190  Biso   1.000  C
  C151     1.0000 0.73300  0.12070  0.27930  Biso   1.000  C
  C152     1.0000 0.54810  0.96437  0.91547  Biso   1.000  C
  C153     1.0000 0.60283  0.00456  0.91773  Biso   1.000  C
  C154     1.0000 0.60023  0.00499  0.86696  Biso   1.000  C
  C155     1.0000 0.54160  0.96436  0.81236  Biso   1.000  C
  C156     1.0000 0.48750  0.92450  0.80920  Biso   1.000  C
  C157     1.0000 0.48940  0.92370  0.86150  Biso   1.000  C
  C158     1.0000 0.65820  0.04849  0.86989  Biso   1.000  C
  C159     1.0000 0.94360  0.27890  0.47530  Biso   1.000  C
  C160     1.0000 0.00830  0.32460  0.49810  Biso   1.000  C
  C161     1.0000 0.03960  0.30610  0.48150  Biso   1.000  C
  C162     1.0000 0.01380  0.25420  0.44800  Biso   1.000  C
  C163     1.0000 0.94790  0.21250  0.42820  Biso   1.000  C
  C164     1.0000 0.10550  0.61200  0.91090  Biso   1.000  C
  C165     1.0000 0.35970  0.71160  0.79710  Biso   1.000  C
  C166     1.0000 0.50371  0.23520  0.32589  Biso   1.000  C
  C167     1.0000 0.60650  0.29340  0.35350  Biso   1.000  C
  C168     1.0000 0.54570  0.32902  0.33772  Biso   1.000  C
  C169     1.0000 0.45170  0.17832  0.31522  Biso   1.000  C
  C170     1.0000 0.40880  0.17597  0.32957  Biso   1.000  C
  C171     1.0000 0.36120  0.12336  0.32216  Biso   1.000  C
  C172     1.0000 0.35660  0.07267  0.29907  Biso   1.000  C
  C173     1.0000 0.40000  0.07581  0.28661  Biso   1.000  C
  C174     1.0000 0.44710  0.12838  0.29548  Biso   1.000  C
  C175     1.0000 0.31685  0.12072  0.33971  Biso   1.000  C
  C176     1.0000 0.67020  0.30220  0.37220  Biso   1.000  C
  C177     1.0000 0.67530  0.25580  0.36590  Biso   1.000  C
  C178     1.0000 0.73380  0.26420  0.38480  Biso   1.000  C
  C179     1.0000 0.79010  0.32117  0.41407  Biso   1.000  C
  C180     1.0000 0.78540  0.36634  0.42034  Biso   1.000  C
  C181     1.0000 0.72660  0.35842  0.40282  Biso   1.000  C
  C182     1.0000 0.74030  0.21314  0.37984  Biso   1.000  C
  C183     1.0000 0.53870  0.37903  0.33493  Biso   1.000  C
  C184     1.0000 0.58960  0.43030  0.34550  Biso   1.000  C
  C185     1.0000 0.58620  0.47867  0.34207  Biso   1.000  C
  C186     1.0000 0.53010  0.47400  0.32830  Biso   1.000  C
  C187     1.0000 0.47710  0.42150  0.31780  Biso   1.000  C
  C188     1.0000 0.48140  0.37440  0.31960  Biso   1.000  C
  C189     1.0000 0.64350  0.53380  0.35450  Biso   1.000  C
  C190     1.0000 0.99380  0.01239  0.42879  Biso   1.000  C
  C191     1.0000 0.89960  0.96350  0.42210  Biso   1.000  C
  C192     1.0000 0.94870  0.91920  0.41710  Biso   1.000  C
  C193     1.0000 0.04640  0.06810  0.43730  Biso   1.000  C
  C194     1.0000 0.08850  0.06640  0.42450  Biso   1.000  C
  C195     1.0000 0.14260  0.12000  0.43640  Biso   1.000  C
  C196     1.0000 0.15190  0.17180  0.46190  Biso   1.000  C
  C197     1.0000 0.11030  0.17270  0.47580  Biso   1.000  C
  C198     1.0000 0.05520  0.11900  0.46220  Biso   1.000  C
  C199     1.0000 0.18257  0.11931  0.41626  Biso   1.000  C
  C200     1.0000 0.84540  0.96140  0.41860  Biso   1.000  C
  C201     1.0000 0.83210  0.00370  0.40660  Biso   1.000  C
  C202     1.0000 0.78120  0.00310  0.40210  Biso   1.000  C
  C203     1.0000 0.73790  0.95490  0.41060  Biso   1.000  C
  C204     1.0000 0.75270  0.91520  0.42790  Biso   1.000  C
  C205     1.0000 0.80450  0.91640  0.42990  Biso   1.000  C
  C206     1.0000 0.76700  0.04630  0.38770  Biso   1.000  C
  C207     1.0000 0.95190  0.86737  0.41627  Biso   1.000  C
  C208     1.0000 0.89717  0.81490  0.40173  Biso   1.000  C
  C209     1.0000 0.89977  0.76673  0.40476  Biso   1.000  C
  C210     1.0000 0.95840  0.77076  0.42276  Biso   1.000  C
  C211     1.0000 0.01250  0.82170  0.43700  Biso   1.000  C
  C212     1.0000 0.01060  0.87210  0.43430  Biso   1.000  C
  C213     1.0000 0.84180  0.71169  0.39029  Biso   1.000  C
  C214     1.0000 0.55640  0.03170  0.33530  Biso   1.000  C
  C215     1.0000 0.49170  0.98980  0.31630  Biso   1.000  C
  C216     1.0000 0.46040  0.94190  0.26650  Biso   1.000  C
  C217     1.0000 0.48620  0.93420  0.24040  Biso   1.000  C
  C218     1.0000 0.55210  0.98030  0.26460  Biso   1.000  C
  C219     1.0000 0.39450  0.30540  0.50650  Biso   1.000  C
  C220     1.0000 0.14030  0.93740  0.35190  Biso   1.000  C
  N1       1.0000 0.95408  0.67515  0.67035  Biso   1.000  N
  N2       1.0000 0.90294  0.66156  0.72070  Biso   1.000  N
  N3       1.0000 0.98577  0.64673  0.74930  Biso   1.000  N
  N4       1.0000 0.54234  0.57506  0.07300  Biso   1.000  N
  N5       1.0000 0.58722  0.57288  0.01790  Biso   1.000  N
  N6       1.0000 0.49970  0.58513  0.98283  Biso   1.000  N
  N7       1.0000 0.71734  0.68983  0.77447  Biso   1.000  N
  N8       1.0000 0.54592  0.21627  0.72107  Biso   1.000  N
  N9       1.0000 0.59706  0.31776  0.75862  Biso   1.000  N
  N10      1.0000 0.51423  0.26353  0.66096  Biso   1.000  N
  N11      1.0000 0.95766  0.03066  0.03272  Biso   1.000  N
  N12      1.0000 0.91278  0.93068  0.98566  Biso   1.000  N
  N13      1.0000 0.00030  0.98313  0.08543  Biso   1.000  N
  N14      1.0000 0.78266  0.55713  0.97249  Biso   1.000  N
  N15      1.0000 0.00480  0.32965  0.78373  Biso   1.000  N
  N16      1.0000 0.94086  0.27930  0.68224  Biso   1.000  N
  N17      1.0000 0.89743  0.25070  0.73647  Biso   1.000  N
  N18      1.0000 0.50206  0.92700  0.96934  Biso   1.000  N
  N19      1.0000 0.55498  0.98210  0.06932  Biso   1.000  N
  N20      1.0000 0.60230  0.01717  0.01687  Biso   1.000  N
  N21      1.0000 0.91536  0.22553  0.44287  Biso   1.000  N
  N22      1.0000 0.49520  0.27893  0.32485  Biso   1.000  N
  N23      1.0000 0.55914  0.24138  0.33844  Biso   1.000  N
  N24      1.0000 0.60257  0.33904  0.35327  Biso   1.000  N
  N25      1.0000 0.99794  0.96728  0.42494  Biso   1.000  N
  N26      1.0000 0.94502  0.01434  0.42712  Biso   1.000  N
  N27      1.0000 0.89770  0.91457  0.41487  Biso   1.000  N
  N28      1.0000 0.58464  0.02751  0.31017  Biso   1.000  N
  O1       1.0000 0.80264  0.63346  0.46398  Biso   1.000  O
  O2       1.0000 0.74425  0.67195  0.44446  Biso   1.000  O
  O3       1.0000 0.81023  0.64670  0.83637  Biso   1.000  O
  O4       1.0000 0.81995  0.59483  0.89146  Biso   1.000  O
  O5       1.0000 0.16403  0.62996  0.82383  Biso   1.000  O
  O6       1.0000 0.22751  0.65231  0.79004  Biso   1.000  O
  O7       1.0000 0.68387  0.61332  0.28045  Biso   1.000  O
  O8       1.0000 0.73668  0.56866  0.30048  Biso   1.000  O
  O9       1.0000 0.69538  0.60067  0.91563  Biso   1.000  O
  O10      1.0000 0.66906  0.63377  0.84539  Biso   1.000  O
  O11      1.0000 0.33502  0.62281  0.91429  Biso   1.000  O
  O12      1.0000 0.27565  0.60683  0.95174  Biso   1.000  O
  O13      1.0000 0.82490  0.55509  0.40191  Biso   1.000  O
  O14      1.0000 0.66164  0.69192  0.34174  Biso   1.000  O
  O15      1.0000 0.69736  0.16134  0.83082  Biso   1.000  O
  O16      1.0000 0.75575  0.20021  0.92770  Biso   1.000  O
  O17      1.0000 0.68977  0.52614  0.83647  Biso   1.000  O
  O18      1.0000 0.68005  0.57151  0.77488  Biso   1.000  O
  O19      1.0000 0.33597  0.15980  0.46593  Biso   1.000  O
  O20      1.0000 0.27249  0.06253  0.42480  Biso   1.000  O
  O21      1.0000 0.81613  0.09658  0.92945  Biso   1.000  O
  O22      1.0000 0.76332  0.06380  0.83198  Biso   1.000  O
  O23      1.0000 0.80462  0.72025  0.90529  Biso   1.000  O
  O24      1.0000 0.83094  0.67633  0.96471  Biso   1.000  O
  O25      1.0000 0.16498  0.07927  0.28779  Biso   1.000  O
  O26      1.0000 0.22435  0.17609  0.33118  Biso   1.000  O
  O27      1.0000 0.67510  0.07701  0.73019  Biso   1.000  O
  O28      1.0000 0.83836  0.18010  0.03028  Biso   1.000  O
  O29      1.0000 0.16948  0.53602  0.83866  Biso   1.000  O
  O30      1.0000 0.22749  0.55554  0.79979  Biso   1.000  O
  O31      1.0000 0.81033  0.16363  0.47386  Biso   1.000  O
  O32      1.0000 0.70337  0.10854  0.42849  Biso   1.000  O
  O33      1.0000 0.80613  0.17617  0.84020  Biso   1.000  O
  O34      1.0000 0.86227  0.20996  0.93747  Biso   1.000  O
  O35      1.0000 0.33287  0.71955  0.90342  Biso   1.000  O
  O36      1.0000 0.26818  0.69952  0.93620  Biso   1.000  O
  O37      1.0000 0.68504  0.08437  0.27975  Biso   1.000  O
  O38      1.0000 0.78838  0.15461  0.32367  Biso   1.000  O
  O39      1.0000 0.70852  0.08571  0.92073  Biso   1.000  O
  O40      1.0000 0.65509  0.04826  0.82391  Biso   1.000  O
  O41      1.0000 0.15318  0.59809  0.92299  Biso   1.000  O
  O42      1.0000 0.35018  0.65826  0.81990  Biso   1.000  O
  O43      1.0000 0.33052  0.16918  0.36654  Biso   1.000  O
  O44      1.0000 0.27251  0.07230  0.32805  Biso   1.000  O
  O45      1.0000 0.68967  0.16353  0.35330  Biso   1.000  O
  O46      1.0000 0.79663  0.22512  0.40517  Biso   1.000  O
  O47      1.0000 0.69387  0.53407  0.37004  Biso   1.000  O
  O48      1.0000 0.63773  0.57520  0.34769  Biso   1.000  O
  O49      1.0000 0.16713  0.07055  0.38668  Biso   1.000  O
  O50      1.0000 0.23182  0.16802  0.43134  Biso   1.000  O
  O51      1.0000 0.81496  0.09471  0.39933  Biso   1.000  O
  O52      1.0000 0.71162  0.03529  0.36623  Biso   1.000  O
  O53      1.0000 0.79148  0.71221  0.37719  Biso   1.000  O
  O54      1.0000 0.84491  0.66882  0.39317  Biso   1.000  O
  O55      1.0000 0.34682  0.26981  0.44491  Biso   1.000  O
  O56      1.0000 0.14982  0.96972  0.30808  Biso   1.000  O
  Cu13     1.0000 0.78649  0.38353  0.10926  Biso   1.000  Cu
  Cu14     1.0000 0.71276  0.36048  0.15092  Biso   1.000  Cu
  Cu15     1.0000 0.18592  0.83509  0.59515  Biso   1.000  Cu
  Cu16     1.0000 0.71351  0.82277  0.59705  Biso   1.000  Cu
  Cu17     1.0000 0.78724  0.93816  0.64772  Biso   1.000  Cu
  Cu18     1.0000 0.31408  0.90923  0.64917  Biso   1.000  Cu
  Cu19     1.0000 0.22573  0.40296  0.61647  Biso   1.000  Cu
  Cu20     1.0000 0.29044  0.35228  0.63952  Biso   1.000  Cu
  Cu21     1.0000 0.26006  0.35083  0.16491  Biso   1.000  Cu
  Cu22     1.0000 0.27427  0.89073  0.17723  Biso   1.000  Cu
  Cu23     1.0000 0.20956  0.84908  0.06184  Biso   1.000  Cu
  Cu24     1.0000 0.23994  0.40485  0.09077  Biso   1.000  Cu
  H141     1.0000 0.91220  0.56810  0.20230  Biso   1.000  H
  H142     1.0000 0.82380  0.53150  0.28710  Biso   1.000  H
  H143     1.0000 0.89730  0.62510  0.35500  Biso   1.000  H
  H144     1.0000 0.97720  0.68920  0.34680  Biso   1.000  H
  H145     1.0000 0.13880  0.79020  0.42040  Biso   1.000  H
  H146     1.0000 0.33020  0.90140  0.50340  Biso   1.000  H
  H147     1.0000 0.32180  0.88520  0.41820  Biso   1.000  H
  H148     1.0000 0.22450  0.81300  0.33410  Biso   1.000  H
  H149     1.0000 0.12760  0.77230  0.19450  Biso   1.000  H
  H150     1.0000 0.02680  0.70110  0.02130  Biso   1.000  H
  H151     1.0000 0.93970  0.62990  0.02060  Biso   1.000  H
  H152     1.0000 0.94590  0.63530  0.10660  Biso   1.000  H
  H153     1.0000 0.58190  0.17330  0.05080  Biso   1.000  H
  H154     1.0000 0.68690  0.21710  0.98020  Biso   1.000  H
  H155     1.0000 0.61810  0.12430  0.91020  Biso   1.000  H
  H156     1.0000 0.52610  0.05590  0.90740  Biso   1.000  H
  H157     1.0000 0.35990  0.95830  0.82620  Biso   1.000  H
  H158     1.0000 0.20040  0.79610  0.74950  Biso   1.000  H
  H159     1.0000 0.22830  0.79040  0.84010  Biso   1.000  H
  H160     1.0000 0.31260  0.87410  0.92410  Biso   1.000  H
  H161     1.0000 0.35890  0.96900  0.04650  Biso   1.000  H
  H162     1.0000 0.46010  0.03500  0.22170  Biso   1.000  H
  H163     1.0000 0.55030  0.10200  0.22670  Biso   1.000  H
  H164     1.0000 0.54700  0.10280  0.14000  Biso   1.000  H
  H165     1.0000 0.08020  0.71180  0.51540  Biso   1.000  H
  H166     1.0000 0.97240  0.63730  0.47850  Biso   1.000  H
  H167     1.0000 0.91750  0.66660  0.50410  Biso   1.000  H
  H168     1.0000 0.96370  0.75590  0.56280  Biso   1.000  H
  H169     1.0000 0.07240  0.82530  0.59630  Biso   1.000  H
  H170     1.0000 0.91430  0.40210  0.06860  Biso   1.000  H
  H171     1.0000 0.87400  0.34680  0.07680  Biso   1.000  H
  H172     1.0000 0.92690  0.40620  0.13010  Biso   1.000  H
  H173     1.0000 0.64840  0.26430  0.18450  Biso   1.000  H
  H174     1.0000 0.59700  0.26570  0.19310  Biso   1.000  H
  H175     1.0000 0.66990  0.30390  0.24420  Biso   1.000  H
  H176     1.0000 0.58780  0.79010  0.65590  Biso   1.000  H
  H177     1.0000 0.67620  0.96330  0.70770  Biso   1.000  H
  H178     1.0000 0.60270  0.95770  0.72780  Biso   1.000  H
  H179     1.0000 0.52280  0.86960  0.71200  Biso   1.000  H
  H180     1.0000 0.36120  0.78160  0.65140  Biso   1.000  H
  H181     1.0000 0.16980  0.67320  0.57120  Biso   1.000  H
  H182     1.0000 0.17820  0.59640  0.56340  Biso   1.000  H
  H183     1.0000 0.27550  0.60960  0.58850  Biso   1.000  H
  H184     1.0000 0.37240  0.56690  0.64470  Biso   1.000  H
  H185     1.0000 0.47320  0.49450  0.67430  Biso   1.000  H
  H186     1.0000 0.56030  0.58090  0.69020  Biso   1.000  H
  H187     1.0000 0.55410  0.66070  0.68940  Biso   1.000  H
  H188     1.0000 0.91810  0.96890  0.59140  Biso   1.000  H
  H189     1.0000 0.81310  0.79330  0.53020  Biso   1.000  H
  H190     1.0000 0.88190  0.79210  0.50620  Biso   1.000  H
  H191     1.0000 0.97390  0.88130  0.52980  Biso   1.000  H
  H192     1.0000 0.14010  0.96630  0.59840  Biso   1.000  H
  H193     1.0000 0.29960  0.04910  0.59570  Biso   1.000  H
  H194     1.0000 0.27170  0.11180  0.56210  Biso   1.000  H
  H195     1.0000 0.18740  0.11150  0.56150  Biso   1.000  H
  H196     1.0000 0.14110  0.18760  0.61010  Biso   1.000  H
  H197     1.0000 0.03990  0.26160  0.57490  Biso   1.000  H
  H198     1.0000 0.94970  0.17640  0.55170  Biso   1.000  H
  H199     1.0000 0.95300  0.09300  0.55580  Biso   1.000  H
  H200     1.0000 0.41980  0.93520  0.63160  Biso   1.000  H
  H201     1.0000 0.52760  0.00610  0.66490  Biso   1.000  H
  H202     1.0000 0.58250  0.08660  0.74910  Biso   1.000  H
  H203     1.0000 0.53630  0.09910  0.79220  Biso   1.000  H
  H204     1.0000 0.42760  0.02390  0.75290  Biso   1.000  H
  H205     1.0000 0.58570  0.65430  0.48780  Biso   1.000  H
  H206     1.0000 0.62600  0.70280  0.47280  Biso   1.000  H
  H207     1.0000 0.57310  0.70320  0.47930  Biso   1.000  H
  H208     1.0000 0.85160  0.03610  0.61590  Biso   1.000  H
  H209     1.0000 0.90300  0.09610  0.66870  Biso   1.000  H
  H210     1.0000 0.83010  0.07430  0.63400  Biso   1.000  H
  H211     1.0000 0.13420  0.34410  0.43190  Biso   1.000  H
  H212     1.0000 0.25560  0.29230  0.46850  Biso   1.000  H
  H213     1.0000 0.22990  0.27220  0.37490  Biso   1.000  H
  H214     1.0000 0.15760  0.28800  0.31080  Biso   1.000  H
  H215     1.0000 0.13020  0.34860  0.20980  Biso   1.000  H
  H216     1.0000 0.10200  0.42880  0.09860  Biso   1.000  H
  H217     1.0000 0.03300  0.43660  0.11480  Biso   1.000  H
  H218     1.0000 0.02110  0.41150  0.18700  Biso   1.000  H
  H219     1.0000 0.92220  0.35530  0.22770  Biso   1.000  H
  H220     1.0000 0.82020  0.32570  0.29890  Biso   1.000  H
  H221     1.0000 0.89070  0.30980  0.37010  Biso   1.000  H
  H222     1.0000 0.97130  0.31060  0.36470  Biso   1.000  H
  H223     1.0000 0.37750  0.40860  0.82670  Biso   1.000  H
  H224     1.0000 0.26310  0.46980  0.78290  Biso   1.000  H
  H225     1.0000 0.28590  0.49380  0.87570  Biso   1.000  H
  H226     1.0000 0.35150  0.47020  0.94410  Biso   1.000  H
  H227     1.0000 0.36790  0.40160  0.04170  Biso   1.000  H
  H228     1.0000 0.45340  0.40430  0.20390  Biso   1.000  H
  H229     1.0000 0.54970  0.43790  0.20960  Biso   1.000  H
  H230     1.0000 0.55000  0.43850  0.12590  Biso   1.000  H
  H231     1.0000 0.57750  0.38990  0.03100  Biso   1.000  H
  H232     1.0000 0.68670  0.42510  0.96500  Biso   1.000  H
  H233     1.0000 0.62470  0.44830  0.89800  Biso   1.000  H
  H234     1.0000 0.53720  0.44420  0.89720  Biso   1.000  H
  H235     1.0000 0.30360  0.36840  0.28820  Biso   1.000  H
  H236     1.0000 0.34120  0.33510  0.36270  Biso   1.000  H
  H237     1.0000 0.33750  0.25090  0.33340  Biso   1.000  H
  H238     1.0000 0.30690  0.20780  0.24410  Biso   1.000  H
  H239     1.0000 0.27100  0.24710  0.17470  Biso   1.000  H
  H240     1.0000 0.16650  0.51220  0.59790  Biso   1.000  H
  H241     1.0000 0.23000  0.52720  0.65320  Biso   1.000  H
  H242     1.0000 0.22390  0.52070  0.59380  Biso   1.000  H
  H243     1.0000 0.42020  0.38410  0.73570  Biso   1.000  H
  H244     1.0000 0.42740  0.33130  0.73430  Biso   1.000  H
  H245     1.0000 0.44030  0.36600  0.69610  Biso   1.000  H
  H246     1.0000 0.36580  0.79770  0.20990  Biso   1.000  H
  H247     1.0000 0.24440  0.71290  0.03670  Biso   1.000  H
  H248     1.0000 0.27010  0.64500  0.04230  Biso   1.000  H
  H249     1.0000 0.34240  0.65320  0.13040  Biso   1.000  H
  H250     1.0000 0.36980  0.57960  0.21840  Biso   1.000  H
  H251     1.0000 0.39800  0.49660  0.32680  Biso   1.000  H
  H252     1.0000 0.46700  0.58180  0.40360  Biso   1.000  H
  H253     1.0000 0.47890  0.66590  0.39040  Biso   1.000  H
  H254     1.0000 0.57780  0.80550  0.43310  Biso   1.000  H
  H255     1.0000 0.67980  0.97870  0.50550  Biso   1.000  H
  H256     1.0000 0.60930  0.97940  0.41910  Biso   1.000  H
  H257     1.0000 0.52870  0.89340  0.33930  Biso   1.000  H
  H258     1.0000 0.12250  0.94920  0.03110  Biso   1.000  H
  H259     1.0000 0.23690  0.01980  0.20670  Biso   1.000  H
  H260     1.0000 0.21410  0.08980  0.20790  Biso   1.000  H
  H261     1.0000 0.14850  0.09260  0.11870  Biso   1.000  H
  H262     1.0000 0.13210  0.17380  0.03370  Biso   1.000  H
  H263     1.0000 0.04660  0.25050  0.95090  Biso   1.000  H
  H264     1.0000 0.95030  0.15990  0.88820  Biso   1.000  H
  H265     1.0000 0.95000  0.07590  0.88850  Biso   1.000  H
  H266     1.0000 0.92250  0.95350  0.81240  Biso   1.000  H
  H267     1.0000 0.81330  0.77830  0.73840  Biso   1.000  H
  H268     1.0000 0.87530  0.77330  0.82360  Biso   1.000  H
  H269     1.0000 0.96280  0.86000  0.90700  Biso   1.000  H
  H270     1.0000 0.19640  0.48460  0.06480  Biso   1.000  H
  H271     1.0000 0.15880  0.52150  0.99390  Biso   1.000  H
  H272     1.0000 0.16250  0.49590  0.91340  Biso   1.000  H
  H273     1.0000 0.19310  0.43720  0.90090  Biso   1.000  H
  H274     1.0000 0.22900  0.40370  0.97610  Biso   1.000  H
  H275     1.0000 0.33350  0.93140  0.34570  Biso   1.000  H
  H276     1.0000 0.27000  0.92320  0.29720  Biso   1.000  H
  H277     1.0000 0.27610  0.86990  0.29680  Biso   1.000  H
  H278     1.0000 0.07980  0.81550  0.96390  Biso   1.000  H
  H279     1.0000 0.07260  0.80690  0.90390  Biso   1.000  H
  H280     1.0000 0.05970  0.75580  0.92570  Biso   1.000  H
  C221     1.0000 0.00371  0.67782  0.26851  Biso   1.000  C
  C222     1.0000 0.10650  0.75300  0.31310  Biso   1.000  C
  C223     1.0000 0.04570  0.70798  0.21668  Biso   1.000  C
  C224     1.0000 0.95170  0.63648  0.27338  Biso   1.000  C
  C225     1.0000 0.90880  0.57923  0.23283  Biso   1.000  C
  C226     1.0000 0.86120  0.53904  0.23784  Biso   1.000  C
  C227     1.0000 0.85660  0.55753  0.28393  Biso   1.000  C
  C228     1.0000 0.90000  0.61339  0.32419  Biso   1.000  C
  C229     1.0000 0.94710  0.65162  0.31872  Biso   1.000  C
  C230     1.0000 0.81685  0.47714  0.19613  Biso   1.000  C
  C231     1.0000 0.17020  0.79800  0.36800  Biso   1.000  C
  C232     1.0000 0.17530  0.80940  0.41950  Biso   1.000  C
  C233     1.0000 0.23380  0.84900  0.46960  Biso   1.000  C
  C234     1.0000 0.29010  0.87603  0.46893  Biso   1.000  C
  C235     1.0000 0.28540  0.86506  0.41906  Biso   1.000  C
  C236     1.0000 0.22660  0.82378  0.36818  Biso   1.000  C
  C237     1.0000 0.24030  0.86046  0.52716  Biso   1.000  C
  C238     1.0000 0.03870  0.70377  0.15967  Biso   1.000  C
  C239     1.0000 0.08960  0.74410  0.15930  Biso   1.000  C
  C240     1.0000 0.08620  0.74413  0.10753  Biso   1.000  C
  C241     1.0000 0.03010  0.70180  0.05610  Biso   1.000  C
  C242     1.0000 0.97710  0.65930  0.05560  Biso   1.000  C
  C243     1.0000 0.98140  0.66180  0.10700  Biso   1.000  C
  C244     1.0000 0.14350  0.78900  0.10970  Biso   1.000  C
  C245     1.0000 0.49380  0.06501  0.98141  Biso   1.000  C
  C246     1.0000 0.39960  0.97750  0.93610  Biso   1.000  C
  C247     1.0000 0.44870  0.03160  0.02950  Biso   1.000  C
  C248     1.0000 0.54640  0.10910  0.97830  Biso   1.000  C
  C249     1.0000 0.58850  0.16400  0.02210  Biso   1.000  C
  C250     1.0000 0.64260  0.20620  0.02260  Biso   1.000  C
  C251     1.0000 0.65190  0.19000  0.98010  Biso   1.000  C
  C252     1.0000 0.61030  0.13450  0.93760  Biso   1.000  C
  C253     1.0000 0.55520  0.09300  0.93620  Biso   1.000  C
  C254     1.0000 0.68257  0.26631  0.06326  Biso   1.000  C
  C255     1.0000 0.34540  0.92680  0.88400  Biso   1.000  C
  C256     1.0000 0.33210  0.92550  0.82840  Biso   1.000  C
  C257     1.0000 0.28120  0.87910  0.77810  Biso   1.000  C
  C258     1.0000 0.23790  0.82730  0.78300  Biso   1.000  C
  C259     1.0000 0.25270  0.82480  0.83750  Biso   1.000  C
  C260     1.0000 0.30450  0.87460  0.88810  Biso   1.000  C
  C261     1.0000 0.26700  0.87930  0.72070  Biso   1.000  C
  C262     1.0000 0.45190  0.03563  0.08453  Biso   1.000  C
  C263     1.0000 0.39717  0.99544  0.08227  Biso   1.000  C
  C264     1.0000 0.39977  0.99501  0.13304  Biso   1.000  C
  C265     1.0000 0.45840  0.03564  0.18764  Biso   1.000  C
  C266     1.0000 0.51250  0.07550  0.19080  Biso   1.000  C
  C267     1.0000 0.51060  0.07630  0.13850  Biso   1.000  C
  C268     1.0000 0.34180  0.95151  0.13011  Biso   1.000  C
  C269     1.0000 0.05640  0.72110  0.52470  Biso   1.000  C
  C270     1.0000 0.99170  0.67540  0.50190  Biso   1.000  C
  C271     1.0000 0.96040  0.69390  0.51850  Biso   1.000  C
  C272     1.0000 0.98620  0.74580  0.55200  Biso   1.000  C
  C273     1.0000 0.05210  0.78750  0.57180  Biso   1.000  C
  C274     1.0000 0.89450  0.38800  0.08910  Biso   1.000  C
  C275     1.0000 0.64030  0.28840  0.20290  Biso   1.000  C
  C276     1.0000 0.49629  0.76480  0.67411  Biso   1.000  C
  C277     1.0000 0.39350  0.70660  0.64650  Biso   1.000  C
  C278     1.0000 0.45430  0.67098  0.66228  Biso   1.000  C
  C279     1.0000 0.54830  0.82168  0.68478  Biso   1.000  C
  C280     1.0000 0.59120  0.82403  0.67043  Biso   1.000  C
  C281     1.0000 0.63880  0.87664  0.67784  Biso   1.000  C
  C282     1.0000 0.64340  0.92733  0.70093  Biso   1.000  C
  C283     1.0000 0.60000  0.92419  0.71339  Biso   1.000  C
  C284     1.0000 0.55290  0.87162  0.70452  Biso   1.000  C
  C285     1.0000 0.68315  0.87928  0.66029  Biso   1.000  C
  C286     1.0000 0.32980  0.69780  0.62780  Biso   1.000  C
  C287     1.0000 0.32470  0.74420  0.63410  Biso   1.000  C
  C288     1.0000 0.26620  0.73580  0.61520  Biso   1.000  C
  C289     1.0000 0.20990  0.67883  0.58593  Biso   1.000  C
  C290     1.0000 0.21460  0.63366  0.57966  Biso   1.000  C
  C291     1.0000 0.27340  0.64158  0.59718  Biso   1.000  C
  C292     1.0000 0.25970  0.78686  0.62016  Biso   1.000  C
  C293     1.0000 0.46130  0.62097  0.66507  Biso   1.000  C
  C294     1.0000 0.41040  0.56970  0.65450  Biso   1.000  C
  C295     1.0000 0.41380  0.52133  0.65793  Biso   1.000  C
  C296     1.0000 0.46990  0.52600  0.67170  Biso   1.000  C
  C297     1.0000 0.52290  0.57850  0.68220  Biso   1.000  C
  C298     1.0000 0.51860  0.62560  0.68040  Biso   1.000  C
  C299     1.0000 0.35650  0.46620  0.64550  Biso   1.000  C
  C300     1.0000 0.00620  0.98761  0.57121  Biso   1.000  C
  C301     1.0000 0.10040  0.03650  0.57790  Biso   1.000  C
  C302     1.0000 0.05130  0.08080  0.58290  Biso   1.000  C
  C303     1.0000 0.95360  0.93190  0.56270  Biso   1.000  C
  C304     1.0000 0.91150  0.93360  0.57550  Biso   1.000  C
  C305     1.0000 0.85740  0.88000  0.56360  Biso   1.000  C
  C306     1.0000 0.84810  0.82820  0.53810  Biso   1.000  C
  C307     1.0000 0.88970  0.82730  0.52420  Biso   1.000  C
  C308     1.0000 0.94480  0.88100  0.53780  Biso   1.000  C
  C309     1.0000 0.81743  0.88069  0.58374  Biso   1.000  C
  C310     1.0000 0.15460  0.03860  0.58140  Biso   1.000  C
  C311     1.0000 0.16790  0.99630  0.59340  Biso   1.000  C
  C312     1.0000 0.21880  0.99690  0.59790  Biso   1.000  C
  C313     1.0000 0.26210  0.04510  0.58940  Biso   1.000  C
  C314     1.0000 0.24730  0.08480  0.57210  Biso   1.000  C
  C315     1.0000 0.19550  0.08360  0.57010  Biso   1.000  C
  C316     1.0000 0.23300  0.95370  0.61230  Biso   1.000  C
  C317     1.0000 0.04810  0.13263  0.58373  Biso   1.000  C
  C318     1.0000 0.10283  0.18510  0.59827  Biso   1.000  C
  C319     1.0000 0.10023  0.23327  0.59524  Biso   1.000  C
  C320     1.0000 0.04160  0.22924  0.57724  Biso   1.000  C
  C321     1.0000 0.98750  0.17830  0.56300  Biso   1.000  C
  C322     1.0000 0.98940  0.12790  0.56570  Biso   1.000  C
  C323     1.0000 0.15820  0.28831  0.60971  Biso   1.000  C
  C324     1.0000 0.44360  0.96830  0.66470  Biso   1.000  C
  C325     1.0000 0.50830  0.01020  0.68370  Biso   1.000  C
  C326     1.0000 0.53960  0.05810  0.73350  Biso   1.000  C
  C327     1.0000 0.51380  0.06580  0.75960  Biso   1.000  C
  C328     1.0000 0.44790  0.01970  0.73540  Biso   1.000  C
  C329     1.0000 0.60550  0.69460  0.49350  Biso   1.000  C
  C330     1.0000 0.85970  0.06260  0.64810  Biso   1.000  C
  C331     1.0000 0.09069  0.32589  0.32218  Biso   1.000  C
  C332     1.0000 0.06010  0.35350  0.24700  Biso   1.000  C
  C333     1.0000 0.00870  0.33772  0.29202  Biso   1.000  C
  C334     1.0000 0.13690  0.31522  0.36352  Biso   1.000  C
  C335     1.0000 0.15360  0.32957  0.42077  Biso   1.000  C
  C336     1.0000 0.19880  0.32216  0.46096  Biso   1.000  C
  C337     1.0000 0.22640  0.29907  0.44247  Biso   1.000  C
  C338     1.0000 0.21080  0.28661  0.38661  Biso   1.000  C
  C339     1.0000 0.16710  0.29548  0.34838  Biso   1.000  C
  C340     1.0000 0.21899  0.33971  0.52286  Biso   1.000  C
  C341     1.0000 0.07000  0.37220  0.20200  Biso   1.000  C
  C342     1.0000 0.11010  0.36590  0.19060  Biso   1.000  C
  C343     1.0000 0.12060  0.38480  0.15100  Biso   1.000  C
  C344     1.0000 0.09290  0.41407  0.12397  Biso   1.000  C
  C345     1.0000 0.05400  0.42034  0.13494  Biso   1.000  C
  C346     1.0000 0.04440  0.40282  0.17622  Biso   1.000  C
  C347     1.0000 0.16670  0.37984  0.13954  Biso   1.000  C
  C348     1.0000 0.95590  0.33493  0.29623  Biso   1.000  C
  C349     1.0000 0.91520  0.34550  0.25590  Biso   1.000  C
  C350     1.0000 0.86340  0.34207  0.25587  Biso   1.000  C
  C351     1.0000 0.85430  0.32830  0.29820  Biso   1.000  C
  C352     1.0000 0.89630  0.31780  0.34070  Biso   1.000  C
  C353     1.0000 0.94520  0.31960  0.33820  Biso   1.000  C
  C354     1.0000 0.82070  0.35450  0.21100  Biso   1.000  C
  C355     1.0000 0.41640  0.42879  0.93499  Biso   1.000  C
  C356     1.0000 0.45860  0.42210  0.02250  Biso   1.000  C
  C357     1.0000 0.49790  0.41710  0.96840  Biso   1.000  C
  C358     1.0000 0.36920  0.43730  0.89090  Biso   1.000  C
  C359     1.0000 0.35810  0.42450  0.83600  Biso   1.000  C
  C360     1.0000 0.31640  0.43640  0.79380  Biso   1.000  C
  C361     1.0000 0.29010  0.46190  0.81000  Biso   1.000  C
  C362     1.0000 0.30310  0.47580  0.86550  Biso   1.000  C
  C363     1.0000 0.34320  0.46220  0.90700  Biso   1.000  C
  C364     1.0000 0.29695  0.41626  0.73369  Biso   1.000  C
  C365     1.0000 0.45720  0.41860  0.07320  Biso   1.000  C
  C366     1.0000 0.40290  0.40660  0.07450  Biso   1.000  C
  C367     1.0000 0.39900  0.40210  0.12090  Biso   1.000  C
  C368     1.0000 0.45570  0.41060  0.17270  Biso   1.000  C
  C369     1.0000 0.51270  0.42790  0.17520  Biso   1.000  C
  C370     1.0000 0.51350  0.42990  0.12540  Biso   1.000  C
  C371     1.0000 0.34140  0.38770  0.12070  Biso   1.000  C
  C372     1.0000 0.54890  0.41627  0.96437  Biso   1.000  C
  C373     1.0000 0.58683  0.40173  0.00456  Biso   1.000  C
  C374     1.0000 0.63803  0.40476  0.00499  Biso   1.000  C
  C375     1.0000 0.65200  0.42276  0.96436  Biso   1.000  C
  C376     1.0000 0.61530  0.43700  0.92450  Biso   1.000  C
  C377     1.0000 0.56220  0.43430  0.92370  Biso   1.000  C
  C378     1.0000 0.67860  0.39029  0.04849  Biso   1.000  C
  C379     1.0000 0.30360  0.33530  0.27890  Biso   1.000  C
  C380     1.0000 0.32650  0.31630  0.32460  Biso   1.000  C
  C381     1.0000 0.32460  0.26650  0.30610  Biso   1.000  C
  C382     1.0000 0.30620  0.24040  0.25420  Biso   1.000  C
  C383     1.0000 0.28430  0.26460  0.21250  Biso   1.000  C
  C384     1.0000 0.20110  0.50650  0.61200  Biso   1.000  C
  C385     1.0000 0.41450  0.35190  0.71160  Biso   1.000  C
  C386     1.0000 0.40931  0.73149  0.23520  Biso   1.000  C
  C387     1.0000 0.43990  0.68690  0.29340  Biso   1.000  C
  C388     1.0000 0.49130  0.78332  0.32902  Biso   1.000  C
  C389     1.0000 0.36310  0.72662  0.17832  Biso   1.000  C
  C390     1.0000 0.34640  0.76717  0.17597  Biso   1.000  C
  C391     1.0000 0.30120  0.76216  0.12336  Biso   1.000  C
  C392     1.0000 0.27360  0.71607  0.07267  Biso   1.000  C
  C393     1.0000 0.28920  0.67581  0.07581  Biso   1.000  C
  C394     1.0000 0.33290  0.68128  0.12838  Biso   1.000  C
  C395     1.0000 0.28101  0.80387  0.12072  Biso   1.000  C
  C396     1.0000 0.43000  0.63200  0.30220  Biso   1.000  C
  C397     1.0000 0.38990  0.58050  0.25580  Biso   1.000  C
  C398     1.0000 0.37940  0.53040  0.26420  Biso   1.000  C
  C399     1.0000 0.40710  0.53107  0.32117  Biso   1.000  C
  C400     1.0000 0.44600  0.58094  0.36634  Biso   1.000  C
  C401     1.0000 0.45560  0.63182  0.35842  Biso   1.000  C
  C402     1.0000 0.33330  0.47284  0.21314  Biso   1.000  C
  C403     1.0000 0.54410  0.84033  0.37903  Biso   1.000  C
  C404     1.0000 0.58480  0.84070  0.43030  Biso   1.000  C
  C405     1.0000 0.63660  0.89247  0.47867  Biso   1.000  C
  C406     1.0000 0.64570  0.94390  0.47400  Biso   1.000  C
  C407     1.0000 0.60370  0.94440  0.42150  Biso   1.000  C
  C408     1.0000 0.55480  0.89300  0.37440  Biso   1.000  C
  C409     1.0000 0.67930  0.89030  0.53380  Biso   1.000  C
  C410     1.0000 0.08360  0.01859  0.01239  Biso   1.000  C
  C411     1.0000 0.04140  0.06390  0.96350  Biso   1.000  C
  C412     1.0000 0.00210  0.97050  0.91920  Biso   1.000  C
  C413     1.0000 0.13080  0.02170  0.06810  Biso   1.000  C
  C414     1.0000 0.14190  0.97790  0.06640  Biso   1.000  C
  C415     1.0000 0.18360  0.97740  0.12000  Biso   1.000  C
  C416     1.0000 0.20990  0.01990  0.17180  Biso   1.000  C
  C417     1.0000 0.19690  0.06240  0.17270  Biso   1.000  C
  C418     1.0000 0.15680  0.06380  0.11900  Biso   1.000  C
  C419     1.0000 0.20305  0.93674  0.11931  Biso   1.000  C
  C420     1.0000 0.04280  0.11600  0.96140  Biso   1.000  C
  C421     1.0000 0.09710  0.17160  0.00370  Biso   1.000  C
  C422     1.0000 0.10100  0.22190  0.00310  Biso   1.000  C
  C423     1.0000 0.04430  0.21700  0.95490  Biso   1.000  C
  C424     1.0000 0.98730  0.16250  0.91520  Biso   1.000  C
  C425     1.0000 0.98650  0.11190  0.91640  Biso   1.000  C
  C426     1.0000 0.15860  0.27930  0.04630  Biso   1.000  C
  C427     1.0000 0.95110  0.91547  0.86737  Biso   1.000  C
  C428     1.0000 0.91317  0.91773  0.81490  Biso   1.000  C
  C429     1.0000 0.86197  0.86696  0.76673  Biso   1.000  C
  C430     1.0000 0.84800  0.81236  0.77076  Biso   1.000  C
  C431     1.0000 0.88470  0.80920  0.82170  Biso   1.000  C
  C432     1.0000 0.93780  0.86150  0.87210  Biso   1.000  C
  C433     1.0000 0.82140  0.86989  0.71169  Biso   1.000  C
  C434     1.0000 0.19640  0.47530  0.03170  Biso   1.000  C
  C435     1.0000 0.17350  0.49810  0.98980  Biso   1.000  C
  C436     1.0000 0.17540  0.48150  0.94190  Biso   1.000  C
  C437     1.0000 0.19380  0.44800  0.93420  Biso   1.000  C
  C438     1.0000 0.21570  0.42820  0.98030  Biso   1.000  C
  C439     1.0000 0.29890  0.91090  0.30540  Biso   1.000  C
  C440     1.0000 0.08550  0.79710  0.93740  Biso   1.000  C
  N29      1.0000 0.99520  0.67035  0.21627  Biso   1.000  N
  N30      1.0000 0.05914  0.72070  0.31776  Biso   1.000  N
  N31      1.0000 0.10257  0.74930  0.26353  Biso   1.000  N
  N32      1.0000 0.49794  0.07300  0.03066  Biso   1.000  N
  N33      1.0000 0.44502  0.01790  0.93068  Biso   1.000  N
  N34      1.0000 0.39770  0.98283  0.98313  Biso   1.000  N
  N35      1.0000 0.08464  0.77447  0.55713  Biso   1.000  N
  N36      1.0000 0.50480  0.72107  0.67515  Biso   1.000  N
  N37      1.0000 0.44086  0.75862  0.66156  Biso   1.000  N
  N38      1.0000 0.39743  0.66096  0.64673  Biso   1.000  N
  N39      1.0000 0.00206  0.03272  0.57506  Biso   1.000  N
  N40      1.0000 0.05498  0.98566  0.57288  Biso   1.000  N
  N41      1.0000 0.10230  0.08543  0.58513  Biso   1.000  N
  N42      1.0000 0.41536  0.97249  0.68983  Biso   1.000  N
  N43      1.0000 0.04592  0.32485  0.32965  Biso   1.000  N
  N44      1.0000 0.09706  0.33844  0.27930  Biso   1.000  N
  N45      1.0000 0.01423  0.35327  0.25070  Biso   1.000  N
  N46      1.0000 0.45766  0.42494  0.92700  Biso   1.000  N
  N47      1.0000 0.41278  0.42712  0.98210  Biso   1.000  N
  N48      1.0000 0.50030  0.41487  0.01717  Biso   1.000  N
  N49      1.0000 0.28266  0.31017  0.22553  Biso   1.000  N
  N50      1.0000 0.45408  0.78373  0.27893  Biso   1.000  N
  N51      1.0000 0.40294  0.68224  0.24138  Biso   1.000  N
  N52      1.0000 0.48577  0.73647  0.33904  Biso   1.000  N
  N53      1.0000 0.04234  0.96934  0.96728  Biso   1.000  N
  N54      1.0000 0.08722  0.06932  0.01434  Biso   1.000  N
  N55      1.0000 0.99970  0.01687  0.91457  Biso   1.000  N
  N56      1.0000 0.21734  0.44287  0.02751  Biso   1.000  N
  O57      1.0000 0.83052  0.46398  0.16134  Biso   1.000  O
  O58      1.0000 0.77251  0.44446  0.20021  Biso   1.000  O
  O59      1.0000 0.18967  0.83637  0.52614  Biso   1.000  O
  O60      1.0000 0.29663  0.89146  0.57151  Biso   1.000  O
  O61      1.0000 0.19387  0.82383  0.15980  Biso   1.000  O
  O62      1.0000 0.13773  0.79004  0.06253  Biso   1.000  O
  O63      1.0000 0.66713  0.28045  0.09658  Biso   1.000  O
  O64      1.0000 0.73182  0.30048  0.06380  Biso   1.000  O
  O65      1.0000 0.31496  0.91563  0.72025  Biso   1.000  O
  O66      1.0000 0.21162  0.84539  0.67633  Biso   1.000  O
  O67      1.0000 0.29148  0.91429  0.07927  Biso   1.000  O
  O68      1.0000 0.34491  0.95174  0.17609  Biso   1.000  O
  O69      1.0000 0.84682  0.40191  0.07701  Biso   1.000  O
  O70      1.0000 0.64982  0.34174  0.18010  Biso   1.000  O
  O71      1.0000 0.66948  0.83082  0.63346  Biso   1.000  O
  O72      1.0000 0.72749  0.92770  0.67195  Biso   1.000  O
  O73      1.0000 0.31033  0.83647  0.64670  Biso   1.000  O
  O74      1.0000 0.20337  0.77488  0.59483  Biso   1.000  O
  O75      1.0000 0.30613  0.46593  0.62996  Biso   1.000  O
  O76      1.0000 0.36227  0.42480  0.65231  Biso   1.000  O
  O77      1.0000 0.83287  0.92945  0.61332  Biso   1.000  O
  O78      1.0000 0.76818  0.83198  0.56866  Biso   1.000  O
  O79      1.0000 0.18504  0.90529  0.60067  Biso   1.000  O
  O80      1.0000 0.28838  0.96471  0.63377  Biso   1.000  O
  O81      1.0000 0.20852  0.28779  0.62281  Biso   1.000  O
  O82      1.0000 0.15509  0.33118  0.60683  Biso   1.000  O
  O83      1.0000 0.65318  0.73019  0.55509  Biso   1.000  O
  O84      1.0000 0.85018  0.03028  0.69192  Biso   1.000  O
  O85      1.0000 0.19736  0.36654  0.53602  Biso   1.000  O
  O86      1.0000 0.25575  0.32805  0.55554  Biso   1.000  O
  O87      1.0000 0.18977  0.35330  0.16363  Biso   1.000  O
  O88      1.0000 0.18005  0.40517  0.10854  Biso   1.000  O
  O89      1.0000 0.83597  0.37004  0.17617  Biso   1.000  O
  O90      1.0000 0.77249  0.34769  0.20996  Biso   1.000  O
  O91      1.0000 0.31613  0.38668  0.71955  Biso   1.000  O
  O92      1.0000 0.26332  0.43134  0.69952  Biso   1.000  O
  O93      1.0000 0.30462  0.39933  0.08437  Biso   1.000  O
  O94      1.0000 0.33094  0.36623  0.15461  Biso   1.000  O
  O95      1.0000 0.66498  0.37719  0.08571  Biso   1.000  O
  O96      1.0000 0.72435  0.39317  0.04826  Biso   1.000  O
  O97      1.0000 0.17510  0.44491  0.59809  Biso   1.000  O
  O98      1.0000 0.33836  0.30808  0.65826  Biso   1.000  O
  O99      1.0000 0.30264  0.83866  0.16918  Biso   1.000  O
  O100     1.0000 0.24425  0.79979  0.07230  Biso   1.000  O
  O101     1.0000 0.31023  0.47386  0.16353  Biso   1.000  O
  O102     1.0000 0.31995  0.42849  0.22512  Biso   1.000  O
  O103     1.0000 0.66403  0.84020  0.53407  Biso   1.000  O
  O104     1.0000 0.72751  0.93747  0.57520  Biso   1.000  O
  O105     1.0000 0.18387  0.90342  0.07055  Biso   1.000  O
  O106     1.0000 0.23668  0.93620  0.16802  Biso   1.000  O
  O107     1.0000 0.19538  0.27975  0.09471  Biso   1.000  O
  O108     1.0000 0.16906  0.32367  0.03529  Biso   1.000  O
  O109     1.0000 0.83502  0.92073  0.71221  Biso   1.000  O
  O110     1.0000 0.77565  0.82391  0.66882  Biso   1.000  O
  O111     1.0000 0.32490  0.92299  0.26981  Biso   1.000  O
  O112     1.0000 0.16164  0.81990  0.96972  Biso   1.000  O
