data_image0
_cell_length_a       18.9031
_cell_length_b       18.9031
_cell_length_c       33.8935
_cell_angle_alpha    73.8077
_cell_angle_beta     73.8077
_cell_angle_gamma    89.9998

_symmetry_space_group_name_H-M    P 1
_symmetry_int_tables_number       1

loop_
  _symmetry_equiv_pos_as_xyz
  'x, y, z'

loop_
  _atom_site_label
  _atom_site_occupancy
  _atom_site_fract_x
  _atom_site_fract_y
  _atom_site_fract_z
  _atom_site_thermal_displace_type
  _atom_site_B_iso_or_equiv
  _atom_site_type_symbol
  Cd1      1.0000 0.42847  0.90849  0.36940  Biso   1.000  Cd
  Cd2      1.0000 0.70213  0.72211  0.36940  Biso   1.000  Cd
  Cd3      1.0000 0.40849  0.20213  0.86940  Biso   1.000  Cd
  Cd4      1.0000 0.22211  0.92847  0.86940  Biso   1.000  Cd
  Cd5      1.0000 0.20213  0.40849  0.36940  Biso   1.000  Cd
  Cd6      1.0000 0.92847  0.22211  0.36940  Biso   1.000  Cd
  Cd7      1.0000 0.72211  0.70213  0.86940  Biso   1.000  Cd
  Cd8      1.0000 0.90849  0.42847  0.86940  Biso   1.000  Cd
  H1       1.0000 0.53270  0.82060  0.29560  Biso   1.000  H
  H2       1.0000 0.49650  0.80210  0.23640  Biso   1.000  H
  H3       1.0000 0.33420  0.88390  0.30640  Biso   1.000  H
  H4       1.0000 0.39890  0.75720  0.21360  Biso   1.000  H
  H5       1.0000 0.32010  0.75110  0.17200  Biso   1.000  H
  H6       1.0000 0.21850  0.92070  0.20320  Biso   1.000  H
  H7       1.0000 0.29360  0.92340  0.24720  Biso   1.000  H
  H8       1.0000 0.38260  0.95480  0.89240  Biso   1.000  H
  H9       1.0000 0.39650  0.93710  0.96360  Biso   1.000  H
  H10      1.0000 0.19210  0.87890  0.97480  Biso   1.000  H
  H11      1.0000 0.34550  0.95330  0.03460  Biso   1.000  H
  H12      1.0000 0.31750  0.91870  0.10880  Biso   1.000  H
  H13      1.0000 0.15330  0.77980  0.11720  Biso   1.000  H
  H14      1.0000 0.18190  0.81090  0.04400  Biso   1.000  H
  H15      1.0000 0.28210  0.10640  0.30680  Biso   1.000  H
  H16      1.0000 0.18330  0.96730  0.42180  Biso   1.000  H
  H17      1.0000 0.07670  0.02690  0.42340  Biso   1.000  H
  H18      1.0000 0.17630  0.16870  0.30900  Biso   1.000  H
  H19      1.0000 0.67170  0.88380  0.29560  Biso   1.000  H
  H20      1.0000 0.76710  0.96150  0.23640  Biso   1.000  H
  H21      1.0000 0.85940  0.80970  0.30640  Biso   1.000  H
  H22      1.0000 0.88750  0.02920  0.21360  Biso   1.000  H
  H23      1.0000 0.00790  0.07690  0.17200  Biso   1.000  H
  H24      1.0000 0.07830  0.87610  0.20320  Biso   1.000  H
  H25      1.0000 0.95920  0.82940  0.24720  Biso   1.000  H
  H26      1.0000 0.22500  0.15280  0.89240  Biso   1.000  H
  H27      1.0000 0.13990  0.09930  0.96360  Biso   1.000  H
  H28      1.0000 0.33310  0.14630  0.97480  Biso   1.000  H
  H29      1.0000 0.11990  0.01210  0.03460  Biso   1.000  H
  H30      1.0000 0.07370  0.97250  0.10880  Biso   1.000  H
  H31      1.0000 0.22950  0.10300  0.11720  Biso   1.000  H
  H32      1.0000 0.27410  0.14510  0.04400  Biso   1.000  H
  H33      1.0000 0.91110  0.58680  0.30680  Biso   1.000  H
  H34      1.0000 0.89490  0.61090  0.42180  Biso   1.000  H
  H35      1.0000 0.99990  0.54970  0.42340  Biso   1.000  H
  H36      1.0000 0.01470  0.52230  0.30900  Biso   1.000  H
  H37      1.0000 0.32060  0.17170  0.79560  Biso   1.000  H
  H38      1.0000 0.30210  0.26710  0.73640  Biso   1.000  H
  H39      1.0000 0.38390  0.35940  0.80640  Biso   1.000  H
  H40      1.0000 0.25720  0.38750  0.71360  Biso   1.000  H
  H41      1.0000 0.25110  0.50790  0.67200  Biso   1.000  H
  H42      1.0000 0.42070  0.57830  0.70320  Biso   1.000  H
  H43      1.0000 0.42340  0.45920  0.74720  Biso   1.000  H
  H44      1.0000 0.45480  0.72500  0.39240  Biso   1.000  H
  H45      1.0000 0.43710  0.63990  0.46360  Biso   1.000  H
  H46      1.0000 0.37890  0.83310  0.47480  Biso   1.000  H
  H47      1.0000 0.45330  0.61990  0.53460  Biso   1.000  H
  H48      1.0000 0.41870  0.57370  0.60880  Biso   1.000  H
  H49      1.0000 0.27980  0.72950  0.61720  Biso   1.000  H
  H50      1.0000 0.31090  0.77410  0.54400  Biso   1.000  H
  H51      1.0000 0.60640  0.41110  0.80680  Biso   1.000  H
  H52      1.0000 0.46730  0.39490  0.92180  Biso   1.000  H
  H53      1.0000 0.52690  0.49990  0.92340  Biso   1.000  H
  H54      1.0000 0.66870  0.51470  0.80900  Biso   1.000  H
  H55      1.0000 0.38380  0.03270  0.79560  Biso   1.000  H
  H56      1.0000 0.46150  0.99650  0.73640  Biso   1.000  H
  H57      1.0000 0.30970  0.83420  0.80640  Biso   1.000  H
  H58      1.0000 0.52920  0.89890  0.71360  Biso   1.000  H
  H59      1.0000 0.57690  0.82010  0.67200  Biso   1.000  H
  H60      1.0000 0.37610  0.71850  0.70320  Biso   1.000  H
  H61      1.0000 0.32940  0.79360  0.74720  Biso   1.000  H
  H62      1.0000 0.65280  0.88260  0.39240  Biso   1.000  H
  H63      1.0000 0.59930  0.89650  0.46360  Biso   1.000  H
  H64      1.0000 0.64630  0.69210  0.47480  Biso   1.000  H
  H65      1.0000 0.51210  0.84550  0.53460  Biso   1.000  H
  H66      1.0000 0.47250  0.81750  0.60880  Biso   1.000  H
  H67      1.0000 0.60300  0.65330  0.61720  Biso   1.000  H
  H68      1.0000 0.64510  0.68190  0.54400  Biso   1.000  H
  H69      1.0000 0.08680  0.78210  0.80680  Biso   1.000  H
  H70      1.0000 0.11090  0.68330  0.92180  Biso   1.000  H
  H71      1.0000 0.04970  0.57670  0.92340  Biso   1.000  H
  H72      1.0000 0.02230  0.67630  0.80900  Biso   1.000  H
  H73      1.0000 0.17170  0.32060  0.29560  Biso   1.000  H
  H74      1.0000 0.26710  0.30210  0.23640  Biso   1.000  H
  H75      1.0000 0.35940  0.38390  0.30640  Biso   1.000  H
  H76      1.0000 0.38750  0.25720  0.21360  Biso   1.000  H
  H77      1.0000 0.50790  0.25110  0.17200  Biso   1.000  H
  H78      1.0000 0.57830  0.42070  0.20320  Biso   1.000  H
  H79      1.0000 0.45920  0.42340  0.24720  Biso   1.000  H
  H80      1.0000 0.72500  0.45480  0.89240  Biso   1.000  H
  H81      1.0000 0.63990  0.43710  0.96360  Biso   1.000  H
  H82      1.0000 0.83310  0.37890  0.97480  Biso   1.000  H
  H83      1.0000 0.61990  0.45330  0.03460  Biso   1.000  H
  H84      1.0000 0.57370  0.41870  0.10880  Biso   1.000  H
  H85      1.0000 0.72950  0.27980  0.11720  Biso   1.000  H
  H86      1.0000 0.77410  0.31090  0.04400  Biso   1.000  H
  H87      1.0000 0.41110  0.60640  0.30680  Biso   1.000  H
  H88      1.0000 0.39490  0.46730  0.42180  Biso   1.000  H
  H89      1.0000 0.49990  0.52690  0.42340  Biso   1.000  H
  H90      1.0000 0.51470  0.66870  0.30900  Biso   1.000  H
  H91      1.0000 0.03270  0.38380  0.29560  Biso   1.000  H
  H92      1.0000 0.99650  0.46150  0.23640  Biso   1.000  H
  H93      1.0000 0.83420  0.30970  0.30640  Biso   1.000  H
  H94      1.0000 0.89890  0.52920  0.21360  Biso   1.000  H
  H95      1.0000 0.82010  0.57690  0.17200  Biso   1.000  H
  H96      1.0000 0.71850  0.37610  0.20320  Biso   1.000  H
  H97      1.0000 0.79360  0.32940  0.24720  Biso   1.000  H
  H98      1.0000 0.88260  0.65280  0.89240  Biso   1.000  H
  H99      1.0000 0.89650  0.59930  0.96360  Biso   1.000  H
  H100     1.0000 0.69210  0.64630  0.97480  Biso   1.000  H
  H101     1.0000 0.84550  0.51210  0.03460  Biso   1.000  H
  H102     1.0000 0.81750  0.47250  0.10880  Biso   1.000  H
  H103     1.0000 0.65330  0.60300  0.11720  Biso   1.000  H
  H104     1.0000 0.68190  0.64510  0.04400  Biso   1.000  H
  H105     1.0000 0.78210  0.08680  0.30680  Biso   1.000  H
  H106     1.0000 0.68330  0.11090  0.42180  Biso   1.000  H
  H107     1.0000 0.57670  0.04970  0.42340  Biso   1.000  H
  H108     1.0000 0.67630  0.02230  0.30900  Biso   1.000  H
  H109     1.0000 0.88380  0.67170  0.79560  Biso   1.000  H
  H110     1.0000 0.96150  0.76710  0.73640  Biso   1.000  H
  H111     1.0000 0.80970  0.85940  0.80640  Biso   1.000  H
  H112     1.0000 0.02920  0.88750  0.71360  Biso   1.000  H
  H113     1.0000 0.07690  0.00790  0.67200  Biso   1.000  H
  H114     1.0000 0.87610  0.07830  0.70320  Biso   1.000  H
  H115     1.0000 0.82940  0.95920  0.74720  Biso   1.000  H
  H116     1.0000 0.15280  0.22500  0.39240  Biso   1.000  H
  H117     1.0000 0.09930  0.13990  0.46360  Biso   1.000  H
  H118     1.0000 0.14630  0.33310  0.47480  Biso   1.000  H
  H119     1.0000 0.01210  0.11990  0.53460  Biso   1.000  H
  H120     1.0000 0.97250  0.07370  0.60880  Biso   1.000  H
  H121     1.0000 0.10300  0.22950  0.61720  Biso   1.000  H
  H122     1.0000 0.14510  0.27410  0.54400  Biso   1.000  H
  H123     1.0000 0.58680  0.91110  0.80680  Biso   1.000  H
  H124     1.0000 0.61090  0.89490  0.92180  Biso   1.000  H
  H125     1.0000 0.54970  0.99990  0.92340  Biso   1.000  H
  H126     1.0000 0.52230  0.01470  0.80900  Biso   1.000  H
  H127     1.0000 0.82060  0.53270  0.79560  Biso   1.000  H
  H128     1.0000 0.80210  0.49650  0.73640  Biso   1.000  H
  H129     1.0000 0.88390  0.33420  0.80640  Biso   1.000  H
  H130     1.0000 0.75720  0.39890  0.71360  Biso   1.000  H
  H131     1.0000 0.75110  0.32010  0.67200  Biso   1.000  H
  H132     1.0000 0.92070  0.21850  0.70320  Biso   1.000  H
  H133     1.0000 0.92340  0.29360  0.74720  Biso   1.000  H
  H134     1.0000 0.95480  0.38260  0.39240  Biso   1.000  H
  H135     1.0000 0.93710  0.39650  0.46360  Biso   1.000  H
  H136     1.0000 0.87890  0.19210  0.47480  Biso   1.000  H
  H137     1.0000 0.95330  0.34550  0.53460  Biso   1.000  H
  H138     1.0000 0.91870  0.31750  0.60880  Biso   1.000  H
  H139     1.0000 0.77980  0.15330  0.61720  Biso   1.000  H
  H140     1.0000 0.81090  0.18190  0.54400  Biso   1.000  H
  H141     1.0000 0.10640  0.28210  0.80680  Biso   1.000  H
  H142     1.0000 0.96730  0.18330  0.92180  Biso   1.000  H
  H143     1.0000 0.02690  0.07670  0.92340  Biso   1.000  H
  H144     1.0000 0.16870  0.17630  0.80900  Biso   1.000  H
  C1       1.0000 0.48736  0.83056  0.29048  Biso   1.000  C
  C2       1.0000 0.46778  0.82018  0.25804  Biso   1.000  C
  C3       1.0000 0.37889  0.86479  0.29682  Biso   1.000  C
  C4       1.0000 0.35101  0.83921  0.23478  Biso   1.000  C
  C5       1.0000 0.36143  0.78883  0.21234  Biso   1.000  C
  C6       1.0000 0.31420  0.78550  0.18740  Biso   1.000  C
  C7       1.0000 0.26036  0.83186  0.18568  Biso   1.000  C
  C8       1.0000 0.25318  0.88628  0.20644  Biso   1.000  C
  C9       1.0000 0.29877  0.88857  0.23206  Biso   1.000  C
  C10      1.0000 0.34502  0.93862  0.91816  Biso   1.000  C
  C11      1.0000 0.35282  0.92932  0.95736  Biso   1.000  C
  C12      1.0000 0.24107  0.89837  0.96306  Biso   1.000  C
  C13      1.0000 0.26712  0.88532  0.03176  Biso   1.000  C
  C14      1.0000 0.30692  0.91762  0.05116  Biso   1.000  C
  C15      1.0000 0.28988  0.89718  0.09564  Biso   1.000  C
  C16      1.0000 0.23252  0.84542  0.11996  Biso   1.000  C
  C17      1.0000 0.19274  0.81444  0.10052  Biso   1.000  C
  C18      1.0000 0.20943  0.83323  0.05674  Biso   1.000  C
  C19      1.0000 0.31197  0.99077  0.36346  Biso   1.000  C
  C20      1.0000 0.24399  0.03039  0.36422  Biso   1.000  C
  C21      1.0000 0.24090  0.09070  0.33060  Biso   1.000  C
  C22      1.0000 0.18231  0.00771  0.39878  Biso   1.000  C
  C23      1.0000 0.04779  0.14509  0.36842  Biso   1.000  C
  C24      1.0000 0.11596  0.10516  0.36688  Biso   1.000  C
  C25      1.0000 0.11842  0.04402  0.39996  Biso   1.000  C
  C26      1.0000 0.17732  0.12819  0.33182  Biso   1.000  C
  C27      1.0000 0.72216  0.87896  0.29048  Biso   1.000  C
  C28      1.0000 0.77418  0.92178  0.25804  Biso   1.000  C
  C29      1.0000 0.82429  0.83839  0.29682  Biso   1.000  C
  C30      1.0000 0.91421  0.92601  0.23478  Biso   1.000  C
  C31      1.0000 0.92623  0.99883  0.21234  Biso   1.000  C
  C32      1.0000 0.99840  0.02710  0.18740  Biso   1.000  C
  C33      1.0000 0.05396  0.98246  0.18568  Biso   1.000  C
  C34      1.0000 0.04038  0.90728  0.20644  Biso   1.000  C
  C35      1.0000 0.96917  0.87937  0.23206  Biso   1.000  C
  C36      1.0000 0.23682  0.14322  0.91816  Biso   1.000  C
  C37      1.0000 0.18982  0.11332  0.95736  Biso   1.000  C
  C38      1.0000 0.29587  0.13857  0.96306  Biso   1.000  C
  C39      1.0000 0.20112  0.08292  0.03176  Biso   1.000  C
  C40      1.0000 0.14192  0.03122  0.05116  Biso   1.000  C
  C41      1.0000 0.11448  0.00718  0.09564  Biso   1.000  C
  C42      1.0000 0.14752  0.03462  0.11996  Biso   1.000  C
  C43      1.0000 0.20674  0.08504  0.10052  Biso   1.000  C
  C44      1.0000 0.23383  0.11003  0.05674  Biso   1.000  C
  C45      1.0000 0.82457  0.64577  0.36346  Biso   1.000  C
  C46      1.0000 0.89179  0.60539  0.36422  Biso   1.000  C
  C47      1.0000 0.92850  0.57870  0.33060  Biso   1.000  C
  C48      1.0000 0.91891  0.59351  0.39878  Biso   1.000  C
  C49      1.0000 0.08379  0.48649  0.36842  Biso   1.000  C
  C50      1.0000 0.01716  0.52796  0.36688  Biso   1.000  C
  C51      1.0000 0.98162  0.55602  0.39996  Biso   1.000  C
  C52      1.0000 0.99086  0.53999  0.33182  Biso   1.000  C
  C53      1.0000 0.33056  0.22216  0.79048  Biso   1.000  C
  C54      1.0000 0.32018  0.27418  0.75804  Biso   1.000  C
  C55      1.0000 0.36479  0.32429  0.79682  Biso   1.000  C
  C56      1.0000 0.33921  0.41421  0.73478  Biso   1.000  C
  C57      1.0000 0.28883  0.42623  0.71234  Biso   1.000  C
  C58      1.0000 0.28550  0.49840  0.68740  Biso   1.000  C
  C59      1.0000 0.33186  0.55396  0.68568  Biso   1.000  C
  C60      1.0000 0.38628  0.54038  0.70644  Biso   1.000  C
  C61      1.0000 0.38857  0.46917  0.73206  Biso   1.000  C
  C62      1.0000 0.43862  0.73682  0.41816  Biso   1.000  C
  C63      1.0000 0.42932  0.68982  0.45736  Biso   1.000  C
  C64      1.0000 0.39837  0.79587  0.46306  Biso   1.000  C
  C65      1.0000 0.38532  0.70112  0.53176  Biso   1.000  C
  C66      1.0000 0.41762  0.64192  0.55116  Biso   1.000  C
  C67      1.0000 0.39718  0.61448  0.59564  Biso   1.000  C
  C68      1.0000 0.34542  0.64752  0.61996  Biso   1.000  C
  C69      1.0000 0.31444  0.70674  0.60052  Biso   1.000  C
  C70      1.0000 0.33323  0.73383  0.55674  Biso   1.000  C
  C71      1.0000 0.49077  0.32457  0.86346  Biso   1.000  C
  C72      1.0000 0.53039  0.39179  0.86422  Biso   1.000  C
  C73      1.0000 0.59070  0.42850  0.83060  Biso   1.000  C
  C74      1.0000 0.50771  0.41891  0.89878  Biso   1.000  C
  C75      1.0000 0.64509  0.58379  0.86842  Biso   1.000  C
  C76      1.0000 0.60516  0.51716  0.86688  Biso   1.000  C
  C77      1.0000 0.54402  0.48162  0.89996  Biso   1.000  C
  C78      1.0000 0.62819  0.49086  0.83182  Biso   1.000  C
  C79      1.0000 0.37896  0.98736  0.79048  Biso   1.000  C
  C80      1.0000 0.42178  0.96778  0.75804  Biso   1.000  C
  C81      1.0000 0.33839  0.87889  0.79682  Biso   1.000  C
  C82      1.0000 0.42601  0.85101  0.73478  Biso   1.000  C
  C83      1.0000 0.49883  0.86143  0.71234  Biso   1.000  C
  C84      1.0000 0.52710  0.81420  0.68740  Biso   1.000  C
  C85      1.0000 0.48246  0.76036  0.68568  Biso   1.000  C
  C86      1.0000 0.40728  0.75318  0.70644  Biso   1.000  C
  C87      1.0000 0.37937  0.79877  0.73206  Biso   1.000  C
  C88      1.0000 0.64322  0.84502  0.41816  Biso   1.000  C
  C89      1.0000 0.61332  0.85282  0.45736  Biso   1.000  C
  C90      1.0000 0.63857  0.74107  0.46306  Biso   1.000  C
  C91      1.0000 0.58292  0.76712  0.53176  Biso   1.000  C
  C92      1.0000 0.53122  0.80692  0.55116  Biso   1.000  C
  C93      1.0000 0.50718  0.78988  0.59564  Biso   1.000  C
  C94      1.0000 0.53462  0.73252  0.61996  Biso   1.000  C
  C95      1.0000 0.58504  0.69274  0.60052  Biso   1.000  C
  C96      1.0000 0.61003  0.70943  0.55674  Biso   1.000  C
  C97      1.0000 0.14577  0.81197  0.86346  Biso   1.000  C
  C98      1.0000 0.10539  0.74399  0.86422  Biso   1.000  C
  C99      1.0000 0.07870  0.74090  0.83060  Biso   1.000  C
  C100     1.0000 0.09351  0.68231  0.89878  Biso   1.000  C
  C101     1.0000 0.98649  0.54779  0.86842  Biso   1.000  C
  C102     1.0000 0.02796  0.61596  0.86688  Biso   1.000  C
  C103     1.0000 0.05602  0.61842  0.89996  Biso   1.000  C
  C104     1.0000 0.03999  0.67732  0.83182  Biso   1.000  C
  C105     1.0000 0.22216  0.33056  0.29048  Biso   1.000  C
  C106     1.0000 0.27418  0.32018  0.25804  Biso   1.000  C
  C107     1.0000 0.32429  0.36479  0.29682  Biso   1.000  C
  C108     1.0000 0.41421  0.33921  0.23478  Biso   1.000  C
  C109     1.0000 0.42623  0.28883  0.21234  Biso   1.000  C
  C110     1.0000 0.49840  0.28550  0.18740  Biso   1.000  C
  C111     1.0000 0.55396  0.33186  0.18568  Biso   1.000  C
  C112     1.0000 0.54038  0.38628  0.20644  Biso   1.000  C
  C113     1.0000 0.46917  0.38857  0.23206  Biso   1.000  C
  C114     1.0000 0.73682  0.43862  0.91816  Biso   1.000  C
  C115     1.0000 0.68982  0.42932  0.95736  Biso   1.000  C
  C116     1.0000 0.79587  0.39837  0.96306  Biso   1.000  C
  C117     1.0000 0.70112  0.38532  0.03176  Biso   1.000  C
  C118     1.0000 0.64192  0.41762  0.05116  Biso   1.000  C
  C119     1.0000 0.61448  0.39718  0.09564  Biso   1.000  C
  C120     1.0000 0.64752  0.34542  0.11996  Biso   1.000  C
  C121     1.0000 0.70674  0.31444  0.10052  Biso   1.000  C
  C122     1.0000 0.73383  0.33323  0.05674  Biso   1.000  C
  C123     1.0000 0.32457  0.49077  0.36346  Biso   1.000  C
  C124     1.0000 0.39179  0.53039  0.36422  Biso   1.000  C
  C125     1.0000 0.42850  0.59070  0.33060  Biso   1.000  C
  C126     1.0000 0.41891  0.50771  0.39878  Biso   1.000  C
  C127     1.0000 0.58379  0.64509  0.36842  Biso   1.000  C
  C128     1.0000 0.51716  0.60516  0.36688  Biso   1.000  C
  C129     1.0000 0.48162  0.54402  0.39996  Biso   1.000  C
  C130     1.0000 0.49086  0.62819  0.33182  Biso   1.000  C
  C131     1.0000 0.98736  0.37896  0.29048  Biso   1.000  C
  C132     1.0000 0.96778  0.42178  0.25804  Biso   1.000  C
  C133     1.0000 0.87889  0.33839  0.29682  Biso   1.000  C
  C134     1.0000 0.85101  0.42601  0.23478  Biso   1.000  C
  C135     1.0000 0.86143  0.49883  0.21234  Biso   1.000  C
  C136     1.0000 0.81420  0.52710  0.18740  Biso   1.000  C
  C137     1.0000 0.76036  0.48246  0.18568  Biso   1.000  C
  C138     1.0000 0.75318  0.40728  0.20644  Biso   1.000  C
  C139     1.0000 0.79877  0.37937  0.23206  Biso   1.000  C
  C140     1.0000 0.84502  0.64322  0.91816  Biso   1.000  C
  C141     1.0000 0.85282  0.61332  0.95736  Biso   1.000  C
  C142     1.0000 0.74107  0.63857  0.96306  Biso   1.000  C
  C143     1.0000 0.76712  0.58292  0.03176  Biso   1.000  C
  C144     1.0000 0.80692  0.53122  0.05116  Biso   1.000  C
  C145     1.0000 0.78988  0.50718  0.09564  Biso   1.000  C
  C146     1.0000 0.73252  0.53462  0.11996  Biso   1.000  C
  C147     1.0000 0.69274  0.58504  0.10052  Biso   1.000  C
  C148     1.0000 0.70943  0.61003  0.05674  Biso   1.000  C
  C149     1.0000 0.81197  0.14577  0.36346  Biso   1.000  C
  C150     1.0000 0.74399  0.10539  0.36422  Biso   1.000  C
  C151     1.0000 0.74090  0.07870  0.33060  Biso   1.000  C
  C152     1.0000 0.68231  0.09351  0.39878  Biso   1.000  C
  C153     1.0000 0.54779  0.98649  0.36842  Biso   1.000  C
  C154     1.0000 0.61596  0.02796  0.36688  Biso   1.000  C
  C155     1.0000 0.61842  0.05602  0.39996  Biso   1.000  C
  C156     1.0000 0.67732  0.03999  0.33182  Biso   1.000  C
  C157     1.0000 0.87896  0.72216  0.79048  Biso   1.000  C
  C158     1.0000 0.92178  0.77418  0.75804  Biso   1.000  C
  C159     1.0000 0.83839  0.82429  0.79682  Biso   1.000  C
  C160     1.0000 0.92601  0.91421  0.73478  Biso   1.000  C
  C161     1.0000 0.99883  0.92623  0.71234  Biso   1.000  C
  C162     1.0000 0.02710  0.99840  0.68740  Biso   1.000  C
  C163     1.0000 0.98246  0.05396  0.68568  Biso   1.000  C
  C164     1.0000 0.90728  0.04038  0.70644  Biso   1.000  C
  C165     1.0000 0.87937  0.96917  0.73206  Biso   1.000  C
  C166     1.0000 0.14322  0.23682  0.41816  Biso   1.000  C
  C167     1.0000 0.11332  0.18982  0.45736  Biso   1.000  C
  C168     1.0000 0.13857  0.29587  0.46306  Biso   1.000  C
  C169     1.0000 0.08292  0.20112  0.53176  Biso   1.000  C
  C170     1.0000 0.03122  0.14192  0.55116  Biso   1.000  C
  C171     1.0000 0.00718  0.11448  0.59564  Biso   1.000  C
  C172     1.0000 0.03462  0.14752  0.61996  Biso   1.000  C
  C173     1.0000 0.08504  0.20674  0.60052  Biso   1.000  C
  C174     1.0000 0.11003  0.23383  0.55674  Biso   1.000  C
  C175     1.0000 0.64577  0.82457  0.86346  Biso   1.000  C
  C176     1.0000 0.60539  0.89179  0.86422  Biso   1.000  C
  C177     1.0000 0.57870  0.92850  0.83060  Biso   1.000  C
  C178     1.0000 0.59351  0.91891  0.89878  Biso   1.000  C
  C179     1.0000 0.48649  0.08379  0.86842  Biso   1.000  C
  C180     1.0000 0.52796  0.01716  0.86688  Biso   1.000  C
  C181     1.0000 0.55602  0.98162  0.89996  Biso   1.000  C
  C182     1.0000 0.53999  0.99086  0.83182  Biso   1.000  C
  C183     1.0000 0.83056  0.48736  0.79048  Biso   1.000  C
  C184     1.0000 0.82018  0.46778  0.75804  Biso   1.000  C
  C185     1.0000 0.86479  0.37889  0.79682  Biso   1.000  C
  C186     1.0000 0.83921  0.35101  0.73478  Biso   1.000  C
  C187     1.0000 0.78883  0.36143  0.71234  Biso   1.000  C
  C188     1.0000 0.78550  0.31420  0.68740  Biso   1.000  C
  C189     1.0000 0.83186  0.26036  0.68568  Biso   1.000  C
  C190     1.0000 0.88628  0.25318  0.70644  Biso   1.000  C
  C191     1.0000 0.88857  0.29877  0.73206  Biso   1.000  C
  C192     1.0000 0.93862  0.34502  0.41816  Biso   1.000  C
  C193     1.0000 0.92932  0.35282  0.45736  Biso   1.000  C
  C194     1.0000 0.89837  0.24107  0.46306  Biso   1.000  C
  C195     1.0000 0.88532  0.26712  0.53176  Biso   1.000  C
  C196     1.0000 0.91762  0.30692  0.55116  Biso   1.000  C
  C197     1.0000 0.89718  0.28988  0.59564  Biso   1.000  C
  C198     1.0000 0.84542  0.23252  0.61996  Biso   1.000  C
  C199     1.0000 0.81444  0.19274  0.60052  Biso   1.000  C
  C200     1.0000 0.83323  0.20943  0.55674  Biso   1.000  C
  C201     1.0000 0.99077  0.31197  0.86346  Biso   1.000  C
  C202     1.0000 0.03039  0.24399  0.86422  Biso   1.000  C
  C203     1.0000 0.09070  0.24090  0.83060  Biso   1.000  C
  C204     1.0000 0.00771  0.18231  0.89878  Biso   1.000  C
  C205     1.0000 0.14509  0.04779  0.86842  Biso   1.000  C
  C206     1.0000 0.10516  0.11596  0.86688  Biso   1.000  C
  C207     1.0000 0.04402  0.11842  0.89996  Biso   1.000  C
  C208     1.0000 0.12819  0.17732  0.83182  Biso   1.000  C
  N1       1.0000 0.43115  0.85815  0.31550  Biso   1.000  N
  N2       1.0000 0.39756  0.84081  0.26202  Biso   1.000  N
  N3       1.0000 0.27345  0.92075  0.92230  Biso   1.000  N
  N4       1.0000 0.28496  0.90616  0.98668  Biso   1.000  N
  N5       1.0000 0.75335  0.82635  0.31550  Biso   1.000  N
  N6       1.0000 0.84042  0.89717  0.26202  Biso   1.000  N
  N7       1.0000 0.30425  0.15695  0.92230  Biso   1.000  N
  N8       1.0000 0.22836  0.10716  0.98668  Biso   1.000  N
  N9       1.0000 0.35815  0.25335  0.81550  Biso   1.000  N
  N10      1.0000 0.34081  0.34042  0.76202  Biso   1.000  N
  N11      1.0000 0.42075  0.80425  0.42230  Biso   1.000  N
  N12      1.0000 0.40616  0.72836  0.48668  Biso   1.000  N
  N13      1.0000 0.32635  0.93115  0.81550  Biso   1.000  N
  N14      1.0000 0.39717  0.89756  0.76202  Biso   1.000  N
  N15      1.0000 0.65695  0.77345  0.42230  Biso   1.000  N
  N16      1.0000 0.60716  0.78496  0.48668  Biso   1.000  N
  N17      1.0000 0.25335  0.35815  0.31550  Biso   1.000  N
  N18      1.0000 0.34042  0.34081  0.26202  Biso   1.000  N
  N19      1.0000 0.80425  0.42075  0.92230  Biso   1.000  N
  N20      1.0000 0.72836  0.40616  0.98668  Biso   1.000  N
  N21      1.0000 0.93115  0.32635  0.31550  Biso   1.000  N
  N22      1.0000 0.89756  0.39717  0.26202  Biso   1.000  N
  N23      1.0000 0.77345  0.65695  0.92230  Biso   1.000  N
  N24      1.0000 0.78496  0.60716  0.98668  Biso   1.000  N
  N25      1.0000 0.82635  0.75335  0.81550  Biso   1.000  N
  N26      1.0000 0.89717  0.84042  0.76202  Biso   1.000  N
  N27      1.0000 0.15695  0.30425  0.42230  Biso   1.000  N
  N28      1.0000 0.10716  0.22836  0.48668  Biso   1.000  N
  N29      1.0000 0.85815  0.43115  0.81550  Biso   1.000  N
  N30      1.0000 0.84081  0.39756  0.76202  Biso   1.000  N
  N31      1.0000 0.92075  0.27345  0.42230  Biso   1.000  N
  N32      1.0000 0.90616  0.28496  0.48668  Biso   1.000  N
  O1       1.0000 0.36648  0.01017  0.33132  Biso   1.000  O
  O2       1.0000 0.31215  0.93702  0.39530  Biso   1.000  O
  O3       1.0000 0.05076  0.20526  0.34044  Biso   1.000  O
  O4       1.0000 0.99069  0.11945  0.39766  Biso   1.000  O
  O5       1.0000 0.20938  0.82593  0.16414  Biso   1.000  O
  O6       1.0000 0.80220  0.65851  0.33132  Biso   1.000  O
  O7       1.0000 0.79255  0.66768  0.39530  Biso   1.000  O
  O8       1.0000 0.10880  0.45430  0.34044  Biso   1.000  O
  O9       1.0000 0.11165  0.48289  0.39766  Biso   1.000  O
  O10      1.0000 0.12648  0.00993  0.16414  Biso   1.000  O
  O11      1.0000 0.51017  0.30220  0.83132  Biso   1.000  O
  O12      1.0000 0.43702  0.29255  0.89530  Biso   1.000  O
  O13      1.0000 0.70526  0.60880  0.84044  Biso   1.000  O
  O14      1.0000 0.61945  0.61165  0.89766  Biso   1.000  O
  O15      1.0000 0.32593  0.62648  0.66414  Biso   1.000  O
  O16      1.0000 0.15851  0.86648  0.83132  Biso   1.000  O
  O17      1.0000 0.16768  0.81215  0.89530  Biso   1.000  O
  O18      1.0000 0.95430  0.55076  0.84044  Biso   1.000  O
  O19      1.0000 0.98289  0.49069  0.89766  Biso   1.000  O
  O20      1.0000 0.50993  0.70938  0.66414  Biso   1.000  O
  O21      1.0000 0.30220  0.51017  0.33132  Biso   1.000  O
  O22      1.0000 0.29255  0.43702  0.39530  Biso   1.000  O
  O23      1.0000 0.60880  0.70526  0.34044  Biso   1.000  O
  O24      1.0000 0.61165  0.61945  0.39766  Biso   1.000  O
  O25      1.0000 0.62648  0.32593  0.16414  Biso   1.000  O
  O26      1.0000 0.86648  0.15851  0.33132  Biso   1.000  O
  O27      1.0000 0.81215  0.16768  0.39530  Biso   1.000  O
  O28      1.0000 0.55076  0.95430  0.34044  Biso   1.000  O
  O29      1.0000 0.49069  0.98289  0.39766  Biso   1.000  O
  O30      1.0000 0.70938  0.50993  0.16414  Biso   1.000  O
  O31      1.0000 0.65851  0.80220  0.83132  Biso   1.000  O
  O32      1.0000 0.66768  0.79255  0.89530  Biso   1.000  O
  O33      1.0000 0.45430  0.10880  0.84044  Biso   1.000  O
  O34      1.0000 0.48289  0.11165  0.89766  Biso   1.000  O
  O35      1.0000 0.00993  0.12648  0.66414  Biso   1.000  O
  O36      1.0000 0.01017  0.36648  0.83132  Biso   1.000  O
  O37      1.0000 0.93702  0.31215  0.89530  Biso   1.000  O
  O38      1.0000 0.20526  0.05076  0.84044  Biso   1.000  O
  O39      1.0000 0.11945  0.99069  0.89766  Biso   1.000  O
  O40      1.0000 0.82593  0.20938  0.66414  Biso   1.000  O
  Cd9      1.0000 0.79787  0.59151  0.63060  Biso   1.000  Cd
  Cd10     1.0000 0.07153  0.77789  0.63060  Biso   1.000  Cd
  Cd11     1.0000 0.27789  0.29787  0.13060  Biso   1.000  Cd
  Cd12     1.0000 0.09151  0.57153  0.13060  Biso   1.000  Cd
  Cd13     1.0000 0.57153  0.09151  0.63060  Biso   1.000  Cd
  Cd14     1.0000 0.29787  0.27789  0.63060  Biso   1.000  Cd
  Cd15     1.0000 0.59151  0.79787  0.13060  Biso   1.000  Cd
  Cd16     1.0000 0.77789  0.07153  0.13060  Biso   1.000  Cd
  H145     1.0000 0.82830  0.67940  0.70440  Biso   1.000  H
  H146     1.0000 0.73290  0.69790  0.76360  Biso   1.000  H
  H147     1.0000 0.64060  0.61610  0.69360  Biso   1.000  H
  H148     1.0000 0.61250  0.74280  0.78640  Biso   1.000  H
  H149     1.0000 0.49210  0.74890  0.82800  Biso   1.000  H
  H150     1.0000 0.42170  0.57930  0.79680  Biso   1.000  H
  H151     1.0000 0.54080  0.57660  0.75280  Biso   1.000  H
  H152     1.0000 0.27500  0.54520  0.10760  Biso   1.000  H
  H153     1.0000 0.36010  0.56290  0.03640  Biso   1.000  H
  H154     1.0000 0.16690  0.62110  0.02520  Biso   1.000  H
  H155     1.0000 0.38010  0.54670  0.96540  Biso   1.000  H
  H156     1.0000 0.42630  0.58130  0.89120  Biso   1.000  H
  H157     1.0000 0.27050  0.72020  0.88280  Biso   1.000  H
  H158     1.0000 0.22590  0.68910  0.95600  Biso   1.000  H
  H159     1.0000 0.58890  0.39360  0.69320  Biso   1.000  H
  H160     1.0000 0.60510  0.53270  0.57820  Biso   1.000  H
  H161     1.0000 0.50010  0.47310  0.57660  Biso   1.000  H
  H162     1.0000 0.48530  0.33130  0.69100  Biso   1.000  H
  H163     1.0000 0.96730  0.61620  0.70440  Biso   1.000  H
  H164     1.0000 0.00350  0.53850  0.76360  Biso   1.000  H
  H165     1.0000 0.16580  0.69030  0.69360  Biso   1.000  H
  H166     1.0000 0.10110  0.47080  0.78640  Biso   1.000  H
  H167     1.0000 0.17990  0.42310  0.82800  Biso   1.000  H
  H168     1.0000 0.28150  0.62390  0.79680  Biso   1.000  H
  H169     1.0000 0.20640  0.67060  0.75280  Biso   1.000  H
  H170     1.0000 0.11740  0.34720  0.10760  Biso   1.000  H
  H171     1.0000 0.10350  0.40070  0.03640  Biso   1.000  H
  H172     1.0000 0.30790  0.35370  0.02520  Biso   1.000  H
  H173     1.0000 0.15450  0.48790  0.96540  Biso   1.000  H
  H174     1.0000 0.18250  0.52750  0.89120  Biso   1.000  H
  H175     1.0000 0.34670  0.39700  0.88280  Biso   1.000  H
  H176     1.0000 0.31810  0.35490  0.95600  Biso   1.000  H
  H177     1.0000 0.21790  0.91320  0.69320  Biso   1.000  H
  H178     1.0000 0.31670  0.88910  0.57820  Biso   1.000  H
  H179     1.0000 0.42330  0.95030  0.57660  Biso   1.000  H
  H180     1.0000 0.32370  0.97770  0.69100  Biso   1.000  H
  H181     1.0000 0.11620  0.32830  0.20440  Biso   1.000  H
  H182     1.0000 0.03850  0.23290  0.26360  Biso   1.000  H
  H183     1.0000 0.19030  0.14060  0.19360  Biso   1.000  H
  H184     1.0000 0.97080  0.11250  0.28640  Biso   1.000  H
  H185     1.0000 0.92310  0.99210  0.32800  Biso   1.000  H
  H186     1.0000 0.12390  0.92170  0.29680  Biso   1.000  H
  H187     1.0000 0.17060  0.04080  0.25280  Biso   1.000  H
  H188     1.0000 0.84720  0.77500  0.60760  Biso   1.000  H
  H189     1.0000 0.90070  0.86010  0.53640  Biso   1.000  H
  H190     1.0000 0.85370  0.66690  0.52520  Biso   1.000  H
  H191     1.0000 0.98790  0.88010  0.46540  Biso   1.000  H
  H192     1.0000 0.02750  0.92630  0.39120  Biso   1.000  H
  H193     1.0000 0.89700  0.77050  0.38280  Biso   1.000  H
  H194     1.0000 0.85490  0.72590  0.45600  Biso   1.000  H
  H195     1.0000 0.41320  0.08890  0.19320  Biso   1.000  H
  H196     1.0000 0.38910  0.10510  0.07820  Biso   1.000  H
  H197     1.0000 0.45030  0.00010  0.07660  Biso   1.000  H
  H198     1.0000 0.47770  0.98530  0.19100  Biso   1.000  H
  H199     1.0000 0.17940  0.46730  0.20440  Biso   1.000  H
  H200     1.0000 0.19790  0.50350  0.26360  Biso   1.000  H
  H201     1.0000 0.11610  0.66580  0.19360  Biso   1.000  H
  H202     1.0000 0.24280  0.60110  0.28640  Biso   1.000  H
  H203     1.0000 0.24890  0.67990  0.32800  Biso   1.000  H
  H204     1.0000 0.07930  0.78150  0.29680  Biso   1.000  H
  H205     1.0000 0.07660  0.70640  0.25280  Biso   1.000  H
  H206     1.0000 0.04520  0.61740  0.60760  Biso   1.000  H
  H207     1.0000 0.06290  0.60350  0.53640  Biso   1.000  H
  H208     1.0000 0.12110  0.80790  0.52520  Biso   1.000  H
  H209     1.0000 0.04670  0.65450  0.46540  Biso   1.000  H
  H210     1.0000 0.08130  0.68250  0.39120  Biso   1.000  H
  H211     1.0000 0.22020  0.84670  0.38280  Biso   1.000  H
  H212     1.0000 0.18910  0.81810  0.45600  Biso   1.000  H
  H213     1.0000 0.89360  0.71790  0.19320  Biso   1.000  H
  H214     1.0000 0.03270  0.81670  0.07820  Biso   1.000  H
  H215     1.0000 0.97310  0.92330  0.07660  Biso   1.000  H
  H216     1.0000 0.83130  0.82370  0.19100  Biso   1.000  H
  H217     1.0000 0.46730  0.17940  0.70440  Biso   1.000  H
  H218     1.0000 0.50350  0.19790  0.76360  Biso   1.000  H
  H219     1.0000 0.66580  0.11610  0.69360  Biso   1.000  H
  H220     1.0000 0.60110  0.24280  0.78640  Biso   1.000  H
  H221     1.0000 0.67990  0.24890  0.82800  Biso   1.000  H
  H222     1.0000 0.78150  0.07930  0.79680  Biso   1.000  H
  H223     1.0000 0.70640  0.07660  0.75280  Biso   1.000  H
  H224     1.0000 0.61740  0.04520  0.10760  Biso   1.000  H
  H225     1.0000 0.60350  0.06290  0.03640  Biso   1.000  H
  H226     1.0000 0.80790  0.12110  0.02520  Biso   1.000  H
  H227     1.0000 0.65450  0.04670  0.96540  Biso   1.000  H
  H228     1.0000 0.68250  0.08130  0.89120  Biso   1.000  H
  H229     1.0000 0.84670  0.22020  0.88280  Biso   1.000  H
  H230     1.0000 0.81810  0.18910  0.95600  Biso   1.000  H
  H231     1.0000 0.71790  0.89360  0.69320  Biso   1.000  H
  H232     1.0000 0.81670  0.03270  0.57820  Biso   1.000  H
  H233     1.0000 0.92330  0.97310  0.57660  Biso   1.000  H
  H234     1.0000 0.82370  0.83130  0.69100  Biso   1.000  H
  H235     1.0000 0.32830  0.11620  0.70440  Biso   1.000  H
  H236     1.0000 0.23290  0.03850  0.76360  Biso   1.000  H
  H237     1.0000 0.14060  0.19030  0.69360  Biso   1.000  H
  H238     1.0000 0.11250  0.97080  0.78640  Biso   1.000  H
  H239     1.0000 0.99210  0.92310  0.82800  Biso   1.000  H
  H240     1.0000 0.92170  0.12390  0.79680  Biso   1.000  H
  H241     1.0000 0.04080  0.17060  0.75280  Biso   1.000  H
  H242     1.0000 0.77500  0.84720  0.10760  Biso   1.000  H
  H243     1.0000 0.86010  0.90070  0.03640  Biso   1.000  H
  H244     1.0000 0.66690  0.85370  0.02520  Biso   1.000  H
  H245     1.0000 0.88010  0.98790  0.96540  Biso   1.000  H
  H246     1.0000 0.92630  0.02750  0.89120  Biso   1.000  H
  H247     1.0000 0.77050  0.89700  0.88280  Biso   1.000  H
  H248     1.0000 0.72590  0.85490  0.95600  Biso   1.000  H
  H249     1.0000 0.08890  0.41320  0.69320  Biso   1.000  H
  H250     1.0000 0.10510  0.38910  0.57820  Biso   1.000  H
  H251     1.0000 0.00010  0.45030  0.57660  Biso   1.000  H
  H252     1.0000 0.98530  0.47770  0.69100  Biso   1.000  H
  H253     1.0000 0.67940  0.82830  0.20440  Biso   1.000  H
  H254     1.0000 0.69790  0.73290  0.26360  Biso   1.000  H
  H255     1.0000 0.61610  0.64060  0.19360  Biso   1.000  H
  H256     1.0000 0.74280  0.61250  0.28640  Biso   1.000  H
  H257     1.0000 0.74890  0.49210  0.32800  Biso   1.000  H
  H258     1.0000 0.57930  0.42170  0.29680  Biso   1.000  H
  H259     1.0000 0.57660  0.54080  0.25280  Biso   1.000  H
  H260     1.0000 0.54520  0.27500  0.60760  Biso   1.000  H
  H261     1.0000 0.56290  0.36010  0.53640  Biso   1.000  H
  H262     1.0000 0.62110  0.16690  0.52520  Biso   1.000  H
  H263     1.0000 0.54670  0.38010  0.46540  Biso   1.000  H
  H264     1.0000 0.58130  0.42630  0.39120  Biso   1.000  H
  H265     1.0000 0.72020  0.27050  0.38280  Biso   1.000  H
  H266     1.0000 0.68910  0.22590  0.45600  Biso   1.000  H
  H267     1.0000 0.39360  0.58890  0.19320  Biso   1.000  H
  H268     1.0000 0.53270  0.60510  0.07820  Biso   1.000  H
  H269     1.0000 0.47310  0.50010  0.07660  Biso   1.000  H
  H270     1.0000 0.33130  0.48530  0.19100  Biso   1.000  H
  H271     1.0000 0.61620  0.96730  0.20440  Biso   1.000  H
  H272     1.0000 0.53850  0.00350  0.26360  Biso   1.000  H
  H273     1.0000 0.69030  0.16580  0.19360  Biso   1.000  H
  H274     1.0000 0.47080  0.10110  0.28640  Biso   1.000  H
  H275     1.0000 0.42310  0.17990  0.32800  Biso   1.000  H
  H276     1.0000 0.62390  0.28150  0.29680  Biso   1.000  H
  H277     1.0000 0.67060  0.20640  0.25280  Biso   1.000  H
  H278     1.0000 0.34720  0.11740  0.60760  Biso   1.000  H
  H279     1.0000 0.40070  0.10350  0.53640  Biso   1.000  H
  H280     1.0000 0.35370  0.30790  0.52520  Biso   1.000  H
  H281     1.0000 0.48790  0.15450  0.46540  Biso   1.000  H
  H282     1.0000 0.52750  0.18250  0.39120  Biso   1.000  H
  H283     1.0000 0.39700  0.34670  0.38280  Biso   1.000  H
  H284     1.0000 0.35490  0.31810  0.45600  Biso   1.000  H
  H285     1.0000 0.91320  0.21790  0.19320  Biso   1.000  H
  H286     1.0000 0.88910  0.31670  0.07820  Biso   1.000  H
  H287     1.0000 0.95030  0.42330  0.07660  Biso   1.000  H
  H288     1.0000 0.97770  0.32370  0.19100  Biso   1.000  H
  C209     1.0000 0.77784  0.66944  0.70952  Biso   1.000  C
  C210     1.0000 0.72582  0.67982  0.74196  Biso   1.000  C
  C211     1.0000 0.67571  0.63521  0.70318  Biso   1.000  C
  C212     1.0000 0.58579  0.66079  0.76522  Biso   1.000  C
  C213     1.0000 0.57377  0.71117  0.78766  Biso   1.000  C
  C214     1.0000 0.50160  0.71450  0.81260  Biso   1.000  C
  C215     1.0000 0.44604  0.66814  0.81432  Biso   1.000  C
  C216     1.0000 0.45962  0.61372  0.79356  Biso   1.000  C
  C217     1.0000 0.53083  0.61143  0.76794  Biso   1.000  C
  C218     1.0000 0.26318  0.56138  0.08184  Biso   1.000  C
  C219     1.0000 0.31018  0.57068  0.04264  Biso   1.000  C
  C220     1.0000 0.20413  0.60163  0.03694  Biso   1.000  C
  C221     1.0000 0.29888  0.61468  0.96824  Biso   1.000  C
  C222     1.0000 0.35808  0.58238  0.94884  Biso   1.000  C
  C223     1.0000 0.38552  0.60282  0.90436  Biso   1.000  C
  C224     1.0000 0.35248  0.65458  0.88004  Biso   1.000  C
  C225     1.0000 0.29326  0.68556  0.89948  Biso   1.000  C
  C226     1.0000 0.26617  0.66677  0.94326  Biso   1.000  C
  C227     1.0000 0.67543  0.50923  0.63654  Biso   1.000  C
  C228     1.0000 0.60821  0.46961  0.63578  Biso   1.000  C
  C229     1.0000 0.57150  0.40930  0.66940  Biso   1.000  C
  C230     1.0000 0.58109  0.49229  0.60122  Biso   1.000  C
  C231     1.0000 0.41621  0.35491  0.63158  Biso   1.000  C
  C232     1.0000 0.48284  0.39484  0.63312  Biso   1.000  C
  C233     1.0000 0.51838  0.45598  0.60004  Biso   1.000  C
  C234     1.0000 0.50914  0.37181  0.66818  Biso   1.000  C
  C235     1.0000 0.01264  0.62104  0.70952  Biso   1.000  C
  C236     1.0000 0.03222  0.57822  0.74196  Biso   1.000  C
  C237     1.0000 0.12111  0.66161  0.70318  Biso   1.000  C
  C238     1.0000 0.14899  0.57399  0.76522  Biso   1.000  C
  C239     1.0000 0.13857  0.50117  0.78766  Biso   1.000  C
  C240     1.0000 0.18580  0.47290  0.81260  Biso   1.000  C
  C241     1.0000 0.23964  0.51754  0.81432  Biso   1.000  C
  C242     1.0000 0.24682  0.59272  0.79356  Biso   1.000  C
  C243     1.0000 0.20123  0.62063  0.76794  Biso   1.000  C
  C244     1.0000 0.15498  0.35678  0.08184  Biso   1.000  C
  C245     1.0000 0.14718  0.38668  0.04264  Biso   1.000  C
  C246     1.0000 0.25893  0.36143  0.03694  Biso   1.000  C
  C247     1.0000 0.23288  0.41708  0.96824  Biso   1.000  C
  C248     1.0000 0.19308  0.46878  0.94884  Biso   1.000  C
  C249     1.0000 0.21012  0.49282  0.90436  Biso   1.000  C
  C250     1.0000 0.26748  0.46538  0.88004  Biso   1.000  C
  C251     1.0000 0.30726  0.41496  0.89948  Biso   1.000  C
  C252     1.0000 0.29057  0.38997  0.94326  Biso   1.000  C
  C253     1.0000 0.18803  0.85423  0.63654  Biso   1.000  C
  C254     1.0000 0.25601  0.89461  0.63578  Biso   1.000  C
  C255     1.0000 0.25910  0.92130  0.66940  Biso   1.000  C
  C256     1.0000 0.31769  0.90649  0.60122  Biso   1.000  C
  C257     1.0000 0.45221  0.01351  0.63158  Biso   1.000  C
  C258     1.0000 0.38404  0.97204  0.63312  Biso   1.000  C
  C259     1.0000 0.38158  0.94398  0.60004  Biso   1.000  C
  C260     1.0000 0.32268  0.96001  0.66818  Biso   1.000  C
  C261     1.0000 0.12104  0.27784  0.20952  Biso   1.000  C
  C262     1.0000 0.07822  0.22582  0.24196  Biso   1.000  C
  C263     1.0000 0.16161  0.17571  0.20318  Biso   1.000  C
  C264     1.0000 0.07399  0.08579  0.26522  Biso   1.000  C
  C265     1.0000 0.00117  0.07377  0.28766  Biso   1.000  C
  C266     1.0000 0.97290  0.00160  0.31260  Biso   1.000  C
  C267     1.0000 0.01754  0.94604  0.31432  Biso   1.000  C
  C268     1.0000 0.09272  0.95962  0.29356  Biso   1.000  C
  C269     1.0000 0.12063  0.03083  0.26794  Biso   1.000  C
  C270     1.0000 0.85678  0.76318  0.58184  Biso   1.000  C
  C271     1.0000 0.88668  0.81018  0.54264  Biso   1.000  C
  C272     1.0000 0.86143  0.70413  0.53694  Biso   1.000  C
  C273     1.0000 0.91708  0.79888  0.46824  Biso   1.000  C
  C274     1.0000 0.96878  0.85808  0.44884  Biso   1.000  C
  C275     1.0000 0.99282  0.88552  0.40436  Biso   1.000  C
  C276     1.0000 0.96538  0.85248  0.38004  Biso   1.000  C
  C277     1.0000 0.91496  0.79326  0.39948  Biso   1.000  C
  C278     1.0000 0.88997  0.76617  0.44326  Biso   1.000  C
  C279     1.0000 0.35423  0.17543  0.13654  Biso   1.000  C
  C280     1.0000 0.39461  0.10821  0.13578  Biso   1.000  C
  C281     1.0000 0.42130  0.07150  0.16940  Biso   1.000  C
  C282     1.0000 0.40649  0.08109  0.10122  Biso   1.000  C
  C283     1.0000 0.51351  0.91621  0.13158  Biso   1.000  C
  C284     1.0000 0.47204  0.98284  0.13312  Biso   1.000  C
  C285     1.0000 0.44398  0.01838  0.10004  Biso   1.000  C
  C286     1.0000 0.46001  0.00914  0.16818  Biso   1.000  C
  C287     1.0000 0.16944  0.51264  0.20952  Biso   1.000  C
  C288     1.0000 0.17982  0.53222  0.24196  Biso   1.000  C
  C289     1.0000 0.13521  0.62111  0.20318  Biso   1.000  C
  C290     1.0000 0.16079  0.64899  0.26522  Biso   1.000  C
  C291     1.0000 0.21117  0.63857  0.28766  Biso   1.000  C
  C292     1.0000 0.21450  0.68580  0.31260  Biso   1.000  C
  C293     1.0000 0.16814  0.73964  0.31432  Biso   1.000  C
  C294     1.0000 0.11372  0.74682  0.29356  Biso   1.000  C
  C295     1.0000 0.11143  0.70123  0.26794  Biso   1.000  C
  C296     1.0000 0.06138  0.65498  0.58184  Biso   1.000  C
  C297     1.0000 0.07068  0.64718  0.54264  Biso   1.000  C
  C298     1.0000 0.10163  0.75893  0.53694  Biso   1.000  C
  C299     1.0000 0.11468  0.73288  0.46824  Biso   1.000  C
  C300     1.0000 0.08238  0.69308  0.44884  Biso   1.000  C
  C301     1.0000 0.10282  0.71012  0.40436  Biso   1.000  C
  C302     1.0000 0.15458  0.76748  0.38004  Biso   1.000  C
  C303     1.0000 0.18556  0.80726  0.39948  Biso   1.000  C
  C304     1.0000 0.16677  0.79057  0.44326  Biso   1.000  C
  C305     1.0000 0.00923  0.68803  0.13654  Biso   1.000  C
  C306     1.0000 0.96961  0.75601  0.13578  Biso   1.000  C
  C307     1.0000 0.90930  0.75910  0.16940  Biso   1.000  C
  C308     1.0000 0.99229  0.81769  0.10122  Biso   1.000  C
  C309     1.0000 0.85491  0.95221  0.13158  Biso   1.000  C
  C310     1.0000 0.89484  0.88404  0.13312  Biso   1.000  C
  C311     1.0000 0.95598  0.88158  0.10004  Biso   1.000  C
  C312     1.0000 0.87181  0.82268  0.16818  Biso   1.000  C
  C313     1.0000 0.51264  0.16944  0.70952  Biso   1.000  C
  C314     1.0000 0.53222  0.17982  0.74196  Biso   1.000  C
  C315     1.0000 0.62111  0.13521  0.70318  Biso   1.000  C
  C316     1.0000 0.64899  0.16079  0.76522  Biso   1.000  C
  C317     1.0000 0.63857  0.21117  0.78766  Biso   1.000  C
  C318     1.0000 0.68580  0.21450  0.81260  Biso   1.000  C
  C319     1.0000 0.73964  0.16814  0.81432  Biso   1.000  C
  C320     1.0000 0.74682  0.11372  0.79356  Biso   1.000  C
  C321     1.0000 0.70123  0.11143  0.76794  Biso   1.000  C
  C322     1.0000 0.65498  0.06138  0.08184  Biso   1.000  C
  C323     1.0000 0.64718  0.07068  0.04264  Biso   1.000  C
  C324     1.0000 0.75893  0.10163  0.03694  Biso   1.000  C
  C325     1.0000 0.73288  0.11468  0.96824  Biso   1.000  C
  C326     1.0000 0.69308  0.08238  0.94884  Biso   1.000  C
  C327     1.0000 0.71012  0.10282  0.90436  Biso   1.000  C
  C328     1.0000 0.76748  0.15458  0.88004  Biso   1.000  C
  C329     1.0000 0.80726  0.18556  0.89948  Biso   1.000  C
  C330     1.0000 0.79057  0.16677  0.94326  Biso   1.000  C
  C331     1.0000 0.68803  0.00923  0.63654  Biso   1.000  C
  C332     1.0000 0.75601  0.96961  0.63578  Biso   1.000  C
  C333     1.0000 0.75910  0.90930  0.66940  Biso   1.000  C
  C334     1.0000 0.81769  0.99229  0.60122  Biso   1.000  C
  C335     1.0000 0.95221  0.85491  0.63158  Biso   1.000  C
  C336     1.0000 0.88404  0.89484  0.63312  Biso   1.000  C
  C337     1.0000 0.88158  0.95598  0.60004  Biso   1.000  C
  C338     1.0000 0.82268  0.87181  0.66818  Biso   1.000  C
  C339     1.0000 0.27784  0.12104  0.70952  Biso   1.000  C
  C340     1.0000 0.22582  0.07822  0.74196  Biso   1.000  C
  C341     1.0000 0.17571  0.16161  0.70318  Biso   1.000  C
  C342     1.0000 0.08579  0.07399  0.76522  Biso   1.000  C
  C343     1.0000 0.07377  0.00117  0.78766  Biso   1.000  C
  C344     1.0000 0.00160  0.97290  0.81260  Biso   1.000  C
  C345     1.0000 0.94604  0.01754  0.81432  Biso   1.000  C
  C346     1.0000 0.95962  0.09272  0.79356  Biso   1.000  C
  C347     1.0000 0.03083  0.12063  0.76794  Biso   1.000  C
  C348     1.0000 0.76318  0.85678  0.08184  Biso   1.000  C
  C349     1.0000 0.81018  0.88668  0.04264  Biso   1.000  C
  C350     1.0000 0.70413  0.86143  0.03694  Biso   1.000  C
  C351     1.0000 0.79888  0.91708  0.96824  Biso   1.000  C
  C352     1.0000 0.85808  0.96878  0.94884  Biso   1.000  C
  C353     1.0000 0.88552  0.99282  0.90436  Biso   1.000  C
  C354     1.0000 0.85248  0.96538  0.88004  Biso   1.000  C
  C355     1.0000 0.79326  0.91496  0.89948  Biso   1.000  C
  C356     1.0000 0.76617  0.88997  0.94326  Biso   1.000  C
  C357     1.0000 0.17543  0.35423  0.63654  Biso   1.000  C
  C358     1.0000 0.10821  0.39461  0.63578  Biso   1.000  C
  C359     1.0000 0.07150  0.42130  0.66940  Biso   1.000  C
  C360     1.0000 0.08109  0.40649  0.60122  Biso   1.000  C
  C361     1.0000 0.91621  0.51351  0.63158  Biso   1.000  C
  C362     1.0000 0.98284  0.47204  0.63312  Biso   1.000  C
  C363     1.0000 0.01838  0.44398  0.60004  Biso   1.000  C
  C364     1.0000 0.00914  0.46001  0.66818  Biso   1.000  C
  C365     1.0000 0.66944  0.77784  0.20952  Biso   1.000  C
  C366     1.0000 0.67982  0.72582  0.24196  Biso   1.000  C
  C367     1.0000 0.63521  0.67571  0.20318  Biso   1.000  C
  C368     1.0000 0.66079  0.58579  0.26522  Biso   1.000  C
  C369     1.0000 0.71117  0.57377  0.28766  Biso   1.000  C
  C370     1.0000 0.71450  0.50160  0.31260  Biso   1.000  C
  C371     1.0000 0.66814  0.44604  0.31432  Biso   1.000  C
  C372     1.0000 0.61372  0.45962  0.29356  Biso   1.000  C
  C373     1.0000 0.61143  0.53083  0.26794  Biso   1.000  C
  C374     1.0000 0.56138  0.26318  0.58184  Biso   1.000  C
  C375     1.0000 0.57068  0.31018  0.54264  Biso   1.000  C
  C376     1.0000 0.60163  0.20413  0.53694  Biso   1.000  C
  C377     1.0000 0.61468  0.29888  0.46824  Biso   1.000  C
  C378     1.0000 0.58238  0.35808  0.44884  Biso   1.000  C
  C379     1.0000 0.60282  0.38552  0.40436  Biso   1.000  C
  C380     1.0000 0.65458  0.35248  0.38004  Biso   1.000  C
  C381     1.0000 0.68556  0.29326  0.39948  Biso   1.000  C
  C382     1.0000 0.66677  0.26617  0.44326  Biso   1.000  C
  C383     1.0000 0.50923  0.67543  0.13654  Biso   1.000  C
  C384     1.0000 0.46961  0.60821  0.13578  Biso   1.000  C
  C385     1.0000 0.40930  0.57150  0.16940  Biso   1.000  C
  C386     1.0000 0.49229  0.58109  0.10122  Biso   1.000  C
  C387     1.0000 0.35491  0.41621  0.13158  Biso   1.000  C
  C388     1.0000 0.39484  0.48284  0.13312  Biso   1.000  C
  C389     1.0000 0.45598  0.51838  0.10004  Biso   1.000  C
  C390     1.0000 0.37181  0.50914  0.16818  Biso   1.000  C
  C391     1.0000 0.62104  0.01264  0.20952  Biso   1.000  C
  C392     1.0000 0.57822  0.03222  0.24196  Biso   1.000  C
  C393     1.0000 0.66161  0.12111  0.20318  Biso   1.000  C
  C394     1.0000 0.57399  0.14899  0.26522  Biso   1.000  C
  C395     1.0000 0.50117  0.13857  0.28766  Biso   1.000  C
  C396     1.0000 0.47290  0.18580  0.31260  Biso   1.000  C
  C397     1.0000 0.51754  0.23964  0.31432  Biso   1.000  C
  C398     1.0000 0.59272  0.24682  0.29356  Biso   1.000  C
  C399     1.0000 0.62063  0.20123  0.26794  Biso   1.000  C
  C400     1.0000 0.35678  0.15498  0.58184  Biso   1.000  C
  C401     1.0000 0.38668  0.14718  0.54264  Biso   1.000  C
  C402     1.0000 0.36143  0.25893  0.53694  Biso   1.000  C
  C403     1.0000 0.41708  0.23288  0.46824  Biso   1.000  C
  C404     1.0000 0.46878  0.19308  0.44884  Biso   1.000  C
  C405     1.0000 0.49282  0.21012  0.40436  Biso   1.000  C
  C406     1.0000 0.46538  0.26748  0.38004  Biso   1.000  C
  C407     1.0000 0.41496  0.30726  0.39948  Biso   1.000  C
  C408     1.0000 0.38997  0.29057  0.44326  Biso   1.000  C
  C409     1.0000 0.85423  0.18803  0.13654  Biso   1.000  C
  C410     1.0000 0.89461  0.25601  0.13578  Biso   1.000  C
  C411     1.0000 0.92130  0.25910  0.16940  Biso   1.000  C
  C412     1.0000 0.90649  0.31769  0.10122  Biso   1.000  C
  C413     1.0000 0.01351  0.45221  0.13158  Biso   1.000  C
  C414     1.0000 0.97204  0.38404  0.13312  Biso   1.000  C
  C415     1.0000 0.94398  0.38158  0.10004  Biso   1.000  C
  C416     1.0000 0.96001  0.32268  0.16818  Biso   1.000  C
  N33      1.0000 0.74665  0.64185  0.68450  Biso   1.000  N
  N34      1.0000 0.65958  0.65919  0.73798  Biso   1.000  N
  N35      1.0000 0.19575  0.57925  0.07770  Biso   1.000  N
  N36      1.0000 0.27164  0.59384  0.01332  Biso   1.000  N
  N37      1.0000 0.06885  0.67365  0.68450  Biso   1.000  N
  N38      1.0000 0.10244  0.60283  0.73798  Biso   1.000  N
  N39      1.0000 0.22655  0.34305  0.07770  Biso   1.000  N
  N40      1.0000 0.21504  0.39284  0.01332  Biso   1.000  N
  N41      1.0000 0.17365  0.24665  0.18450  Biso   1.000  N
  N42      1.0000 0.10283  0.15958  0.23798  Biso   1.000  N
  N43      1.0000 0.84305  0.69575  0.57770  Biso   1.000  N
  N44      1.0000 0.89284  0.77164  0.51332  Biso   1.000  N
  N45      1.0000 0.14185  0.56885  0.18450  Biso   1.000  N
  N46      1.0000 0.15919  0.60244  0.23798  Biso   1.000  N
  N47      1.0000 0.07925  0.72655  0.57770  Biso   1.000  N
  N48      1.0000 0.09384  0.71504  0.51332  Biso   1.000  N
  N49      1.0000 0.56885  0.14185  0.68450  Biso   1.000  N
  N50      1.0000 0.60244  0.15919  0.73798  Biso   1.000  N
  N51      1.0000 0.72655  0.07925  0.07770  Biso   1.000  N
  N52      1.0000 0.71504  0.09384  0.01332  Biso   1.000  N
  N53      1.0000 0.24665  0.17365  0.68450  Biso   1.000  N
  N54      1.0000 0.15958  0.10283  0.73798  Biso   1.000  N
  N55      1.0000 0.69575  0.84305  0.07770  Biso   1.000  N
  N56      1.0000 0.77164  0.89284  0.01332  Biso   1.000  N
  N57      1.0000 0.64185  0.74665  0.18450  Biso   1.000  N
  N58      1.0000 0.65919  0.65958  0.23798  Biso   1.000  N
  N59      1.0000 0.57925  0.19575  0.57770  Biso   1.000  N
  N60      1.0000 0.59384  0.27164  0.51332  Biso   1.000  N
  N61      1.0000 0.67365  0.06885  0.18450  Biso   1.000  N
  N62      1.0000 0.60283  0.10244  0.23798  Biso   1.000  N
  N63      1.0000 0.34305  0.22655  0.57770  Biso   1.000  N
  N64      1.0000 0.39284  0.21504  0.51332  Biso   1.000  N
  O41      1.0000 0.69780  0.48983  0.66868  Biso   1.000  O
  O42      1.0000 0.70745  0.56298  0.60470  Biso   1.000  O
  O43      1.0000 0.39120  0.29474  0.65956  Biso   1.000  O
  O44      1.0000 0.38835  0.38055  0.60234  Biso   1.000  O
  O45      1.0000 0.37352  0.67407  0.83586  Biso   1.000  O
  O46      1.0000 0.13352  0.84149  0.66868  Biso   1.000  O
  O47      1.0000 0.18785  0.83232  0.60470  Biso   1.000  O
  O48      1.0000 0.44924  0.04570  0.65956  Biso   1.000  O
  O49      1.0000 0.50931  0.01711  0.60234  Biso   1.000  O
  O50      1.0000 0.29062  0.49007  0.83586  Biso   1.000  O
  O51      1.0000 0.34149  0.19780  0.16868  Biso   1.000  O
  O52      1.0000 0.33232  0.20745  0.10470  Biso   1.000  O
  O53      1.0000 0.54570  0.89120  0.15956  Biso   1.000  O
  O54      1.0000 0.51711  0.88835  0.10234  Biso   1.000  O
  O55      1.0000 0.99007  0.87352  0.33586  Biso   1.000  O
  O56      1.0000 0.98983  0.63352  0.16868  Biso   1.000  O
  O57      1.0000 0.06298  0.68785  0.10470  Biso   1.000  O
  O58      1.0000 0.79474  0.94924  0.15956  Biso   1.000  O
  O59      1.0000 0.88055  0.00931  0.10234  Biso   1.000  O
  O60      1.0000 0.17407  0.79062  0.33586  Biso   1.000  O
  O61      1.0000 0.63352  0.98983  0.66868  Biso   1.000  O
  O62      1.0000 0.68785  0.06298  0.60470  Biso   1.000  O
  O63      1.0000 0.94924  0.79474  0.65956  Biso   1.000  O
  O64      1.0000 0.00931  0.88055  0.60234  Biso   1.000  O
  O65      1.0000 0.79062  0.17407  0.83586  Biso   1.000  O
  O66      1.0000 0.19780  0.34149  0.66868  Biso   1.000  O
  O67      1.0000 0.20745  0.33232  0.60470  Biso   1.000  O
  O68      1.0000 0.89120  0.54570  0.65956  Biso   1.000  O
  O69      1.0000 0.88835  0.51711  0.60234  Biso   1.000  O
  O70      1.0000 0.87352  0.99007  0.83586  Biso   1.000  O
  O71      1.0000 0.48983  0.69780  0.16868  Biso   1.000  O
  O72      1.0000 0.56298  0.70745  0.10470  Biso   1.000  O
  O73      1.0000 0.29474  0.39120  0.15956  Biso   1.000  O
  O74      1.0000 0.38055  0.38835  0.10234  Biso   1.000  O
  O75      1.0000 0.67407  0.37352  0.33586  Biso   1.000  O
  O76      1.0000 0.84149  0.13352  0.16868  Biso   1.000  O
  O77      1.0000 0.83232  0.18785  0.10470  Biso   1.000  O
  O78      1.0000 0.04570  0.44924  0.15956  Biso   1.000  O
  O79      1.0000 0.01711  0.50931  0.10234  Biso   1.000  O
  O80      1.0000 0.49007  0.29062  0.33586  Biso   1.000  O
