data_image0
_cell_length_a       18.4905
_cell_length_b       18.4905
_cell_length_c       33.5408
_cell_angle_alpha    106
_cell_angle_beta     106
_cell_angle_gamma    90

_symmetry_space_group_name_H-M    P 1
_symmetry_int_tables_number       1

loop_
  _symmetry_equiv_pos_as_xyz
  'x, y, z'

loop_
  _atom_site_label
  _atom_site_occupancy
  _atom_site_fract_x
  _atom_site_fract_y
  _atom_site_fract_z
  _atom_site_thermal_displace_type
  _atom_site_B_iso_or_equiv
  _atom_site_type_symbol
  Co1      1.0000 0.27818  0.79015  0.86650  Biso   1.000  Co
  Co2      1.0000 0.08832  0.07635  0.86650  Biso   1.000  Co
  Co3      1.0000 0.79015  0.08832  0.36650  Biso   1.000  Co
  Co4      1.0000 0.07635  0.27818  0.36650  Biso   1.000  Co
  Co5      1.0000 0.58832  0.29015  0.86650  Biso   1.000  Co
  Co6      1.0000 0.77818  0.57635  0.86650  Biso   1.000  Co
  Co7      1.0000 0.57635  0.58832  0.36650  Biso   1.000  Co
  Co8      1.0000 0.29015  0.77818  0.36650  Biso   1.000  Co
  H1       1.0000 0.47670  0.99740  0.92380  Biso   1.000  H
  H2       1.0000 0.53180  0.10630  0.91800  Biso   1.000  H
  H3       1.0000 0.37940  0.08160  0.80300  Biso   1.000  H
  H4       1.0000 0.32220  0.97450  0.80840  Biso   1.000  H
  H5       1.0000 0.31290  0.84290  0.96920  Biso   1.000  H
  H6       1.0000 0.31660  0.84030  0.03760  Biso   1.000  H
  H7       1.0000 0.34720  0.88500  0.11280  Biso   1.000  H
  H8       1.0000 0.15910  0.98620  0.02880  Biso   1.000  H
  H9       1.0000 0.18200  0.02440  0.10300  Biso   1.000  H
  H10      1.0000 0.28470  0.12230  0.19740  Biso   1.000  H
  H11      1.0000 0.18070  0.91840  0.17100  Biso   1.000  H
  H12      1.0000 0.17800  0.19350  0.30800  Biso   1.000  H
  H13      1.0000 0.97050  0.12840  0.29780  Biso   1.000  H
  H14      1.0000 0.00580  0.04210  0.23780  Biso   1.000  H
  H15      1.0000 0.10520  0.96900  0.21640  Biso   1.000  H
  H16      1.0000 0.20910  0.17440  0.24140  Biso   1.000  H
  H17      1.0000 0.13020  0.94920  0.95840  Biso   1.000  H
  H18      1.0000 0.14090  0.88400  0.88580  Biso   1.000  H
  H19      1.0000 0.94710  0.92640  0.92380  Biso   1.000  H
  H20      1.0000 0.88620  0.81170  0.91800  Biso   1.000  H
  H21      1.0000 0.92360  0.72140  0.80300  Biso   1.000  H
  H22      1.0000 0.98620  0.83390  0.80840  Biso   1.000  H
  H23      1.0000 0.15630  0.12630  0.96920  Biso   1.000  H
  H24      1.0000 0.22100  0.19730  0.03760  Biso   1.000  H
  H25      1.0000 0.26560  0.22780  0.11280  Biso   1.000  H
  H26      1.0000 0.36970  0.04260  0.02880  Biso   1.000  H
  H27      1.0000 0.42100  0.07860  0.10300  Biso   1.000  H
  H28      1.0000 0.41270  0.07510  0.19740  Biso   1.000  H
  H29      1.0000 0.49030  0.25260  0.17100  Biso   1.000  H
  H30      1.0000 0.63000  0.11450  0.30800  Biso   1.000  H
  H31      1.0000 0.82730  0.16940  0.29780  Biso   1.000  H
  H32      1.0000 0.73200  0.19570  0.23780  Biso   1.000  H
  H33      1.0000 0.61120  0.24740  0.21640  Biso   1.000  H
  H34      1.0000 0.53230  0.06700  0.24140  Biso   1.000  H
  H35      1.0000 0.32820  0.00920  0.95840  Biso   1.000  H
  H36      1.0000 0.24490  0.00180  0.88580  Biso   1.000  H
  H37      1.0000 0.99740  0.94710  0.42380  Biso   1.000  H
  H38      1.0000 0.10630  0.88620  0.41800  Biso   1.000  H
  H39      1.0000 0.08160  0.92360  0.30300  Biso   1.000  H
  H40      1.0000 0.97450  0.98620  0.30840  Biso   1.000  H
  H41      1.0000 0.84290  0.15630  0.46920  Biso   1.000  H
  H42      1.0000 0.84030  0.22100  0.53760  Biso   1.000  H
  H43      1.0000 0.88500  0.26560  0.61280  Biso   1.000  H
  H44      1.0000 0.98620  0.36970  0.52880  Biso   1.000  H
  H45      1.0000 0.02440  0.42100  0.60300  Biso   1.000  H
  H46      1.0000 0.12230  0.41270  0.69740  Biso   1.000  H
  H47      1.0000 0.91840  0.49030  0.67100  Biso   1.000  H
  H48      1.0000 0.19350  0.63000  0.80800  Biso   1.000  H
  H49      1.0000 0.12840  0.82730  0.79780  Biso   1.000  H
  H50      1.0000 0.04210  0.73200  0.73780  Biso   1.000  H
  H51      1.0000 0.96900  0.61120  0.71640  Biso   1.000  H
  H52      1.0000 0.17440  0.53230  0.74140  Biso   1.000  H
  H53      1.0000 0.94920  0.32820  0.45840  Biso   1.000  H
  H54      1.0000 0.88400  0.24490  0.38580  Biso   1.000  H
  H55      1.0000 0.92640  0.47670  0.42380  Biso   1.000  H
  H56      1.0000 0.81170  0.53180  0.41800  Biso   1.000  H
  H57      1.0000 0.72140  0.37940  0.30300  Biso   1.000  H
  H58      1.0000 0.83390  0.32220  0.30840  Biso   1.000  H
  H59      1.0000 0.12630  0.31290  0.46920  Biso   1.000  H
  H60      1.0000 0.19730  0.31660  0.53760  Biso   1.000  H
  H61      1.0000 0.22780  0.34720  0.61280  Biso   1.000  H
  H62      1.0000 0.04260  0.15910  0.52880  Biso   1.000  H
  H63      1.0000 0.07860  0.18200  0.60300  Biso   1.000  H
  H64      1.0000 0.07510  0.28470  0.69740  Biso   1.000  H
  H65      1.0000 0.25260  0.18070  0.67100  Biso   1.000  H
  H66      1.0000 0.11450  0.17800  0.80800  Biso   1.000  H
  H67      1.0000 0.16940  0.97050  0.79780  Biso   1.000  H
  H68      1.0000 0.19570  0.00580  0.73780  Biso   1.000  H
  H69      1.0000 0.24740  0.10520  0.71640  Biso   1.000  H
  H70      1.0000 0.06700  0.20910  0.74140  Biso   1.000  H
  H71      1.0000 0.00920  0.13020  0.45840  Biso   1.000  H
  H72      1.0000 0.00180  0.14090  0.38580  Biso   1.000  H
  H73      1.0000 0.44710  0.49740  0.92380  Biso   1.000  H
  H74      1.0000 0.38620  0.60630  0.91800  Biso   1.000  H
  H75      1.0000 0.42360  0.58160  0.80300  Biso   1.000  H
  H76      1.0000 0.48620  0.47450  0.80840  Biso   1.000  H
  H77      1.0000 0.65630  0.34290  0.96920  Biso   1.000  H
  H78      1.0000 0.72100  0.34030  0.03760  Biso   1.000  H
  H79      1.0000 0.76560  0.38500  0.11280  Biso   1.000  H
  H80      1.0000 0.86970  0.48620  0.02880  Biso   1.000  H
  H81      1.0000 0.92100  0.52440  0.10300  Biso   1.000  H
  H82      1.0000 0.91270  0.62230  0.19740  Biso   1.000  H
  H83      1.0000 0.99030  0.41840  0.17100  Biso   1.000  H
  H84      1.0000 0.13000  0.69350  0.30800  Biso   1.000  H
  H85      1.0000 0.32730  0.62840  0.29780  Biso   1.000  H
  H86      1.0000 0.23200  0.54210  0.23780  Biso   1.000  H
  H87      1.0000 0.11120  0.46900  0.21640  Biso   1.000  H
  H88      1.0000 0.03230  0.67440  0.24140  Biso   1.000  H
  H89      1.0000 0.82820  0.44920  0.95840  Biso   1.000  H
  H90      1.0000 0.74490  0.38400  0.88580  Biso   1.000  H
  H91      1.0000 0.97670  0.42640  0.92380  Biso   1.000  H
  H92      1.0000 0.03180  0.31170  0.91800  Biso   1.000  H
  H93      1.0000 0.87940  0.22140  0.80300  Biso   1.000  H
  H94      1.0000 0.82220  0.33390  0.80840  Biso   1.000  H
  H95      1.0000 0.81290  0.62630  0.96920  Biso   1.000  H
  H96      1.0000 0.81660  0.69730  0.03760  Biso   1.000  H
  H97      1.0000 0.84720  0.72780  0.11280  Biso   1.000  H
  H98      1.0000 0.65910  0.54260  0.02880  Biso   1.000  H
  H99      1.0000 0.68200  0.57860  0.10300  Biso   1.000  H
  H100     1.0000 0.78470  0.57510  0.19740  Biso   1.000  H
  H101     1.0000 0.68070  0.75260  0.17100  Biso   1.000  H
  H102     1.0000 0.67800  0.61450  0.30800  Biso   1.000  H
  H103     1.0000 0.47050  0.66940  0.29780  Biso   1.000  H
  H104     1.0000 0.50580  0.69570  0.23780  Biso   1.000  H
  H105     1.0000 0.60520  0.74740  0.21640  Biso   1.000  H
  H106     1.0000 0.70910  0.56700  0.24140  Biso   1.000  H
  H107     1.0000 0.63020  0.50920  0.95840  Biso   1.000  H
  H108     1.0000 0.64090  0.50180  0.88580  Biso   1.000  H
  H109     1.0000 0.42640  0.44710  0.42380  Biso   1.000  H
  H110     1.0000 0.31170  0.38620  0.41800  Biso   1.000  H
  H111     1.0000 0.22140  0.42360  0.30300  Biso   1.000  H
  H112     1.0000 0.33390  0.48620  0.30840  Biso   1.000  H
  H113     1.0000 0.62630  0.65630  0.46920  Biso   1.000  H
  H114     1.0000 0.69730  0.72100  0.53760  Biso   1.000  H
  H115     1.0000 0.72780  0.76560  0.61280  Biso   1.000  H
  H116     1.0000 0.54260  0.86970  0.52880  Biso   1.000  H
  H117     1.0000 0.57860  0.92100  0.60300  Biso   1.000  H
  H118     1.0000 0.57510  0.91270  0.69740  Biso   1.000  H
  H119     1.0000 0.75260  0.99030  0.67100  Biso   1.000  H
  H120     1.0000 0.61450  0.13000  0.80800  Biso   1.000  H
  H121     1.0000 0.66940  0.32730  0.79780  Biso   1.000  H
  H122     1.0000 0.69570  0.23200  0.73780  Biso   1.000  H
  H123     1.0000 0.74740  0.11120  0.71640  Biso   1.000  H
  H124     1.0000 0.56700  0.03230  0.74140  Biso   1.000  H
  H125     1.0000 0.50920  0.82820  0.45840  Biso   1.000  H
  H126     1.0000 0.50180  0.74490  0.38580  Biso   1.000  H
  H127     1.0000 0.49740  0.97670  0.42380  Biso   1.000  H
  H128     1.0000 0.60630  0.03180  0.41800  Biso   1.000  H
  H129     1.0000 0.58160  0.87940  0.30300  Biso   1.000  H
  H130     1.0000 0.47450  0.82220  0.30840  Biso   1.000  H
  H131     1.0000 0.34290  0.81290  0.46920  Biso   1.000  H
  H132     1.0000 0.34030  0.81660  0.53760  Biso   1.000  H
  H133     1.0000 0.38500  0.84720  0.61280  Biso   1.000  H
  H134     1.0000 0.48620  0.65910  0.52880  Biso   1.000  H
  H135     1.0000 0.52440  0.68200  0.60300  Biso   1.000  H
  H136     1.0000 0.62230  0.78470  0.69740  Biso   1.000  H
  H137     1.0000 0.41840  0.68070  0.67100  Biso   1.000  H
  H138     1.0000 0.69350  0.67800  0.80800  Biso   1.000  H
  H139     1.0000 0.62840  0.47050  0.79780  Biso   1.000  H
  H140     1.0000 0.54210  0.50580  0.73780  Biso   1.000  H
  H141     1.0000 0.46900  0.60520  0.71640  Biso   1.000  H
  H142     1.0000 0.67440  0.70910  0.74140  Biso   1.000  H
  H143     1.0000 0.44920  0.63020  0.45840  Biso   1.000  H
  H144     1.0000 0.38400  0.64090  0.38580  Biso   1.000  H
  C1       1.0000 0.35707  0.90647  0.87074  Biso   1.000  C
  C2       1.0000 0.39345  0.97535  0.86690  Biso   1.000  C
  C3       1.0000 0.45618  0.01458  0.89916  Biso   1.000  C
  C4       1.0000 0.48930  0.07910  0.89540  Biso   1.000  C
  C5       1.0000 0.46204  0.10374  0.86028  Biso   1.000  C
  C6       1.0000 0.39904  0.06434  0.82768  Biso   1.000  C
  C7       1.0000 0.36515  0.00085  0.83090  Biso   1.000  C
  C8       1.0000 0.49931  0.17141  0.85522  Biso   1.000  C
  C9       1.0000 0.26271  0.85321  0.95682  Biso   1.000  C
  C10      1.0000 0.23470  0.91040  0.02620  Biso   1.000  C
  C11      1.0000 0.29014  0.87934  0.05088  Biso   1.000  C
  C12      1.0000 0.30738  0.90498  0.09536  Biso   1.000  C
  C13      1.0000 0.19714  0.96404  0.04608  Biso   1.000  C
  C14      1.0000 0.21121  0.98811  0.09002  Biso   1.000  C
  C15      1.0000 0.26760  0.95890  0.11440  Biso   1.000  C
  C16      1.0000 0.24079  0.01569  0.18178  Biso   1.000  C
  C17      1.0000 0.24859  0.09079  0.20158  Biso   1.000  C
  C18      1.0000 0.18739  0.97059  0.18618  Biso   1.000  C
  C19      1.0000 0.12962  0.16662  0.29784  Biso   1.000  C
  C20      1.0000 0.01793  0.13113  0.29226  Biso   1.000  C
  C21      1.0000 0.03642  0.08372  0.25924  Biso   1.000  C
  C22      1.0000 0.15339  0.07599  0.23418  Biso   1.000  C
  C23      1.0000 0.14245  0.00025  0.21290  Biso   1.000  C
  C24      1.0000 0.20418  0.12158  0.22776  Biso   1.000  C
  C25      1.0000 0.16510  0.91340  0.95160  Biso   1.000  C
  C26      1.0000 0.17280  0.87890  0.91220  Biso   1.000  C
  C27      1.0000 0.01367  0.96427  0.87074  Biso   1.000  C
  C28      1.0000 0.97345  0.89155  0.86690  Biso   1.000  C
  C29      1.0000 0.94298  0.88458  0.89916  Biso   1.000  C
  C30      1.0000 0.90610  0.81630  0.89540  Biso   1.000  C
  C31      1.0000 0.89824  0.75654  0.86028  Biso   1.000  C
  C32      1.0000 0.92864  0.76334  0.82768  Biso   1.000  C
  C33      1.0000 0.96575  0.83005  0.83090  Biso   1.000  C
  C34      1.0000 0.85591  0.68381  0.85522  Biso   1.000  C
  C35      1.0000 0.19411  0.10361  0.95682  Biso   1.000  C
  C36      1.0000 0.29150  0.11580  0.02620  Biso   1.000  C
  C37      1.0000 0.26074  0.17154  0.05088  Biso   1.000  C
  C38      1.0000 0.28798  0.19038  0.09536  Biso   1.000  C
  C39      1.0000 0.34894  0.08204  0.04608  Biso   1.000  C
  C40      1.0000 0.37881  0.10191  0.09002  Biso   1.000  C
  C41      1.0000 0.34680  0.15550  0.11440  Biso   1.000  C
  C42      1.0000 0.44099  0.16609  0.18178  Biso   1.000  C
  C43      1.0000 0.45299  0.11079  0.20158  Biso   1.000  C
  C44      1.0000 0.49879  0.21559  0.18618  Biso   1.000  C
  C45      1.0000 0.66822  0.13122  0.29784  Biso   1.000  C
  C46      1.0000 0.77433  0.16113  0.29226  Biso   1.000  C
  C47      1.0000 0.72282  0.17552  0.25924  Biso   1.000  C
  C48      1.0000 0.58079  0.15819  0.23418  Biso   1.000  C
  C49      1.0000 0.57045  0.21265  0.21290  Biso   1.000  C
  C50      1.0000 0.52358  0.10618  0.22776  Biso   1.000  C
  C51      1.0000 0.28650  0.03820  0.95160  Biso   1.000  C
  C52      1.0000 0.23940  0.03330  0.91220  Biso   1.000  C
  C53      1.0000 0.90647  0.01367  0.37074  Biso   1.000  C
  C54      1.0000 0.97535  0.97345  0.36690  Biso   1.000  C
  C55      1.0000 0.01458  0.94298  0.39916  Biso   1.000  C
  C56      1.0000 0.07910  0.90610  0.39540  Biso   1.000  C
  C57      1.0000 0.10374  0.89824  0.36028  Biso   1.000  C
  C58      1.0000 0.06434  0.92864  0.32768  Biso   1.000  C
  C59      1.0000 0.00085  0.96575  0.33090  Biso   1.000  C
  C60      1.0000 0.17141  0.85591  0.35522  Biso   1.000  C
  C61      1.0000 0.85321  0.19411  0.45682  Biso   1.000  C
  C62      1.0000 0.91040  0.29150  0.52620  Biso   1.000  C
  C63      1.0000 0.87934  0.26074  0.55088  Biso   1.000  C
  C64      1.0000 0.90498  0.28798  0.59536  Biso   1.000  C
  C65      1.0000 0.96404  0.34894  0.54608  Biso   1.000  C
  C66      1.0000 0.98811  0.37881  0.59002  Biso   1.000  C
  C67      1.0000 0.95890  0.34680  0.61440  Biso   1.000  C
  C68      1.0000 0.01569  0.44099  0.68178  Biso   1.000  C
  C69      1.0000 0.09079  0.45299  0.70158  Biso   1.000  C
  C70      1.0000 0.97059  0.49879  0.68618  Biso   1.000  C
  C71      1.0000 0.16662  0.66822  0.79784  Biso   1.000  C
  C72      1.0000 0.13113  0.77433  0.79226  Biso   1.000  C
  C73      1.0000 0.08372  0.72282  0.75924  Biso   1.000  C
  C74      1.0000 0.07599  0.58079  0.73418  Biso   1.000  C
  C75      1.0000 0.00025  0.57045  0.71290  Biso   1.000  C
  C76      1.0000 0.12158  0.52358  0.72776  Biso   1.000  C
  C77      1.0000 0.91340  0.28650  0.45160  Biso   1.000  C
  C78      1.0000 0.87890  0.23940  0.41220  Biso   1.000  C
  C79      1.0000 0.96427  0.35707  0.37074  Biso   1.000  C
  C80      1.0000 0.89155  0.39345  0.36690  Biso   1.000  C
  C81      1.0000 0.88458  0.45618  0.39916  Biso   1.000  C
  C82      1.0000 0.81630  0.48930  0.39540  Biso   1.000  C
  C83      1.0000 0.75654  0.46204  0.36028  Biso   1.000  C
  C84      1.0000 0.76334  0.39904  0.32768  Biso   1.000  C
  C85      1.0000 0.83005  0.36515  0.33090  Biso   1.000  C
  C86      1.0000 0.68381  0.49931  0.35522  Biso   1.000  C
  C87      1.0000 0.10361  0.26271  0.45682  Biso   1.000  C
  C88      1.0000 0.11580  0.23470  0.52620  Biso   1.000  C
  C89      1.0000 0.17154  0.29014  0.55088  Biso   1.000  C
  C90      1.0000 0.19038  0.30738  0.59536  Biso   1.000  C
  C91      1.0000 0.08204  0.19714  0.54608  Biso   1.000  C
  C92      1.0000 0.10191  0.21121  0.59002  Biso   1.000  C
  C93      1.0000 0.15550  0.26760  0.61440  Biso   1.000  C
  C94      1.0000 0.16609  0.24079  0.68178  Biso   1.000  C
  C95      1.0000 0.11079  0.24859  0.70158  Biso   1.000  C
  C96      1.0000 0.21559  0.18739  0.68618  Biso   1.000  C
  C97      1.0000 0.13122  0.12962  0.79784  Biso   1.000  C
  C98      1.0000 0.16113  0.01793  0.79226  Biso   1.000  C
  C99      1.0000 0.17552  0.03642  0.75924  Biso   1.000  C
  C100     1.0000 0.15819  0.15339  0.73418  Biso   1.000  C
  C101     1.0000 0.21265  0.14245  0.71290  Biso   1.000  C
  C102     1.0000 0.10618  0.20418  0.72776  Biso   1.000  C
  C103     1.0000 0.03820  0.16510  0.45160  Biso   1.000  C
  C104     1.0000 0.03330  0.17280  0.41220  Biso   1.000  C
  C105     1.0000 0.51367  0.40647  0.87074  Biso   1.000  C
  C106     1.0000 0.47345  0.47535  0.86690  Biso   1.000  C
  C107     1.0000 0.44298  0.51458  0.89916  Biso   1.000  C
  C108     1.0000 0.40610  0.57910  0.89540  Biso   1.000  C
  C109     1.0000 0.39824  0.60374  0.86028  Biso   1.000  C
  C110     1.0000 0.42864  0.56434  0.82768  Biso   1.000  C
  C111     1.0000 0.46575  0.50085  0.83090  Biso   1.000  C
  C112     1.0000 0.35591  0.67141  0.85522  Biso   1.000  C
  C113     1.0000 0.69411  0.35321  0.95682  Biso   1.000  C
  C114     1.0000 0.79150  0.41040  0.02620  Biso   1.000  C
  C115     1.0000 0.76074  0.37934  0.05088  Biso   1.000  C
  C116     1.0000 0.78798  0.40498  0.09536  Biso   1.000  C
  C117     1.0000 0.84894  0.46404  0.04608  Biso   1.000  C
  C118     1.0000 0.87881  0.48811  0.09002  Biso   1.000  C
  C119     1.0000 0.84680  0.45890  0.11440  Biso   1.000  C
  C120     1.0000 0.94099  0.51569  0.18178  Biso   1.000  C
  C121     1.0000 0.95299  0.59079  0.20158  Biso   1.000  C
  C122     1.0000 0.99879  0.47059  0.18618  Biso   1.000  C
  C123     1.0000 0.16822  0.66662  0.29784  Biso   1.000  C
  C124     1.0000 0.27433  0.63113  0.29226  Biso   1.000  C
  C125     1.0000 0.22282  0.58372  0.25924  Biso   1.000  C
  C126     1.0000 0.08079  0.57599  0.23418  Biso   1.000  C
  C127     1.0000 0.07045  0.50025  0.21290  Biso   1.000  C
  C128     1.0000 0.02358  0.62158  0.22776  Biso   1.000  C
  C129     1.0000 0.78650  0.41340  0.95160  Biso   1.000  C
  C130     1.0000 0.73940  0.37890  0.91220  Biso   1.000  C
  C131     1.0000 0.85707  0.46427  0.87074  Biso   1.000  C
  C132     1.0000 0.89345  0.39155  0.86690  Biso   1.000  C
  C133     1.0000 0.95618  0.38458  0.89916  Biso   1.000  C
  C134     1.0000 0.98930  0.31630  0.89540  Biso   1.000  C
  C135     1.0000 0.96204  0.25654  0.86028  Biso   1.000  C
  C136     1.0000 0.89904  0.26334  0.82768  Biso   1.000  C
  C137     1.0000 0.86515  0.33005  0.83090  Biso   1.000  C
  C138     1.0000 0.99931  0.18381  0.85522  Biso   1.000  C
  C139     1.0000 0.76271  0.60361  0.95682  Biso   1.000  C
  C140     1.0000 0.73470  0.61580  0.02620  Biso   1.000  C
  C141     1.0000 0.79014  0.67154  0.05088  Biso   1.000  C
  C142     1.0000 0.80738  0.69038  0.09536  Biso   1.000  C
  C143     1.0000 0.69714  0.58204  0.04608  Biso   1.000  C
  C144     1.0000 0.71121  0.60191  0.09002  Biso   1.000  C
  C145     1.0000 0.76760  0.65550  0.11440  Biso   1.000  C
  C146     1.0000 0.74079  0.66609  0.18178  Biso   1.000  C
  C147     1.0000 0.74859  0.61079  0.20158  Biso   1.000  C
  C148     1.0000 0.68739  0.71559  0.18618  Biso   1.000  C
  C149     1.0000 0.62962  0.63122  0.29784  Biso   1.000  C
  C150     1.0000 0.51793  0.66113  0.29226  Biso   1.000  C
  C151     1.0000 0.53642  0.67552  0.25924  Biso   1.000  C
  C152     1.0000 0.65339  0.65819  0.23418  Biso   1.000  C
  C153     1.0000 0.64245  0.71265  0.21290  Biso   1.000  C
  C154     1.0000 0.70418  0.60618  0.22776  Biso   1.000  C
  C155     1.0000 0.66510  0.53820  0.95160  Biso   1.000  C
  C156     1.0000 0.67280  0.53330  0.91220  Biso   1.000  C
  C157     1.0000 0.46427  0.51367  0.37074  Biso   1.000  C
  C158     1.0000 0.39155  0.47345  0.36690  Biso   1.000  C
  C159     1.0000 0.38458  0.44298  0.39916  Biso   1.000  C
  C160     1.0000 0.31630  0.40610  0.39540  Biso   1.000  C
  C161     1.0000 0.25654  0.39824  0.36028  Biso   1.000  C
  C162     1.0000 0.26334  0.42864  0.32768  Biso   1.000  C
  C163     1.0000 0.33005  0.46575  0.33090  Biso   1.000  C
  C164     1.0000 0.18381  0.35591  0.35522  Biso   1.000  C
  C165     1.0000 0.60361  0.69411  0.45682  Biso   1.000  C
  C166     1.0000 0.61580  0.79150  0.52620  Biso   1.000  C
  C167     1.0000 0.67154  0.76074  0.55088  Biso   1.000  C
  C168     1.0000 0.69038  0.78798  0.59536  Biso   1.000  C
  C169     1.0000 0.58204  0.84894  0.54608  Biso   1.000  C
  C170     1.0000 0.60191  0.87881  0.59002  Biso   1.000  C
  C171     1.0000 0.65550  0.84680  0.61440  Biso   1.000  C
  C172     1.0000 0.66609  0.94099  0.68178  Biso   1.000  C
  C173     1.0000 0.61079  0.95299  0.70158  Biso   1.000  C
  C174     1.0000 0.71559  0.99879  0.68618  Biso   1.000  C
  C175     1.0000 0.63122  0.16822  0.79784  Biso   1.000  C
  C176     1.0000 0.66113  0.27433  0.79226  Biso   1.000  C
  C177     1.0000 0.67552  0.22282  0.75924  Biso   1.000  C
  C178     1.0000 0.65819  0.08079  0.73418  Biso   1.000  C
  C179     1.0000 0.71265  0.07045  0.71290  Biso   1.000  C
  C180     1.0000 0.60618  0.02358  0.72776  Biso   1.000  C
  C181     1.0000 0.53820  0.78650  0.45160  Biso   1.000  C
  C182     1.0000 0.53330  0.73940  0.41220  Biso   1.000  C
  C183     1.0000 0.40647  0.85707  0.37074  Biso   1.000  C
  C184     1.0000 0.47535  0.89345  0.36690  Biso   1.000  C
  C185     1.0000 0.51458  0.95618  0.39916  Biso   1.000  C
  C186     1.0000 0.57910  0.98930  0.39540  Biso   1.000  C
  C187     1.0000 0.60374  0.96204  0.36028  Biso   1.000  C
  C188     1.0000 0.56434  0.89904  0.32768  Biso   1.000  C
  C189     1.0000 0.50085  0.86515  0.33090  Biso   1.000  C
  C190     1.0000 0.67141  0.99931  0.35522  Biso   1.000  C
  C191     1.0000 0.35321  0.76271  0.45682  Biso   1.000  C
  C192     1.0000 0.41040  0.73470  0.52620  Biso   1.000  C
  C193     1.0000 0.37934  0.79014  0.55088  Biso   1.000  C
  C194     1.0000 0.40498  0.80738  0.59536  Biso   1.000  C
  C195     1.0000 0.46404  0.69714  0.54608  Biso   1.000  C
  C196     1.0000 0.48811  0.71121  0.59002  Biso   1.000  C
  C197     1.0000 0.45890  0.76760  0.61440  Biso   1.000  C
  C198     1.0000 0.51569  0.74079  0.68178  Biso   1.000  C
  C199     1.0000 0.59079  0.74859  0.70158  Biso   1.000  C
  C200     1.0000 0.47059  0.68739  0.68618  Biso   1.000  C
  C201     1.0000 0.66662  0.62962  0.79784  Biso   1.000  C
  C202     1.0000 0.63113  0.51793  0.79226  Biso   1.000  C
  C203     1.0000 0.58372  0.53642  0.75924  Biso   1.000  C
  C204     1.0000 0.57599  0.65339  0.73418  Biso   1.000  C
  C205     1.0000 0.50025  0.64245  0.71290  Biso   1.000  C
  C206     1.0000 0.62158  0.70418  0.72776  Biso   1.000  C
  C207     1.0000 0.41340  0.66510  0.45160  Biso   1.000  C
  C208     1.0000 0.37890  0.67280  0.41220  Biso   1.000  C
  N1       1.0000 0.23186  0.83626  0.91532  Biso   1.000  N
  N2       1.0000 0.21895  0.88565  0.98010  Biso   1.000  N
  N3       1.0000 0.07595  0.18375  0.31670  Biso   1.000  N
  N4       1.0000 0.10856  0.10726  0.26272  Biso   1.000  N
  N5       1.0000 0.18346  0.07906  0.91532  Biso   1.000  N
  N6       1.0000 0.26115  0.09445  0.98010  Biso   1.000  N
  N7       1.0000 0.74075  0.13295  0.31670  Biso   1.000  N
  N8       1.0000 0.65416  0.15546  0.26272  Biso   1.000  N
  N9       1.0000 0.83626  0.18346  0.41532  Biso   1.000  N
  N10      1.0000 0.88565  0.26115  0.48010  Biso   1.000  N
  N11      1.0000 0.18375  0.74075  0.81670  Biso   1.000  N
  N12      1.0000 0.10726  0.65416  0.76272  Biso   1.000  N
  N13      1.0000 0.07906  0.23186  0.41532  Biso   1.000  N
  N14      1.0000 0.09445  0.21895  0.48010  Biso   1.000  N
  N15      1.0000 0.13295  0.07595  0.81670  Biso   1.000  N
  N16      1.0000 0.15546  0.10856  0.76272  Biso   1.000  N
  N17      1.0000 0.68346  0.33626  0.91532  Biso   1.000  N
  N18      1.0000 0.76115  0.38565  0.98010  Biso   1.000  N
  N19      1.0000 0.24075  0.68375  0.31670  Biso   1.000  N
  N20      1.0000 0.15416  0.60726  0.26272  Biso   1.000  N
  N21      1.0000 0.73186  0.57906  0.91532  Biso   1.000  N
  N22      1.0000 0.71895  0.59445  0.98010  Biso   1.000  N
  N23      1.0000 0.57595  0.63295  0.31670  Biso   1.000  N
  N24      1.0000 0.60856  0.65546  0.26272  Biso   1.000  N
  N25      1.0000 0.57906  0.68346  0.41532  Biso   1.000  N
  N26      1.0000 0.59445  0.76115  0.48010  Biso   1.000  N
  N27      1.0000 0.63295  0.24075  0.81670  Biso   1.000  N
  N28      1.0000 0.65546  0.15416  0.76272  Biso   1.000  N
  N29      1.0000 0.33626  0.73186  0.41532  Biso   1.000  N
  N30      1.0000 0.38565  0.71895  0.48010  Biso   1.000  N
  N31      1.0000 0.68375  0.57595  0.81670  Biso   1.000  N
  N32      1.0000 0.60726  0.60856  0.76272  Biso   1.000  N
  O1       1.0000 0.29648  0.87628  0.84276  Biso   1.000  O
  O2       1.0000 0.38581  0.87951  0.90102  Biso   1.000  O
  O3       1.0000 0.47689  0.19039  0.82178  Biso   1.000  O
  O4       1.0000 0.55516  0.20696  0.88612  Biso   1.000  O
  O5       1.0000 0.29155  0.98285  0.15950  Biso   1.000  O
  O6       1.0000 0.04628  0.96648  0.84276  Biso   1.000  O
  O7       1.0000 0.01521  0.02151  0.90102  Biso   1.000  O
  O8       1.0000 0.84489  0.63139  0.82178  Biso   1.000  O
  O9       1.0000 0.83096  0.67916  0.88612  Biso   1.000  O
  O10      1.0000 0.36795  0.17665  0.15950  Biso   1.000  O
  O11      1.0000 0.87628  0.04628  0.34276  Biso   1.000  O
  O12      1.0000 0.87951  0.01521  0.40102  Biso   1.000  O
  O13      1.0000 0.19039  0.84489  0.32178  Biso   1.000  O
  O14      1.0000 0.20696  0.83096  0.38612  Biso   1.000  O
  O15      1.0000 0.98285  0.36795  0.65950  Biso   1.000  O
  O16      1.0000 0.96648  0.29648  0.34276  Biso   1.000  O
  O17      1.0000 0.02151  0.38581  0.40102  Biso   1.000  O
  O18      1.0000 0.63139  0.47689  0.32178  Biso   1.000  O
  O19      1.0000 0.67916  0.55516  0.38612  Biso   1.000  O
  O20      1.0000 0.17665  0.29155  0.65950  Biso   1.000  O
  O21      1.0000 0.54628  0.37628  0.84276  Biso   1.000  O
  O22      1.0000 0.51521  0.37951  0.90102  Biso   1.000  O
  O23      1.0000 0.34489  0.69039  0.82178  Biso   1.000  O
  O24      1.0000 0.33096  0.70696  0.88612  Biso   1.000  O
  O25      1.0000 0.86795  0.48285  0.15950  Biso   1.000  O
  O26      1.0000 0.79648  0.46648  0.84276  Biso   1.000  O
  O27      1.0000 0.88581  0.52151  0.90102  Biso   1.000  O
  O28      1.0000 0.97689  0.13139  0.82178  Biso   1.000  O
  O29      1.0000 0.05516  0.17916  0.88612  Biso   1.000  O
  O30      1.0000 0.79155  0.67665  0.15950  Biso   1.000  O
  O31      1.0000 0.46648  0.54628  0.34276  Biso   1.000  O
  O32      1.0000 0.52151  0.51521  0.40102  Biso   1.000  O
  O33      1.0000 0.13139  0.34489  0.32178  Biso   1.000  O
  O34      1.0000 0.17916  0.33096  0.38612  Biso   1.000  O
  O35      1.0000 0.67665  0.86795  0.65950  Biso   1.000  O
  O36      1.0000 0.37628  0.79648  0.34276  Biso   1.000  O
  O37      1.0000 0.37951  0.88581  0.40102  Biso   1.000  O
  O38      1.0000 0.69039  0.97689  0.32178  Biso   1.000  O
  O39      1.0000 0.70696  0.05516  0.38612  Biso   1.000  O
  O40      1.0000 0.48285  0.79155  0.65950  Biso   1.000  O
  Co9      1.0000 0.41168  0.70985  0.13350  Biso   1.000  Co
  Co10     1.0000 0.22182  0.42365  0.13350  Biso   1.000  Co
  Co11     1.0000 0.42365  0.41168  0.63350  Biso   1.000  Co
  Co12     1.0000 0.70985  0.22182  0.63350  Biso   1.000  Co
  Co13     1.0000 0.72182  0.20985  0.13350  Biso   1.000  Co
  Co14     1.0000 0.91168  0.92365  0.13350  Biso   1.000  Co
  Co15     1.0000 0.20985  0.91168  0.63350  Biso   1.000  Co
  Co16     1.0000 0.92365  0.72182  0.63350  Biso   1.000  Co
  H145     1.0000 0.55290  0.50260  0.07620  Biso   1.000  H
  H146     1.0000 0.61380  0.39370  0.08200  Biso   1.000  H
  H147     1.0000 0.57640  0.41840  0.19700  Biso   1.000  H
  H148     1.0000 0.51380  0.52550  0.19160  Biso   1.000  H
  H149     1.0000 0.34370  0.65710  0.03080  Biso   1.000  H
  H150     1.0000 0.27900  0.65970  0.96240  Biso   1.000  H
  H151     1.0000 0.23440  0.61500  0.88720  Biso   1.000  H
  H152     1.0000 0.13030  0.51380  0.97120  Biso   1.000  H
  H153     1.0000 0.07900  0.47560  0.89700  Biso   1.000  H
  H154     1.0000 0.08730  0.37770  0.80260  Biso   1.000  H
  H155     1.0000 0.00970  0.58160  0.82900  Biso   1.000  H
  H156     1.0000 0.87000  0.30650  0.69200  Biso   1.000  H
  H157     1.0000 0.67270  0.37160  0.70220  Biso   1.000  H
  H158     1.0000 0.76800  0.45790  0.76220  Biso   1.000  H
  H159     1.0000 0.88880  0.53100  0.78360  Biso   1.000  H
  H160     1.0000 0.96770  0.32560  0.75860  Biso   1.000  H
  H161     1.0000 0.17180  0.55080  0.04160  Biso   1.000  H
  H162     1.0000 0.25510  0.61600  0.11420  Biso   1.000  H
  H163     1.0000 0.02330  0.57360  0.07620  Biso   1.000  H
  H164     1.0000 0.96820  0.68830  0.08200  Biso   1.000  H
  H165     1.0000 0.12060  0.77860  0.19700  Biso   1.000  H
  H166     1.0000 0.17780  0.66610  0.19160  Biso   1.000  H
  H167     1.0000 0.18710  0.37370  0.03080  Biso   1.000  H
  H168     1.0000 0.18340  0.30270  0.96240  Biso   1.000  H
  H169     1.0000 0.15280  0.27220  0.88720  Biso   1.000  H
  H170     1.0000 0.34090  0.45740  0.97120  Biso   1.000  H
  H171     1.0000 0.31800  0.42140  0.89700  Biso   1.000  H
  H172     1.0000 0.21530  0.42490  0.80260  Biso   1.000  H
  H173     1.0000 0.31930  0.24740  0.82900  Biso   1.000  H
  H174     1.0000 0.32200  0.38550  0.69200  Biso   1.000  H
  H175     1.0000 0.52950  0.33060  0.70220  Biso   1.000  H
  H176     1.0000 0.49420  0.30430  0.76220  Biso   1.000  H
  H177     1.0000 0.39480  0.25260  0.78360  Biso   1.000  H
  H178     1.0000 0.29090  0.43300  0.75860  Biso   1.000  H
  H179     1.0000 0.36980  0.49080  0.04160  Biso   1.000  H
  H180     1.0000 0.35910  0.49820  0.11420  Biso   1.000  H
  H181     1.0000 0.57360  0.55290  0.57620  Biso   1.000  H
  H182     1.0000 0.68830  0.61380  0.58200  Biso   1.000  H
  H183     1.0000 0.77860  0.57640  0.69700  Biso   1.000  H
  H184     1.0000 0.66610  0.51380  0.69160  Biso   1.000  H
  H185     1.0000 0.37370  0.34370  0.53080  Biso   1.000  H
  H186     1.0000 0.30270  0.27900  0.46240  Biso   1.000  H
  H187     1.0000 0.27220  0.23440  0.38720  Biso   1.000  H
  H188     1.0000 0.45740  0.13030  0.47120  Biso   1.000  H
  H189     1.0000 0.42140  0.07900  0.39700  Biso   1.000  H
  H190     1.0000 0.42490  0.08730  0.30260  Biso   1.000  H
  H191     1.0000 0.24740  0.00970  0.32900  Biso   1.000  H
  H192     1.0000 0.38550  0.87000  0.19200  Biso   1.000  H
  H193     1.0000 0.33060  0.67270  0.20220  Biso   1.000  H
  H194     1.0000 0.30430  0.76800  0.26220  Biso   1.000  H
  H195     1.0000 0.25260  0.88880  0.28360  Biso   1.000  H
  H196     1.0000 0.43300  0.96770  0.25860  Biso   1.000  H
  H197     1.0000 0.49080  0.17180  0.54160  Biso   1.000  H
  H198     1.0000 0.49820  0.25510  0.61420  Biso   1.000  H
  H199     1.0000 0.50260  0.02330  0.57620  Biso   1.000  H
  H200     1.0000 0.39370  0.96820  0.58200  Biso   1.000  H
  H201     1.0000 0.41840  0.12060  0.69700  Biso   1.000  H
  H202     1.0000 0.52550  0.17780  0.69160  Biso   1.000  H
  H203     1.0000 0.65710  0.18710  0.53080  Biso   1.000  H
  H204     1.0000 0.65970  0.18340  0.46240  Biso   1.000  H
  H205     1.0000 0.61500  0.15280  0.38720  Biso   1.000  H
  H206     1.0000 0.51380  0.34090  0.47120  Biso   1.000  H
  H207     1.0000 0.47560  0.31800  0.39700  Biso   1.000  H
  H208     1.0000 0.37770  0.21530  0.30260  Biso   1.000  H
  H209     1.0000 0.58160  0.31930  0.32900  Biso   1.000  H
  H210     1.0000 0.30650  0.32200  0.19200  Biso   1.000  H
  H211     1.0000 0.37160  0.52950  0.20220  Biso   1.000  H
  H212     1.0000 0.45790  0.49420  0.26220  Biso   1.000  H
  H213     1.0000 0.53100  0.39480  0.28360  Biso   1.000  H
  H214     1.0000 0.32560  0.29090  0.25860  Biso   1.000  H
  H215     1.0000 0.55080  0.36980  0.54160  Biso   1.000  H
  H216     1.0000 0.61600  0.35910  0.61420  Biso   1.000  H
  H217     1.0000 0.52330  0.00260  0.07620  Biso   1.000  H
  H218     1.0000 0.46820  0.89370  0.08200  Biso   1.000  H
  H219     1.0000 0.62060  0.91840  0.19700  Biso   1.000  H
  H220     1.0000 0.67780  0.02550  0.19160  Biso   1.000  H
  H221     1.0000 0.68710  0.15710  0.03080  Biso   1.000  H
  H222     1.0000 0.68340  0.15970  0.96240  Biso   1.000  H
  H223     1.0000 0.65280  0.11500  0.88720  Biso   1.000  H
  H224     1.0000 0.84090  0.01380  0.97120  Biso   1.000  H
  H225     1.0000 0.81800  0.97560  0.89700  Biso   1.000  H
  H226     1.0000 0.71530  0.87770  0.80260  Biso   1.000  H
  H227     1.0000 0.81930  0.08160  0.82900  Biso   1.000  H
  H228     1.0000 0.82200  0.80650  0.69200  Biso   1.000  H
  H229     1.0000 0.02950  0.87160  0.70220  Biso   1.000  H
  H230     1.0000 0.99420  0.95790  0.76220  Biso   1.000  H
  H231     1.0000 0.89480  0.03100  0.78360  Biso   1.000  H
  H232     1.0000 0.79090  0.82560  0.75860  Biso   1.000  H
  H233     1.0000 0.86980  0.05080  0.04160  Biso   1.000  H
  H234     1.0000 0.85910  0.11600  0.11420  Biso   1.000  H
  H235     1.0000 0.05290  0.07360  0.07620  Biso   1.000  H
  H236     1.0000 0.11380  0.18830  0.08200  Biso   1.000  H
  H237     1.0000 0.07640  0.27860  0.19700  Biso   1.000  H
  H238     1.0000 0.01380  0.16610  0.19160  Biso   1.000  H
  H239     1.0000 0.84370  0.87370  0.03080  Biso   1.000  H
  H240     1.0000 0.77900  0.80270  0.96240  Biso   1.000  H
  H241     1.0000 0.73440  0.77220  0.88720  Biso   1.000  H
  H242     1.0000 0.63030  0.95740  0.97120  Biso   1.000  H
  H243     1.0000 0.57900  0.92140  0.89700  Biso   1.000  H
  H244     1.0000 0.58730  0.92490  0.80260  Biso   1.000  H
  H245     1.0000 0.50970  0.74740  0.82900  Biso   1.000  H
  H246     1.0000 0.37000  0.88550  0.69200  Biso   1.000  H
  H247     1.0000 0.17270  0.83060  0.70220  Biso   1.000  H
  H248     1.0000 0.26800  0.80430  0.76220  Biso   1.000  H
  H249     1.0000 0.38880  0.75260  0.78360  Biso   1.000  H
  H250     1.0000 0.46770  0.93300  0.75860  Biso   1.000  H
  H251     1.0000 0.67180  0.99080  0.04160  Biso   1.000  H
  H252     1.0000 0.75510  0.99820  0.11420  Biso   1.000  H
  H253     1.0000 0.00260  0.05290  0.57620  Biso   1.000  H
  H254     1.0000 0.89370  0.11380  0.58200  Biso   1.000  H
  H255     1.0000 0.91840  0.07640  0.69700  Biso   1.000  H
  H256     1.0000 0.02550  0.01380  0.69160  Biso   1.000  H
  H257     1.0000 0.15710  0.84370  0.53080  Biso   1.000  H
  H258     1.0000 0.15970  0.77900  0.46240  Biso   1.000  H
  H259     1.0000 0.11500  0.73440  0.38720  Biso   1.000  H
  H260     1.0000 0.01380  0.63030  0.47120  Biso   1.000  H
  H261     1.0000 0.97560  0.57900  0.39700  Biso   1.000  H
  H262     1.0000 0.87770  0.58730  0.30260  Biso   1.000  H
  H263     1.0000 0.08160  0.50970  0.32900  Biso   1.000  H
  H264     1.0000 0.80650  0.37000  0.19200  Biso   1.000  H
  H265     1.0000 0.87160  0.17270  0.20220  Biso   1.000  H
  H266     1.0000 0.95790  0.26800  0.26220  Biso   1.000  H
  H267     1.0000 0.03100  0.38880  0.28360  Biso   1.000  H
  H268     1.0000 0.82560  0.46770  0.25860  Biso   1.000  H
  H269     1.0000 0.05080  0.67180  0.54160  Biso   1.000  H
  H270     1.0000 0.11600  0.75510  0.61420  Biso   1.000  H
  H271     1.0000 0.07360  0.52330  0.57620  Biso   1.000  H
  H272     1.0000 0.18830  0.46820  0.58200  Biso   1.000  H
  H273     1.0000 0.27860  0.62060  0.69700  Biso   1.000  H
  H274     1.0000 0.16610  0.67780  0.69160  Biso   1.000  H
  H275     1.0000 0.87370  0.68710  0.53080  Biso   1.000  H
  H276     1.0000 0.80270  0.68340  0.46240  Biso   1.000  H
  H277     1.0000 0.77220  0.65280  0.38720  Biso   1.000  H
  H278     1.0000 0.95740  0.84090  0.47120  Biso   1.000  H
  H279     1.0000 0.92140  0.81800  0.39700  Biso   1.000  H
  H280     1.0000 0.92490  0.71530  0.30260  Biso   1.000  H
  H281     1.0000 0.74740  0.81930  0.32900  Biso   1.000  H
  H282     1.0000 0.88550  0.82200  0.19200  Biso   1.000  H
  H283     1.0000 0.83060  0.02950  0.20220  Biso   1.000  H
  H284     1.0000 0.80430  0.99420  0.26220  Biso   1.000  H
  H285     1.0000 0.75260  0.89480  0.28360  Biso   1.000  H
  H286     1.0000 0.93300  0.79090  0.25860  Biso   1.000  H
  H287     1.0000 0.99080  0.86980  0.54160  Biso   1.000  H
  H288     1.0000 0.99820  0.85910  0.61420  Biso   1.000  H
  C209     1.0000 0.48633  0.59353  0.12926  Biso   1.000  C
  C210     1.0000 0.52655  0.52465  0.13310  Biso   1.000  C
  C211     1.0000 0.55702  0.48542  0.10084  Biso   1.000  C
  C212     1.0000 0.59390  0.42090  0.10460  Biso   1.000  C
  C213     1.0000 0.60176  0.39626  0.13972  Biso   1.000  C
  C214     1.0000 0.57136  0.43566  0.17232  Biso   1.000  C
  C215     1.0000 0.53425  0.49915  0.16910  Biso   1.000  C
  C216     1.0000 0.64409  0.32859  0.14478  Biso   1.000  C
  C217     1.0000 0.30589  0.64679  0.04318  Biso   1.000  C
  C218     1.0000 0.20850  0.58960  0.97380  Biso   1.000  C
  C219     1.0000 0.23926  0.62066  0.94912  Biso   1.000  C
  C220     1.0000 0.21202  0.59502  0.90464  Biso   1.000  C
  C221     1.0000 0.15106  0.53596  0.95392  Biso   1.000  C
  C222     1.0000 0.12119  0.51189  0.90998  Biso   1.000  C
  C223     1.0000 0.15320  0.54110  0.88560  Biso   1.000  C
  C224     1.0000 0.05901  0.48431  0.81822  Biso   1.000  C
  C225     1.0000 0.04701  0.40921  0.79842  Biso   1.000  C
  C226     1.0000 0.00121  0.52941  0.81382  Biso   1.000  C
  C227     1.0000 0.83178  0.33338  0.70216  Biso   1.000  C
  C228     1.0000 0.72567  0.36887  0.70774  Biso   1.000  C
  C229     1.0000 0.77718  0.41628  0.74076  Biso   1.000  C
  C230     1.0000 0.91921  0.42401  0.76582  Biso   1.000  C
  C231     1.0000 0.92955  0.49975  0.78710  Biso   1.000  C
  C232     1.0000 0.97642  0.37842  0.77224  Biso   1.000  C
  C233     1.0000 0.21350  0.58660  0.04840  Biso   1.000  C
  C234     1.0000 0.26060  0.62110  0.08780  Biso   1.000  C
  C235     1.0000 0.14293  0.53573  0.12926  Biso   1.000  C
  C236     1.0000 0.10655  0.60845  0.13310  Biso   1.000  C
  C237     1.0000 0.04382  0.61542  0.10084  Biso   1.000  C
  C238     1.0000 0.01070  0.68370  0.10460  Biso   1.000  C
  C239     1.0000 0.03796  0.74346  0.13972  Biso   1.000  C
  C240     1.0000 0.10096  0.73666  0.17232  Biso   1.000  C
  C241     1.0000 0.13485  0.66995  0.16910  Biso   1.000  C
  C242     1.0000 0.00069  0.81619  0.14478  Biso   1.000  C
  C243     1.0000 0.23729  0.39639  0.04318  Biso   1.000  C
  C244     1.0000 0.26530  0.38420  0.97380  Biso   1.000  C
  C245     1.0000 0.20986  0.32846  0.94912  Biso   1.000  C
  C246     1.0000 0.19262  0.30962  0.90464  Biso   1.000  C
  C247     1.0000 0.30286  0.41796  0.95392  Biso   1.000  C
  C248     1.0000 0.28879  0.39809  0.90998  Biso   1.000  C
  C249     1.0000 0.23240  0.34450  0.88560  Biso   1.000  C
  C250     1.0000 0.25921  0.33391  0.81822  Biso   1.000  C
  C251     1.0000 0.25141  0.38921  0.79842  Biso   1.000  C
  C252     1.0000 0.31261  0.28441  0.81382  Biso   1.000  C
  C253     1.0000 0.37038  0.36878  0.70216  Biso   1.000  C
  C254     1.0000 0.48207  0.33887  0.70774  Biso   1.000  C
  C255     1.0000 0.46358  0.32448  0.74076  Biso   1.000  C
  C256     1.0000 0.34661  0.34181  0.76582  Biso   1.000  C
  C257     1.0000 0.35755  0.28735  0.78710  Biso   1.000  C
  C258     1.0000 0.29582  0.39382  0.77224  Biso   1.000  C
  C259     1.0000 0.33490  0.46180  0.04840  Biso   1.000  C
  C260     1.0000 0.32720  0.46670  0.08780  Biso   1.000  C
  C261     1.0000 0.53573  0.48633  0.62926  Biso   1.000  C
  C262     1.0000 0.60845  0.52655  0.63310  Biso   1.000  C
  C263     1.0000 0.61542  0.55702  0.60084  Biso   1.000  C
  C264     1.0000 0.68370  0.59390  0.60460  Biso   1.000  C
  C265     1.0000 0.74346  0.60176  0.63972  Biso   1.000  C
  C266     1.0000 0.73666  0.57136  0.67232  Biso   1.000  C
  C267     1.0000 0.66995  0.53425  0.66910  Biso   1.000  C
  C268     1.0000 0.81619  0.64409  0.64478  Biso   1.000  C
  C269     1.0000 0.39639  0.30589  0.54318  Biso   1.000  C
  C270     1.0000 0.38420  0.20850  0.47380  Biso   1.000  C
  C271     1.0000 0.32846  0.23926  0.44912  Biso   1.000  C
  C272     1.0000 0.30962  0.21202  0.40464  Biso   1.000  C
  C273     1.0000 0.41796  0.15106  0.45392  Biso   1.000  C
  C274     1.0000 0.39809  0.12119  0.40998  Biso   1.000  C
  C275     1.0000 0.34450  0.15320  0.38560  Biso   1.000  C
  C276     1.0000 0.33391  0.05901  0.31822  Biso   1.000  C
  C277     1.0000 0.38921  0.04701  0.29842  Biso   1.000  C
  C278     1.0000 0.28441  0.00121  0.31382  Biso   1.000  C
  C279     1.0000 0.36878  0.83178  0.20216  Biso   1.000  C
  C280     1.0000 0.33887  0.72567  0.20774  Biso   1.000  C
  C281     1.0000 0.32448  0.77718  0.24076  Biso   1.000  C
  C282     1.0000 0.34181  0.91921  0.26582  Biso   1.000  C
  C283     1.0000 0.28735  0.92955  0.28710  Biso   1.000  C
  C284     1.0000 0.39382  0.97642  0.27224  Biso   1.000  C
  C285     1.0000 0.46180  0.21350  0.54840  Biso   1.000  C
  C286     1.0000 0.46670  0.26060  0.58780  Biso   1.000  C
  C287     1.0000 0.59353  0.14293  0.62926  Biso   1.000  C
  C288     1.0000 0.52465  0.10655  0.63310  Biso   1.000  C
  C289     1.0000 0.48542  0.04382  0.60084  Biso   1.000  C
  C290     1.0000 0.42090  0.01070  0.60460  Biso   1.000  C
  C291     1.0000 0.39626  0.03796  0.63972  Biso   1.000  C
  C292     1.0000 0.43566  0.10096  0.67232  Biso   1.000  C
  C293     1.0000 0.49915  0.13485  0.66910  Biso   1.000  C
  C294     1.0000 0.32859  0.00069  0.64478  Biso   1.000  C
  C295     1.0000 0.64679  0.23729  0.54318  Biso   1.000  C
  C296     1.0000 0.58960  0.26530  0.47380  Biso   1.000  C
  C297     1.0000 0.62066  0.20986  0.44912  Biso   1.000  C
  C298     1.0000 0.59502  0.19262  0.40464  Biso   1.000  C
  C299     1.0000 0.53596  0.30286  0.45392  Biso   1.000  C
  C300     1.0000 0.51189  0.28879  0.40998  Biso   1.000  C
  C301     1.0000 0.54110  0.23240  0.38560  Biso   1.000  C
  C302     1.0000 0.48431  0.25921  0.31822  Biso   1.000  C
  C303     1.0000 0.40921  0.25141  0.29842  Biso   1.000  C
  C304     1.0000 0.52941  0.31261  0.31382  Biso   1.000  C
  C305     1.0000 0.33338  0.37038  0.20216  Biso   1.000  C
  C306     1.0000 0.36887  0.48207  0.20774  Biso   1.000  C
  C307     1.0000 0.41628  0.46358  0.24076  Biso   1.000  C
  C308     1.0000 0.42401  0.34661  0.26582  Biso   1.000  C
  C309     1.0000 0.49975  0.35755  0.28710  Biso   1.000  C
  C310     1.0000 0.37842  0.29582  0.27224  Biso   1.000  C
  C311     1.0000 0.58660  0.33490  0.54840  Biso   1.000  C
  C312     1.0000 0.62110  0.32720  0.58780  Biso   1.000  C
  C313     1.0000 0.64293  0.09353  0.12926  Biso   1.000  C
  C314     1.0000 0.60655  0.02465  0.13310  Biso   1.000  C
  C315     1.0000 0.54382  0.98542  0.10084  Biso   1.000  C
  C316     1.0000 0.51070  0.92090  0.10460  Biso   1.000  C
  C317     1.0000 0.53796  0.89626  0.13972  Biso   1.000  C
  C318     1.0000 0.60096  0.93566  0.17232  Biso   1.000  C
  C319     1.0000 0.63485  0.99915  0.16910  Biso   1.000  C
  C320     1.0000 0.50069  0.82859  0.14478  Biso   1.000  C
  C321     1.0000 0.73729  0.14679  0.04318  Biso   1.000  C
  C322     1.0000 0.76530  0.08960  0.97380  Biso   1.000  C
  C323     1.0000 0.70986  0.12066  0.94912  Biso   1.000  C
  C324     1.0000 0.69262  0.09502  0.90464  Biso   1.000  C
  C325     1.0000 0.80286  0.03596  0.95392  Biso   1.000  C
  C326     1.0000 0.78879  0.01189  0.90998  Biso   1.000  C
  C327     1.0000 0.73240  0.04110  0.88560  Biso   1.000  C
  C328     1.0000 0.75921  0.98431  0.81822  Biso   1.000  C
  C329     1.0000 0.75141  0.90921  0.79842  Biso   1.000  C
  C330     1.0000 0.81261  0.02941  0.81382  Biso   1.000  C
  C331     1.0000 0.87038  0.83338  0.70216  Biso   1.000  C
  C332     1.0000 0.98207  0.86887  0.70774  Biso   1.000  C
  C333     1.0000 0.96358  0.91628  0.74076  Biso   1.000  C
  C334     1.0000 0.84661  0.92401  0.76582  Biso   1.000  C
  C335     1.0000 0.85755  0.99975  0.78710  Biso   1.000  C
  C336     1.0000 0.79582  0.87842  0.77224  Biso   1.000  C
  C337     1.0000 0.83490  0.08660  0.04840  Biso   1.000  C
  C338     1.0000 0.82720  0.12110  0.08780  Biso   1.000  C
  C339     1.0000 0.98633  0.03573  0.12926  Biso   1.000  C
  C340     1.0000 0.02655  0.10845  0.13310  Biso   1.000  C
  C341     1.0000 0.05702  0.11542  0.10084  Biso   1.000  C
  C342     1.0000 0.09390  0.18370  0.10460  Biso   1.000  C
  C343     1.0000 0.10176  0.24346  0.13972  Biso   1.000  C
  C344     1.0000 0.07136  0.23666  0.17232  Biso   1.000  C
  C345     1.0000 0.03425  0.16995  0.16910  Biso   1.000  C
  C346     1.0000 0.14409  0.31619  0.14478  Biso   1.000  C
  C347     1.0000 0.80589  0.89639  0.04318  Biso   1.000  C
  C348     1.0000 0.70850  0.88420  0.97380  Biso   1.000  C
  C349     1.0000 0.73926  0.82846  0.94912  Biso   1.000  C
  C350     1.0000 0.71202  0.80962  0.90464  Biso   1.000  C
  C351     1.0000 0.65106  0.91796  0.95392  Biso   1.000  C
  C352     1.0000 0.62119  0.89809  0.90998  Biso   1.000  C
  C353     1.0000 0.65320  0.84450  0.88560  Biso   1.000  C
  C354     1.0000 0.55901  0.83391  0.81822  Biso   1.000  C
  C355     1.0000 0.54701  0.88921  0.79842  Biso   1.000  C
  C356     1.0000 0.50121  0.78441  0.81382  Biso   1.000  C
  C357     1.0000 0.33178  0.86878  0.70216  Biso   1.000  C
  C358     1.0000 0.22567  0.83887  0.70774  Biso   1.000  C
  C359     1.0000 0.27718  0.82448  0.74076  Biso   1.000  C
  C360     1.0000 0.41921  0.84181  0.76582  Biso   1.000  C
  C361     1.0000 0.42955  0.78735  0.78710  Biso   1.000  C
  C362     1.0000 0.47642  0.89382  0.77224  Biso   1.000  C
  C363     1.0000 0.71350  0.96180  0.04840  Biso   1.000  C
  C364     1.0000 0.76060  0.96670  0.08780  Biso   1.000  C
  C365     1.0000 0.09353  0.98633  0.62926  Biso   1.000  C
  C366     1.0000 0.02465  0.02655  0.63310  Biso   1.000  C
  C367     1.0000 0.98542  0.05702  0.60084  Biso   1.000  C
  C368     1.0000 0.92090  0.09390  0.60460  Biso   1.000  C
  C369     1.0000 0.89626  0.10176  0.63972  Biso   1.000  C
  C370     1.0000 0.93566  0.07136  0.67232  Biso   1.000  C
  C371     1.0000 0.99915  0.03425  0.66910  Biso   1.000  C
  C372     1.0000 0.82859  0.14409  0.64478  Biso   1.000  C
  C373     1.0000 0.14679  0.80589  0.54318  Biso   1.000  C
  C374     1.0000 0.08960  0.70850  0.47380  Biso   1.000  C
  C375     1.0000 0.12066  0.73926  0.44912  Biso   1.000  C
  C376     1.0000 0.09502  0.71202  0.40464  Biso   1.000  C
  C377     1.0000 0.03596  0.65106  0.45392  Biso   1.000  C
  C378     1.0000 0.01189  0.62119  0.40998  Biso   1.000  C
  C379     1.0000 0.04110  0.65320  0.38560  Biso   1.000  C
  C380     1.0000 0.98431  0.55901  0.31822  Biso   1.000  C
  C381     1.0000 0.90921  0.54701  0.29842  Biso   1.000  C
  C382     1.0000 0.02941  0.50121  0.31382  Biso   1.000  C
  C383     1.0000 0.83338  0.33178  0.20216  Biso   1.000  C
  C384     1.0000 0.86887  0.22567  0.20774  Biso   1.000  C
  C385     1.0000 0.91628  0.27718  0.24076  Biso   1.000  C
  C386     1.0000 0.92401  0.41921  0.26582  Biso   1.000  C
  C387     1.0000 0.99975  0.42955  0.28710  Biso   1.000  C
  C388     1.0000 0.87842  0.47642  0.27224  Biso   1.000  C
  C389     1.0000 0.08660  0.71350  0.54840  Biso   1.000  C
  C390     1.0000 0.12110  0.76060  0.58780  Biso   1.000  C
  C391     1.0000 0.03573  0.64293  0.62926  Biso   1.000  C
  C392     1.0000 0.10845  0.60655  0.63310  Biso   1.000  C
  C393     1.0000 0.11542  0.54382  0.60084  Biso   1.000  C
  C394     1.0000 0.18370  0.51070  0.60460  Biso   1.000  C
  C395     1.0000 0.24346  0.53796  0.63972  Biso   1.000  C
  C396     1.0000 0.23666  0.60096  0.67232  Biso   1.000  C
  C397     1.0000 0.16995  0.63485  0.66910  Biso   1.000  C
  C398     1.0000 0.31619  0.50069  0.64478  Biso   1.000  C
  C399     1.0000 0.89639  0.73729  0.54318  Biso   1.000  C
  C400     1.0000 0.88420  0.76530  0.47380  Biso   1.000  C
  C401     1.0000 0.82846  0.70986  0.44912  Biso   1.000  C
  C402     1.0000 0.80962  0.69262  0.40464  Biso   1.000  C
  C403     1.0000 0.91796  0.80286  0.45392  Biso   1.000  C
  C404     1.0000 0.89809  0.78879  0.40998  Biso   1.000  C
  C405     1.0000 0.84450  0.73240  0.38560  Biso   1.000  C
  C406     1.0000 0.83391  0.75921  0.31822  Biso   1.000  C
  C407     1.0000 0.88921  0.75141  0.29842  Biso   1.000  C
  C408     1.0000 0.78441  0.81261  0.31382  Biso   1.000  C
  C409     1.0000 0.86878  0.87038  0.20216  Biso   1.000  C
  C410     1.0000 0.83887  0.98207  0.20774  Biso   1.000  C
  C411     1.0000 0.82448  0.96358  0.24076  Biso   1.000  C
  C412     1.0000 0.84181  0.84661  0.26582  Biso   1.000  C
  C413     1.0000 0.78735  0.85755  0.28710  Biso   1.000  C
  C414     1.0000 0.89382  0.79582  0.27224  Biso   1.000  C
  C415     1.0000 0.96180  0.83490  0.54840  Biso   1.000  C
  C416     1.0000 0.96670  0.82720  0.58780  Biso   1.000  C
  N33      1.0000 0.31654  0.66374  0.08468  Biso   1.000  N
  N34      1.0000 0.23885  0.61435  0.01990  Biso   1.000  N
  N35      1.0000 0.75925  0.31625  0.68330  Biso   1.000  N
  N36      1.0000 0.84584  0.39274  0.73728  Biso   1.000  N
  N37      1.0000 0.26814  0.42094  0.08468  Biso   1.000  N
  N38      1.0000 0.28105  0.40555  0.01990  Biso   1.000  N
  N39      1.0000 0.42405  0.36705  0.68330  Biso   1.000  N
  N40      1.0000 0.39144  0.34454  0.73728  Biso   1.000  N
  N41      1.0000 0.42094  0.31654  0.58468  Biso   1.000  N
  N42      1.0000 0.40555  0.23885  0.51990  Biso   1.000  N
  N43      1.0000 0.36705  0.75925  0.18330  Biso   1.000  N
  N44      1.0000 0.34454  0.84584  0.23728  Biso   1.000  N
  N45      1.0000 0.66374  0.26814  0.58468  Biso   1.000  N
  N46      1.0000 0.61435  0.28105  0.51990  Biso   1.000  N
  N47      1.0000 0.31625  0.42405  0.18330  Biso   1.000  N
  N48      1.0000 0.39274  0.39144  0.23728  Biso   1.000  N
  N49      1.0000 0.76814  0.16374  0.08468  Biso   1.000  N
  N50      1.0000 0.78105  0.11435  0.01990  Biso   1.000  N
  N51      1.0000 0.92405  0.81625  0.68330  Biso   1.000  N
  N52      1.0000 0.89144  0.89274  0.73728  Biso   1.000  N
  N53      1.0000 0.81654  0.92094  0.08468  Biso   1.000  N
  N54      1.0000 0.73885  0.90555  0.01990  Biso   1.000  N
  N55      1.0000 0.25925  0.86705  0.68330  Biso   1.000  N
  N56      1.0000 0.34584  0.84454  0.73728  Biso   1.000  N
  N57      1.0000 0.16374  0.81654  0.58468  Biso   1.000  N
  N58      1.0000 0.11435  0.73885  0.51990  Biso   1.000  N
  N59      1.0000 0.81625  0.25925  0.18330  Biso   1.000  N
  N60      1.0000 0.89274  0.34584  0.23728  Biso   1.000  N
  N61      1.0000 0.92094  0.76814  0.58468  Biso   1.000  N
  N62      1.0000 0.90555  0.78105  0.51990  Biso   1.000  N
  N63      1.0000 0.86705  0.92405  0.18330  Biso   1.000  N
  N64      1.0000 0.84454  0.89144  0.23728  Biso   1.000  N
  O41      1.0000 0.45372  0.62372  0.15724  Biso   1.000  O
  O42      1.0000 0.48479  0.62049  0.09898  Biso   1.000  O
  O43      1.0000 0.65511  0.30961  0.17822  Biso   1.000  O
  O44      1.0000 0.66904  0.29304  0.11388  Biso   1.000  O
  O45      1.0000 0.13205  0.51715  0.84050  Biso   1.000  O
  O46      1.0000 0.20352  0.53352  0.15724  Biso   1.000  O
  O47      1.0000 0.11419  0.47849  0.09898  Biso   1.000  O
  O48      1.0000 0.02311  0.86861  0.17822  Biso   1.000  O
  O49      1.0000 0.94484  0.82084  0.11388  Biso   1.000  O
  O50      1.0000 0.20845  0.32335  0.84050  Biso   1.000  O
  O51      1.0000 0.53352  0.45372  0.65724  Biso   1.000  O
  O52      1.0000 0.47849  0.48479  0.59898  Biso   1.000  O
  O53      1.0000 0.86861  0.65511  0.67822  Biso   1.000  O
  O54      1.0000 0.82084  0.66904  0.61388  Biso   1.000  O
  O55      1.0000 0.32335  0.13205  0.34050  Biso   1.000  O
  O56      1.0000 0.62372  0.20352  0.65724  Biso   1.000  O
  O57      1.0000 0.62049  0.11419  0.59898  Biso   1.000  O
  O58      1.0000 0.30961  0.02311  0.67822  Biso   1.000  O
  O59      1.0000 0.29304  0.94484  0.61388  Biso   1.000  O
  O60      1.0000 0.51715  0.20845  0.34050  Biso   1.000  O
  O61      1.0000 0.70352  0.12372  0.15724  Biso   1.000  O
  O62      1.0000 0.61419  0.12049  0.09898  Biso   1.000  O
  O63      1.0000 0.52311  0.80961  0.17822  Biso   1.000  O
  O64      1.0000 0.44484  0.79304  0.11388  Biso   1.000  O
  O65      1.0000 0.70845  0.01715  0.84050  Biso   1.000  O
  O66      1.0000 0.95372  0.03352  0.15724  Biso   1.000  O
  O67      1.0000 0.98479  0.97849  0.09898  Biso   1.000  O
  O68      1.0000 0.15511  0.36861  0.17822  Biso   1.000  O
  O69      1.0000 0.16904  0.32084  0.11388  Biso   1.000  O
  O70      1.0000 0.63205  0.82335  0.84050  Biso   1.000  O
  O71      1.0000 0.12372  0.95372  0.65724  Biso   1.000  O
  O72      1.0000 0.12049  0.98479  0.59898  Biso   1.000  O
  O73      1.0000 0.80961  0.15511  0.67822  Biso   1.000  O
  O74      1.0000 0.79304  0.16904  0.61388  Biso   1.000  O
  O75      1.0000 0.01715  0.63205  0.34050  Biso   1.000  O
  O76      1.0000 0.03352  0.70352  0.65724  Biso   1.000  O
  O77      1.0000 0.97849  0.61419  0.59898  Biso   1.000  O
  O78      1.0000 0.36861  0.52311  0.67822  Biso   1.000  O
  O79      1.0000 0.32084  0.44484  0.61388  Biso   1.000  O
  O80      1.0000 0.82335  0.70845  0.34050  Biso   1.000  O
