data_image0
_cell_length_a       18.3863
_cell_length_b       18.3863
_cell_length_c       33.5859
_cell_angle_alpha    105.886
_cell_angle_beta     105.886
_cell_angle_gamma    90.0001

_symmetry_space_group_name_H-M    P 1
_symmetry_int_tables_number       1

loop_
  _symmetry_equiv_pos_as_xyz
  'x, y, z'

loop_
  _atom_site_label
  _atom_site_occupancy
  _atom_site_fract_x
  _atom_site_fract_y
  _atom_site_fract_z
  _atom_site_thermal_displace_type
  _atom_site_B_iso_or_equiv
  _atom_site_type_symbol
  Zn1      1.0000 0.22919  0.42244  0.13460  Biso   1.000  Zn
  Zn2      1.0000 0.40541  0.71216  0.13460  Biso   1.000  Zn
  Zn3      1.0000 0.42244  0.40541  0.63460  Biso   1.000  Zn
  Zn4      1.0000 0.71216  0.22919  0.63460  Biso   1.000  Zn
  Zn5      1.0000 0.90541  0.92244  0.13460  Biso   1.000  Zn
  Zn6      1.0000 0.72919  0.21216  0.13460  Biso   1.000  Zn
  Zn7      1.0000 0.21216  0.90541  0.63460  Biso   1.000  Zn
  Zn8      1.0000 0.92244  0.72919  0.63460  Biso   1.000  Zn
  H1       1.0000 0.37960  0.53150  0.20360  Biso   1.000  H
  H2       1.0000 0.46150  0.49600  0.26480  Biso   1.000  H
  H3       1.0000 0.31350  0.32280  0.19220  Biso   1.000  H
  H4       1.0000 0.53700  0.39250  0.28480  Biso   1.000  H
  H5       1.0000 0.58580  0.31790  0.33060  Biso   1.000  H
  H6       1.0000 0.32990  0.29100  0.25960  Biso   1.000  H
  H7       1.0000 0.37960  0.21250  0.30200  Biso   1.000  H
  H8       1.0000 0.65680  0.38050  0.61400  Biso   1.000  H
  H9       1.0000 0.58730  0.38980  0.54120  Biso   1.000  H
  H10      1.0000 0.66220  0.18980  0.53140  Biso   1.000  H
  H11      1.0000 0.66200  0.18270  0.46320  Biso   1.000  H
  H12      1.0000 0.61850  0.15150  0.38880  Biso   1.000  H
  H13      1.0000 0.51460  0.34490  0.47140  Biso   1.000  H
  H14      1.0000 0.47640  0.31800  0.39740  Biso   1.000  H
  H15      1.0000 0.08030  0.27310  0.20200  Biso   1.000  H
  H16      1.0000 0.01400  0.15950  0.19140  Biso   1.000  H
  H17      1.0000 0.11660  0.19380  0.08580  Biso   1.000  H
  H18      1.0000 0.05420  0.07730  0.07620  Biso   1.000  H
  H19      1.0000 0.32400  0.67210  0.20360  Biso   1.000  H
  H20      1.0000 0.30330  0.76880  0.26480  Biso   1.000  H
  H21      1.0000 0.37870  0.86940  0.19220  Biso   1.000  H
  H22      1.0000 0.24780  0.89230  0.28480  Biso   1.000  H
  H23      1.0000 0.24480  0.01270  0.33060  Biso   1.000  H
  H24      1.0000 0.42970  0.96860  0.25960  Biso   1.000  H
  H25      1.0000 0.42240  0.08950  0.30200  Biso   1.000  H
  H26      1.0000 0.45720  0.23350  0.61400  Biso   1.000  H
  H27      1.0000 0.45390  0.15140  0.54120  Biso   1.000  H
  H28      1.0000 0.36920  0.34160  0.53140  Biso   1.000  H
  H29      1.0000 0.30120  0.28050  0.46320  Biso   1.000  H
  H30      1.0000 0.27030  0.23730  0.38880  Biso   1.000  H
  H31      1.0000 0.45680  0.12650  0.47140  Biso   1.000  H
  H32      1.0000 0.42100  0.07940  0.39740  Biso   1.000  H
  H33      1.0000 0.62170  0.92890  0.20200  Biso   1.000  H
  H34      1.0000 0.67740  0.03190  0.19140  Biso   1.000  H
  H35      1.0000 0.46920  0.89200  0.08580  Biso   1.000  H
  H36      1.0000 0.52200  0.99890  0.07620  Biso   1.000  H
  H37      1.0000 0.53150  0.32400  0.70360  Biso   1.000  H
  H38      1.0000 0.49600  0.30330  0.76480  Biso   1.000  H
  H39      1.0000 0.32280  0.37870  0.69220  Biso   1.000  H
  H40      1.0000 0.39250  0.24780  0.78480  Biso   1.000  H
  H41      1.0000 0.31790  0.24480  0.83060  Biso   1.000  H
  H42      1.0000 0.29100  0.42970  0.75960  Biso   1.000  H
  H43      1.0000 0.21250  0.42240  0.80200  Biso   1.000  H
  H44      1.0000 0.38050  0.45720  0.11400  Biso   1.000  H
  H45      1.0000 0.38980  0.45390  0.04120  Biso   1.000  H
  H46      1.0000 0.18980  0.36920  0.03140  Biso   1.000  H
  H47      1.0000 0.18270  0.30120  0.96320  Biso   1.000  H
  H48      1.0000 0.15150  0.27030  0.88880  Biso   1.000  H
  H49      1.0000 0.34490  0.45680  0.97140  Biso   1.000  H
  H50      1.0000 0.31800  0.42100  0.89740  Biso   1.000  H
  H51      1.0000 0.27310  0.62170  0.70200  Biso   1.000  H
  H52      1.0000 0.15950  0.67740  0.69140  Biso   1.000  H
  H53      1.0000 0.19380  0.46920  0.58580  Biso   1.000  H
  H54      1.0000 0.07730  0.52200  0.57620  Biso   1.000  H
  H55      1.0000 0.67210  0.37960  0.70360  Biso   1.000  H
  H56      1.0000 0.76880  0.46150  0.76480  Biso   1.000  H
  H57      1.0000 0.86940  0.31350  0.69220  Biso   1.000  H
  H58      1.0000 0.89230  0.53700  0.78480  Biso   1.000  H
  H59      1.0000 0.01270  0.58580  0.83060  Biso   1.000  H
  H60      1.0000 0.96860  0.32990  0.75960  Biso   1.000  H
  H61      1.0000 0.08950  0.37960  0.80200  Biso   1.000  H
  H62      1.0000 0.23350  0.65680  0.11400  Biso   1.000  H
  H63      1.0000 0.15140  0.58730  0.04120  Biso   1.000  H
  H64      1.0000 0.34160  0.66220  0.03140  Biso   1.000  H
  H65      1.0000 0.28050  0.66200  0.96320  Biso   1.000  H
  H66      1.0000 0.23730  0.61850  0.88880  Biso   1.000  H
  H67      1.0000 0.12650  0.51460  0.97140  Biso   1.000  H
  H68      1.0000 0.07940  0.47640  0.89740  Biso   1.000  H
  H69      1.0000 0.92890  0.08030  0.70200  Biso   1.000  H
  H70      1.0000 0.03190  0.01400  0.69140  Biso   1.000  H
  H71      1.0000 0.89200  0.11660  0.58580  Biso   1.000  H
  H72      1.0000 0.99890  0.05420  0.57620  Biso   1.000  H
  H73      1.0000 0.82400  0.03150  0.20360  Biso   1.000  H
  H74      1.0000 0.80330  0.99600  0.26480  Biso   1.000  H
  H75      1.0000 0.87870  0.82280  0.19220  Biso   1.000  H
  H76      1.0000 0.74780  0.89250  0.28480  Biso   1.000  H
  H77      1.0000 0.74480  0.81790  0.33060  Biso   1.000  H
  H78      1.0000 0.92970  0.79100  0.25960  Biso   1.000  H
  H79      1.0000 0.92240  0.71250  0.30200  Biso   1.000  H
  H80      1.0000 0.95720  0.88050  0.61400  Biso   1.000  H
  H81      1.0000 0.95390  0.88980  0.54120  Biso   1.000  H
  H82      1.0000 0.86920  0.68980  0.53140  Biso   1.000  H
  H83      1.0000 0.80120  0.68270  0.46320  Biso   1.000  H
  H84      1.0000 0.77030  0.65150  0.38880  Biso   1.000  H
  H85      1.0000 0.95680  0.84490  0.47140  Biso   1.000  H
  H86      1.0000 0.92100  0.81800  0.39740  Biso   1.000  H
  H87      1.0000 0.12170  0.77310  0.20200  Biso   1.000  H
  H88      1.0000 0.17740  0.65950  0.19140  Biso   1.000  H
  H89      1.0000 0.96920  0.69380  0.08580  Biso   1.000  H
  H90      1.0000 0.02200  0.57730  0.07620  Biso   1.000  H
  H91      1.0000 0.87960  0.17210  0.20360  Biso   1.000  H
  H92      1.0000 0.96150  0.26880  0.26480  Biso   1.000  H
  H93      1.0000 0.81350  0.36940  0.19220  Biso   1.000  H
  H94      1.0000 0.03700  0.39230  0.28480  Biso   1.000  H
  H95      1.0000 0.08580  0.51270  0.33060  Biso   1.000  H
  H96      1.0000 0.82990  0.46860  0.25960  Biso   1.000  H
  H97      1.0000 0.87960  0.58950  0.30200  Biso   1.000  H
  H98      1.0000 0.15680  0.73350  0.61400  Biso   1.000  H
  H99      1.0000 0.08730  0.65140  0.54120  Biso   1.000  H
  H100     1.0000 0.16220  0.84160  0.53140  Biso   1.000  H
  H101     1.0000 0.16200  0.78050  0.46320  Biso   1.000  H
  H102     1.0000 0.11850  0.73730  0.38880  Biso   1.000  H
  H103     1.0000 0.01460  0.62650  0.47140  Biso   1.000  H
  H104     1.0000 0.97640  0.57940  0.39740  Biso   1.000  H
  H105     1.0000 0.58030  0.42890  0.20200  Biso   1.000  H
  H106     1.0000 0.51400  0.53190  0.19140  Biso   1.000  H
  H107     1.0000 0.61660  0.39200  0.08580  Biso   1.000  H
  H108     1.0000 0.55420  0.49890  0.07620  Biso   1.000  H
  H109     1.0000 0.17210  0.82400  0.70360  Biso   1.000  H
  H110     1.0000 0.26880  0.80330  0.76480  Biso   1.000  H
  H111     1.0000 0.36940  0.87870  0.69220  Biso   1.000  H
  H112     1.0000 0.39230  0.74780  0.78480  Biso   1.000  H
  H113     1.0000 0.51270  0.74480  0.83060  Biso   1.000  H
  H114     1.0000 0.46860  0.92970  0.75960  Biso   1.000  H
  H115     1.0000 0.58950  0.92240  0.80200  Biso   1.000  H
  H116     1.0000 0.73350  0.95720  0.11400  Biso   1.000  H
  H117     1.0000 0.65140  0.95390  0.04120  Biso   1.000  H
  H118     1.0000 0.84160  0.86920  0.03140  Biso   1.000  H
  H119     1.0000 0.78050  0.80120  0.96320  Biso   1.000  H
  H120     1.0000 0.73730  0.77030  0.88880  Biso   1.000  H
  H121     1.0000 0.62650  0.95680  0.97140  Biso   1.000  H
  H122     1.0000 0.57940  0.92100  0.89740  Biso   1.000  H
  H123     1.0000 0.42890  0.12170  0.70200  Biso   1.000  H
  H124     1.0000 0.53190  0.17740  0.69140  Biso   1.000  H
  H125     1.0000 0.39200  0.96920  0.58580  Biso   1.000  H
  H126     1.0000 0.49890  0.02200  0.57620  Biso   1.000  H
  H127     1.0000 0.03150  0.87960  0.70360  Biso   1.000  H
  H128     1.0000 0.99600  0.96150  0.76480  Biso   1.000  H
  H129     1.0000 0.82280  0.81350  0.69220  Biso   1.000  H
  H130     1.0000 0.89250  0.03700  0.78480  Biso   1.000  H
  H131     1.0000 0.81790  0.08580  0.83060  Biso   1.000  H
  H132     1.0000 0.79100  0.82990  0.75960  Biso   1.000  H
  H133     1.0000 0.71250  0.87960  0.80200  Biso   1.000  H
  H134     1.0000 0.88050  0.15680  0.11400  Biso   1.000  H
  H135     1.0000 0.88980  0.08730  0.04120  Biso   1.000  H
  H136     1.0000 0.68980  0.16220  0.03140  Biso   1.000  H
  H137     1.0000 0.68270  0.16200  0.96320  Biso   1.000  H
  H138     1.0000 0.65150  0.11850  0.88880  Biso   1.000  H
  H139     1.0000 0.84490  0.01460  0.97140  Biso   1.000  H
  H140     1.0000 0.81800  0.97640  0.89740  Biso   1.000  H
  H141     1.0000 0.77310  0.58030  0.70200  Biso   1.000  H
  H142     1.0000 0.65950  0.51400  0.69140  Biso   1.000  H
  H143     1.0000 0.69380  0.61660  0.58580  Biso   1.000  H
  H144     1.0000 0.57730  0.55420  0.57620  Biso   1.000  H
  C1       1.0000 0.37599  0.48389  0.20918  Biso   1.000  C
  C2       1.0000 0.42118  0.46468  0.24236  Biso   1.000  C
  C3       1.0000 0.34030  0.37150  0.20280  Biso   1.000  C
  C4       1.0000 0.42892  0.34732  0.26684  Biso   1.000  C
  C5       1.0000 0.50458  0.35608  0.28836  Biso   1.000  C
  C6       1.0000 0.53345  0.31165  0.31510  Biso   1.000  C
  C7       1.0000 0.38290  0.29530  0.27320  Biso   1.000  C
  C8       1.0000 0.41143  0.24973  0.29866  Biso   1.000  C
  C9       1.0000 0.48641  0.25911  0.31902  Biso   1.000  C
  C10      1.0000 0.54304  0.23244  0.38608  Biso   1.000  C
  C11      1.0000 0.64802  0.34092  0.58784  Biso   1.000  C
  C12      1.0000 0.61155  0.34715  0.54770  Biso   1.000  C
  C13      1.0000 0.65098  0.24008  0.54336  Biso   1.000  C
  C14      1.0000 0.59244  0.26614  0.47408  Biso   1.000  C
  C15      1.0000 0.62325  0.20955  0.44970  Biso   1.000  C
  C16      1.0000 0.59828  0.19178  0.40596  Biso   1.000  C
  C17      1.0000 0.53656  0.30606  0.45432  Biso   1.000  C
  C18      1.0000 0.51349  0.28959  0.41078  Biso   1.000  C
  C19      1.0000 0.14973  0.31693  0.15206  Biso   1.000  C
  C20      1.0000 0.10470  0.24380  0.14480  Biso   1.000  C
  C21      1.0000 0.07446  0.23346  0.17612  Biso   1.000  C
  C22      1.0000 0.03573  0.16573  0.16986  Biso   1.000  C
  C23      1.0000 0.09643  0.18633  0.10766  Biso   1.000  C
  C24      1.0000 0.05863  0.11733  0.10186  Biso   1.000  C
  C25      1.0000 0.02744  0.10624  0.13308  Biso   1.000  C
  C26      1.0000 0.98761  0.03181  0.12702  Biso   1.000  C
  C27      1.0000 0.33319  0.72529  0.20918  Biso   1.000  C
  C28      1.0000 0.32118  0.77768  0.24236  Biso   1.000  C
  C29      1.0000 0.36250  0.83130  0.20280  Biso   1.000  C
  C30      1.0000 0.33792  0.91952  0.26684  Biso   1.000  C
  C31      1.0000 0.28378  0.93228  0.28836  Biso   1.000  C
  C32      1.0000 0.28165  0.00345  0.31510  Biso   1.000  C
  C33      1.0000 0.39030  0.97790  0.27320  Biso   1.000  C
  C34      1.0000 0.38723  0.04893  0.29866  Biso   1.000  C
  C35      1.0000 0.33261  0.05991  0.31902  Biso   1.000  C
  C36      1.0000 0.34304  0.15364  0.38608  Biso   1.000  C
  C37      1.0000 0.43982  0.24692  0.58784  Biso   1.000  C
  C38      1.0000 0.43615  0.20055  0.54770  Biso   1.000  C
  C39      1.0000 0.39238  0.30328  0.54336  Biso   1.000  C
  C40      1.0000 0.38164  0.20794  0.47408  Biso   1.000  C
  C41      1.0000 0.32645  0.24015  0.44970  Biso   1.000  C
  C42      1.0000 0.30768  0.21418  0.40596  Biso   1.000  C
  C43      1.0000 0.41776  0.14826  0.45432  Biso   1.000  C
  C44      1.0000 0.39729  0.12119  0.41078  Biso   1.000  C
  C45      1.0000 0.50233  0.83513  0.15206  Biso   1.000  C
  C46      1.0000 0.54010  0.90100  0.14480  Biso   1.000  C
  C47      1.0000 0.60166  0.94266  0.17612  Biso   1.000  C
  C48      1.0000 0.63413  0.00413  0.16986  Biso   1.000  C
  C49      1.0000 0.51123  0.92133  0.10766  Biso   1.000  C
  C50      1.0000 0.54323  0.98453  0.10186  Biso   1.000  C
  C51      1.0000 0.60564  0.02684  0.13308  Biso   1.000  C
  C52      1.0000 0.63941  0.09521  0.12702  Biso   1.000  C
  C53      1.0000 0.48389  0.33319  0.70918  Biso   1.000  C
  C54      1.0000 0.46468  0.32118  0.74236  Biso   1.000  C
  C55      1.0000 0.37150  0.36250  0.70280  Biso   1.000  C
  C56      1.0000 0.34732  0.33792  0.76684  Biso   1.000  C
  C57      1.0000 0.35608  0.28378  0.78836  Biso   1.000  C
  C58      1.0000 0.31165  0.28165  0.81510  Biso   1.000  C
  C59      1.0000 0.29530  0.39030  0.77320  Biso   1.000  C
  C60      1.0000 0.24973  0.38723  0.79866  Biso   1.000  C
  C61      1.0000 0.25911  0.33261  0.81902  Biso   1.000  C
  C62      1.0000 0.23244  0.34304  0.88608  Biso   1.000  C
  C63      1.0000 0.34092  0.43982  0.08784  Biso   1.000  C
  C64      1.0000 0.34715  0.43615  0.04770  Biso   1.000  C
  C65      1.0000 0.24008  0.39238  0.04336  Biso   1.000  C
  C66      1.0000 0.26614  0.38164  0.97408  Biso   1.000  C
  C67      1.0000 0.20955  0.32645  0.94970  Biso   1.000  C
  C68      1.0000 0.19178  0.30768  0.90596  Biso   1.000  C
  C69      1.0000 0.30606  0.41776  0.95432  Biso   1.000  C
  C70      1.0000 0.28959  0.39729  0.91078  Biso   1.000  C
  C71      1.0000 0.31693  0.50233  0.65206  Biso   1.000  C
  C72      1.0000 0.24380  0.54010  0.64480  Biso   1.000  C
  C73      1.0000 0.23346  0.60166  0.67612  Biso   1.000  C
  C74      1.0000 0.16573  0.63413  0.66986  Biso   1.000  C
  C75      1.0000 0.18633  0.51123  0.60766  Biso   1.000  C
  C76      1.0000 0.11733  0.54323  0.60186  Biso   1.000  C
  C77      1.0000 0.10624  0.60564  0.63308  Biso   1.000  C
  C78      1.0000 0.03181  0.63941  0.62702  Biso   1.000  C
  C79      1.0000 0.72529  0.37599  0.70918  Biso   1.000  C
  C80      1.0000 0.77768  0.42118  0.74236  Biso   1.000  C
  C81      1.0000 0.83130  0.34030  0.70280  Biso   1.000  C
  C82      1.0000 0.91952  0.42892  0.76684  Biso   1.000  C
  C83      1.0000 0.93228  0.50458  0.78836  Biso   1.000  C
  C84      1.0000 0.00345  0.53345  0.81510  Biso   1.000  C
  C85      1.0000 0.97790  0.38290  0.77320  Biso   1.000  C
  C86      1.0000 0.04893  0.41143  0.79866  Biso   1.000  C
  C87      1.0000 0.05991  0.48641  0.81902  Biso   1.000  C
  C88      1.0000 0.15364  0.54304  0.88608  Biso   1.000  C
  C89      1.0000 0.24692  0.64802  0.08784  Biso   1.000  C
  C90      1.0000 0.20055  0.61155  0.04770  Biso   1.000  C
  C91      1.0000 0.30328  0.65098  0.04336  Biso   1.000  C
  C92      1.0000 0.20794  0.59244  0.97408  Biso   1.000  C
  C93      1.0000 0.24015  0.62325  0.94970  Biso   1.000  C
  C94      1.0000 0.21418  0.59828  0.90596  Biso   1.000  C
  C95      1.0000 0.14826  0.53656  0.95432  Biso   1.000  C
  C96      1.0000 0.12119  0.51349  0.91078  Biso   1.000  C
  C97      1.0000 0.83513  0.14973  0.65206  Biso   1.000  C
  C98      1.0000 0.90100  0.10470  0.64480  Biso   1.000  C
  C99      1.0000 0.94266  0.07446  0.67612  Biso   1.000  C
  C100     1.0000 0.00413  0.03573  0.66986  Biso   1.000  C
  C101     1.0000 0.92133  0.09643  0.60766  Biso   1.000  C
  C102     1.0000 0.98453  0.05863  0.60186  Biso   1.000  C
  C103     1.0000 0.02684  0.02744  0.63308  Biso   1.000  C
  C104     1.0000 0.09521  0.98761  0.62702  Biso   1.000  C
  C105     1.0000 0.83319  0.98389  0.20918  Biso   1.000  C
  C106     1.0000 0.82118  0.96468  0.24236  Biso   1.000  C
  C107     1.0000 0.86250  0.87150  0.20280  Biso   1.000  C
  C108     1.0000 0.83792  0.84732  0.26684  Biso   1.000  C
  C109     1.0000 0.78378  0.85608  0.28836  Biso   1.000  C
  C110     1.0000 0.78165  0.81165  0.31510  Biso   1.000  C
  C111     1.0000 0.89030  0.79530  0.27320  Biso   1.000  C
  C112     1.0000 0.88723  0.74973  0.29866  Biso   1.000  C
  C113     1.0000 0.83261  0.75911  0.31902  Biso   1.000  C
  C114     1.0000 0.84304  0.73244  0.38608  Biso   1.000  C
  C115     1.0000 0.93982  0.84092  0.58784  Biso   1.000  C
  C116     1.0000 0.93615  0.84715  0.54770  Biso   1.000  C
  C117     1.0000 0.89238  0.74008  0.54336  Biso   1.000  C
  C118     1.0000 0.88164  0.76614  0.47408  Biso   1.000  C
  C119     1.0000 0.82645  0.70955  0.44970  Biso   1.000  C
  C120     1.0000 0.80768  0.69178  0.40596  Biso   1.000  C
  C121     1.0000 0.91776  0.80606  0.45432  Biso   1.000  C
  C122     1.0000 0.89729  0.78959  0.41078  Biso   1.000  C
  C123     1.0000 0.00233  0.81693  0.15206  Biso   1.000  C
  C124     1.0000 0.04010  0.74380  0.14480  Biso   1.000  C
  C125     1.0000 0.10166  0.73346  0.17612  Biso   1.000  C
  C126     1.0000 0.13413  0.66573  0.16986  Biso   1.000  C
  C127     1.0000 0.01123  0.68633  0.10766  Biso   1.000  C
  C128     1.0000 0.04323  0.61733  0.10186  Biso   1.000  C
  C129     1.0000 0.10564  0.60624  0.13308  Biso   1.000  C
  C130     1.0000 0.13941  0.53181  0.12702  Biso   1.000  C
  C131     1.0000 0.87599  0.22529  0.20918  Biso   1.000  C
  C132     1.0000 0.92118  0.27768  0.24236  Biso   1.000  C
  C133     1.0000 0.84030  0.33130  0.20280  Biso   1.000  C
  C134     1.0000 0.92892  0.41952  0.26684  Biso   1.000  C
  C135     1.0000 0.00458  0.43228  0.28836  Biso   1.000  C
  C136     1.0000 0.03345  0.50345  0.31510  Biso   1.000  C
  C137     1.0000 0.88290  0.47790  0.27320  Biso   1.000  C
  C138     1.0000 0.91143  0.54893  0.29866  Biso   1.000  C
  C139     1.0000 0.98641  0.55991  0.31902  Biso   1.000  C
  C140     1.0000 0.04304  0.65364  0.38608  Biso   1.000  C
  C141     1.0000 0.14802  0.74692  0.58784  Biso   1.000  C
  C142     1.0000 0.11155  0.70055  0.54770  Biso   1.000  C
  C143     1.0000 0.15098  0.80328  0.54336  Biso   1.000  C
  C144     1.0000 0.09244  0.70794  0.47408  Biso   1.000  C
  C145     1.0000 0.12325  0.74015  0.44970  Biso   1.000  C
  C146     1.0000 0.09828  0.71418  0.40596  Biso   1.000  C
  C147     1.0000 0.03656  0.64826  0.45432  Biso   1.000  C
  C148     1.0000 0.01349  0.62119  0.41078  Biso   1.000  C
  C149     1.0000 0.64973  0.33513  0.15206  Biso   1.000  C
  C150     1.0000 0.60470  0.40100  0.14480  Biso   1.000  C
  C151     1.0000 0.57446  0.44266  0.17612  Biso   1.000  C
  C152     1.0000 0.53573  0.50413  0.16986  Biso   1.000  C
  C153     1.0000 0.59643  0.42133  0.10766  Biso   1.000  C
  C154     1.0000 0.55863  0.48453  0.10186  Biso   1.000  C
  C155     1.0000 0.52744  0.52684  0.13308  Biso   1.000  C
  C156     1.0000 0.48761  0.59521  0.12702  Biso   1.000  C
  C157     1.0000 0.22529  0.83319  0.70918  Biso   1.000  C
  C158     1.0000 0.27768  0.82118  0.74236  Biso   1.000  C
  C159     1.0000 0.33130  0.86250  0.70280  Biso   1.000  C
  C160     1.0000 0.41952  0.83792  0.76684  Biso   1.000  C
  C161     1.0000 0.43228  0.78378  0.78836  Biso   1.000  C
  C162     1.0000 0.50345  0.78165  0.81510  Biso   1.000  C
  C163     1.0000 0.47790  0.89030  0.77320  Biso   1.000  C
  C164     1.0000 0.54893  0.88723  0.79866  Biso   1.000  C
  C165     1.0000 0.55991  0.83261  0.81902  Biso   1.000  C
  C166     1.0000 0.65364  0.84304  0.88608  Biso   1.000  C
  C167     1.0000 0.74692  0.93982  0.08784  Biso   1.000  C
  C168     1.0000 0.70055  0.93615  0.04770  Biso   1.000  C
  C169     1.0000 0.80328  0.89238  0.04336  Biso   1.000  C
  C170     1.0000 0.70794  0.88164  0.97408  Biso   1.000  C
  C171     1.0000 0.74015  0.82645  0.94970  Biso   1.000  C
  C172     1.0000 0.71418  0.80768  0.90596  Biso   1.000  C
  C173     1.0000 0.64826  0.91776  0.95432  Biso   1.000  C
  C174     1.0000 0.62119  0.89729  0.91078  Biso   1.000  C
  C175     1.0000 0.33513  0.00233  0.65206  Biso   1.000  C
  C176     1.0000 0.40100  0.04010  0.64480  Biso   1.000  C
  C177     1.0000 0.44266  0.10166  0.67612  Biso   1.000  C
  C178     1.0000 0.50413  0.13413  0.66986  Biso   1.000  C
  C179     1.0000 0.42133  0.01123  0.60766  Biso   1.000  C
  C180     1.0000 0.48453  0.04323  0.60186  Biso   1.000  C
  C181     1.0000 0.52684  0.10564  0.63308  Biso   1.000  C
  C182     1.0000 0.59521  0.13941  0.62702  Biso   1.000  C
  C183     1.0000 0.98389  0.87599  0.70918  Biso   1.000  C
  C184     1.0000 0.96468  0.92118  0.74236  Biso   1.000  C
  C185     1.0000 0.87150  0.84030  0.70280  Biso   1.000  C
  C186     1.0000 0.84732  0.92892  0.76684  Biso   1.000  C
  C187     1.0000 0.85608  0.00458  0.78836  Biso   1.000  C
  C188     1.0000 0.81165  0.03345  0.81510  Biso   1.000  C
  C189     1.0000 0.79530  0.88290  0.77320  Biso   1.000  C
  C190     1.0000 0.74973  0.91143  0.79866  Biso   1.000  C
  C191     1.0000 0.75911  0.98641  0.81902  Biso   1.000  C
  C192     1.0000 0.73244  0.04304  0.88608  Biso   1.000  C
  C193     1.0000 0.84092  0.14802  0.08784  Biso   1.000  C
  C194     1.0000 0.84715  0.11155  0.04770  Biso   1.000  C
  C195     1.0000 0.74008  0.15098  0.04336  Biso   1.000  C
  C196     1.0000 0.76614  0.09244  0.97408  Biso   1.000  C
  C197     1.0000 0.70955  0.12325  0.94970  Biso   1.000  C
  C198     1.0000 0.69178  0.09828  0.90596  Biso   1.000  C
  C199     1.0000 0.80606  0.03656  0.95432  Biso   1.000  C
  C200     1.0000 0.78959  0.01349  0.91078  Biso   1.000  C
  C201     1.0000 0.81693  0.64973  0.65206  Biso   1.000  C
  C202     1.0000 0.74380  0.60470  0.64480  Biso   1.000  C
  C203     1.0000 0.73346  0.57446  0.67612  Biso   1.000  C
  C204     1.0000 0.66573  0.53573  0.66986  Biso   1.000  C
  C205     1.0000 0.68633  0.59643  0.60766  Biso   1.000  C
  C206     1.0000 0.61733  0.55863  0.60186  Biso   1.000  C
  C207     1.0000 0.60624  0.52744  0.63308  Biso   1.000  C
  C208     1.0000 0.53181  0.48761  0.62702  Biso   1.000  C
  N1       1.0000 0.32398  0.42528  0.18436  Biso   1.000  N
  N2       1.0000 0.39889  0.39219  0.23818  Biso   1.000  N
  N3       1.0000 0.66917  0.27187  0.58474  Biso   1.000  N
  N4       1.0000 0.61655  0.28195  0.51950  Biso   1.000  N
  N5       1.0000 0.36038  0.75908  0.18436  Biso   1.000  N
  N6       1.0000 0.33929  0.84599  0.23818  Biso   1.000  N
  N7       1.0000 0.41557  0.31287  0.58474  Biso   1.000  N
  N8       1.0000 0.40295  0.23755  0.51950  Biso   1.000  N
  N9       1.0000 0.42528  0.36038  0.68436  Biso   1.000  N
  N10      1.0000 0.39219  0.33929  0.73818  Biso   1.000  N
  N11      1.0000 0.27187  0.41557  0.08474  Biso   1.000  N
  N12      1.0000 0.28195  0.40295  0.01950  Biso   1.000  N
  N13      1.0000 0.75908  0.32398  0.68436  Biso   1.000  N
  N14      1.0000 0.84599  0.39889  0.73818  Biso   1.000  N
  N15      1.0000 0.31287  0.66917  0.08474  Biso   1.000  N
  N16      1.0000 0.23755  0.61655  0.01950  Biso   1.000  N
  N17      1.0000 0.86038  0.92528  0.18436  Biso   1.000  N
  N18      1.0000 0.83929  0.89219  0.23818  Biso   1.000  N
  N19      1.0000 0.91557  0.77187  0.58474  Biso   1.000  N
  N20      1.0000 0.90295  0.78195  0.51950  Biso   1.000  N
  N21      1.0000 0.82398  0.25908  0.18436  Biso   1.000  N
  N22      1.0000 0.89889  0.34599  0.23818  Biso   1.000  N
  N23      1.0000 0.16917  0.81287  0.58474  Biso   1.000  N
  N24      1.0000 0.11655  0.73755  0.51950  Biso   1.000  N
  N25      1.0000 0.25908  0.86038  0.68436  Biso   1.000  N
  N26      1.0000 0.34599  0.83929  0.73818  Biso   1.000  N
  N27      1.0000 0.81287  0.91557  0.08474  Biso   1.000  N
  N28      1.0000 0.73755  0.90295  0.01950  Biso   1.000  N
  N29      1.0000 0.92528  0.82398  0.68436  Biso   1.000  N
  N30      1.0000 0.89219  0.89889  0.73818  Biso   1.000  N
  N31      1.0000 0.77187  0.16917  0.08474  Biso   1.000  N
  N32      1.0000 0.78195  0.11655  0.01950  Biso   1.000  N
  O1       1.0000 0.17221  0.32541  0.12122  Biso   1.000  O
  O2       1.0000 0.16529  0.36359  0.18838  Biso   1.000  O
  O3       1.0000 0.98485  0.97715  0.09570  Biso   1.000  O
  O4       1.0000 0.95474  0.02714  0.15508  Biso   1.000  O
  O5       1.0000 0.51881  0.20831  0.34162  Biso   1.000  O
  O6       1.0000 0.44901  0.79581  0.12122  Biso   1.000  O
  O7       1.0000 0.52309  0.82479  0.18838  Biso   1.000  O
  O8       1.0000 0.61085  0.11855  0.09570  Biso   1.000  O
  O9       1.0000 0.70034  0.12794  0.15508  Biso   1.000  O
  O10      1.0000 0.32281  0.13331  0.34162  Biso   1.000  O
  O11      1.0000 0.32541  0.44901  0.62122  Biso   1.000  O
  O12      1.0000 0.36359  0.52309  0.68838  Biso   1.000  O
  O13      1.0000 0.97715  0.61085  0.59570  Biso   1.000  O
  O14      1.0000 0.02714  0.70034  0.65508  Biso   1.000  O
  O15      1.0000 0.20831  0.32281  0.84162  Biso   1.000  O
  O16      1.0000 0.79581  0.17221  0.62122  Biso   1.000  O
  O17      1.0000 0.82479  0.16529  0.68838  Biso   1.000  O
  O18      1.0000 0.11855  0.98485  0.59570  Biso   1.000  O
  O19      1.0000 0.12794  0.95474  0.65508  Biso   1.000  O
  O20      1.0000 0.13331  0.51881  0.84162  Biso   1.000  O
  O21      1.0000 0.94901  0.82541  0.12122  Biso   1.000  O
  O22      1.0000 0.02309  0.86359  0.18838  Biso   1.000  O
  O23      1.0000 0.11085  0.47715  0.09570  Biso   1.000  O
  O24      1.0000 0.20034  0.52714  0.15508  Biso   1.000  O
  O25      1.0000 0.82281  0.70831  0.34162  Biso   1.000  O
  O26      1.0000 0.67221  0.29581  0.12122  Biso   1.000  O
  O27      1.0000 0.66529  0.32479  0.18838  Biso   1.000  O
  O28      1.0000 0.48485  0.61855  0.09570  Biso   1.000  O
  O29      1.0000 0.45474  0.62794  0.15508  Biso   1.000  O
  O30      1.0000 0.01881  0.63331  0.34162  Biso   1.000  O
  O31      1.0000 0.29581  0.94901  0.62122  Biso   1.000  O
  O32      1.0000 0.32479  0.02309  0.68838  Biso   1.000  O
  O33      1.0000 0.61855  0.11085  0.59570  Biso   1.000  O
  O34      1.0000 0.62794  0.20034  0.65508  Biso   1.000  O
  O35      1.0000 0.63331  0.82281  0.84162  Biso   1.000  O
  O36      1.0000 0.82541  0.67221  0.62122  Biso   1.000  O
  O37      1.0000 0.86359  0.66529  0.68838  Biso   1.000  O
  O38      1.0000 0.47715  0.48485  0.59570  Biso   1.000  O
  O39      1.0000 0.52714  0.45474  0.65508  Biso   1.000  O
  O40      1.0000 0.70831  0.01881  0.84162  Biso   1.000  O
  Zn9      1.0000 0.09459  0.07756  0.86540  Biso   1.000  Zn
  Zn10     1.0000 0.27081  0.78784  0.86540  Biso   1.000  Zn
  Zn11     1.0000 0.78784  0.09459  0.36540  Biso   1.000  Zn
  Zn12     1.0000 0.07756  0.27081  0.36540  Biso   1.000  Zn
  Zn13     1.0000 0.77081  0.57756  0.86540  Biso   1.000  Zn
  Zn14     1.0000 0.59459  0.28784  0.86540  Biso   1.000  Zn
  Zn15     1.0000 0.57756  0.59459  0.36540  Biso   1.000  Zn
  Zn16     1.0000 0.28784  0.77081  0.36540  Biso   1.000  Zn
  H145     1.0000 0.17600  0.96850  0.79640  Biso   1.000  H
  H146     1.0000 0.19670  0.00400  0.73520  Biso   1.000  H
  H147     1.0000 0.12130  0.17720  0.80780  Biso   1.000  H
  H148     1.0000 0.25220  0.10750  0.71520  Biso   1.000  H
  H149     1.0000 0.25520  0.18210  0.66940  Biso   1.000  H
  H150     1.0000 0.07030  0.20900  0.74040  Biso   1.000  H
  H151     1.0000 0.07760  0.28750  0.69800  Biso   1.000  H
  H152     1.0000 0.04280  0.11950  0.38600  Biso   1.000  H
  H153     1.0000 0.04610  0.11020  0.45880  Biso   1.000  H
  H154     1.0000 0.13080  0.31020  0.46860  Biso   1.000  H
  H155     1.0000 0.19880  0.31730  0.53680  Biso   1.000  H
  H156     1.0000 0.22970  0.34850  0.61120  Biso   1.000  H
  H157     1.0000 0.04320  0.15510  0.52860  Biso   1.000  H
  H158     1.0000 0.07900  0.18200  0.60260  Biso   1.000  H
  H159     1.0000 0.87830  0.22690  0.79800  Biso   1.000  H
  H160     1.0000 0.82260  0.34050  0.80860  Biso   1.000  H
  H161     1.0000 0.03080  0.30620  0.91420  Biso   1.000  H
  H162     1.0000 0.97800  0.42270  0.92380  Biso   1.000  H
  H163     1.0000 0.12040  0.82790  0.79640  Biso   1.000  H
  H164     1.0000 0.03850  0.73120  0.73520  Biso   1.000  H
  H165     1.0000 0.18650  0.63060  0.80780  Biso   1.000  H
  H166     1.0000 0.96300  0.60770  0.71520  Biso   1.000  H
  H167     1.0000 0.91420  0.48730  0.66940  Biso   1.000  H
  H168     1.0000 0.17010  0.53140  0.74040  Biso   1.000  H
  H169     1.0000 0.12040  0.41050  0.69800  Biso   1.000  H
  H170     1.0000 0.84320  0.26650  0.38600  Biso   1.000  H
  H171     1.0000 0.91270  0.34860  0.45880  Biso   1.000  H
  H172     1.0000 0.83780  0.15840  0.46860  Biso   1.000  H
  H173     1.0000 0.83800  0.21950  0.53680  Biso   1.000  H
  H174     1.0000 0.88150  0.26270  0.61120  Biso   1.000  H
  H175     1.0000 0.98540  0.37350  0.52860  Biso   1.000  H
  H176     1.0000 0.02360  0.42060  0.60260  Biso   1.000  H
  H177     1.0000 0.41970  0.57110  0.79800  Biso   1.000  H
  H178     1.0000 0.48600  0.46810  0.80860  Biso   1.000  H
  H179     1.0000 0.38340  0.60800  0.91420  Biso   1.000  H
  H180     1.0000 0.44580  0.50110  0.92380  Biso   1.000  H
  H181     1.0000 0.82790  0.17600  0.29640  Biso   1.000  H
  H182     1.0000 0.73120  0.19670  0.23520  Biso   1.000  H
  H183     1.0000 0.63060  0.12130  0.30780  Biso   1.000  H
  H184     1.0000 0.60770  0.25220  0.21520  Biso   1.000  H
  H185     1.0000 0.48730  0.25520  0.16940  Biso   1.000  H
  H186     1.0000 0.53140  0.07030  0.24040  Biso   1.000  H
  H187     1.0000 0.41050  0.07760  0.19800  Biso   1.000  H
  H188     1.0000 0.26650  0.04280  0.88600  Biso   1.000  H
  H189     1.0000 0.34860  0.04610  0.95880  Biso   1.000  H
  H190     1.0000 0.15840  0.13080  0.96860  Biso   1.000  H
  H191     1.0000 0.21950  0.19880  0.03680  Biso   1.000  H
  H192     1.0000 0.26270  0.22970  0.11120  Biso   1.000  H
  H193     1.0000 0.37350  0.04320  0.02860  Biso   1.000  H
  H194     1.0000 0.42060  0.07900  0.10260  Biso   1.000  H
  H195     1.0000 0.57110  0.87830  0.29800  Biso   1.000  H
  H196     1.0000 0.46810  0.82260  0.30860  Biso   1.000  H
  H197     1.0000 0.60800  0.03080  0.41420  Biso   1.000  H
  H198     1.0000 0.50110  0.97800  0.42380  Biso   1.000  H
  H199     1.0000 0.96850  0.12040  0.29640  Biso   1.000  H
  H200     1.0000 0.00400  0.03850  0.23520  Biso   1.000  H
  H201     1.0000 0.17720  0.18650  0.30780  Biso   1.000  H
  H202     1.0000 0.10750  0.96300  0.21520  Biso   1.000  H
  H203     1.0000 0.18210  0.91420  0.16940  Biso   1.000  H
  H204     1.0000 0.20900  0.17010  0.24040  Biso   1.000  H
  H205     1.0000 0.28750  0.12040  0.19800  Biso   1.000  H
  H206     1.0000 0.11950  0.84320  0.88600  Biso   1.000  H
  H207     1.0000 0.11020  0.91270  0.95880  Biso   1.000  H
  H208     1.0000 0.31020  0.83780  0.96860  Biso   1.000  H
  H209     1.0000 0.31730  0.83800  0.03680  Biso   1.000  H
  H210     1.0000 0.34850  0.88150  0.11120  Biso   1.000  H
  H211     1.0000 0.15510  0.98540  0.02860  Biso   1.000  H
  H212     1.0000 0.18200  0.02360  0.10260  Biso   1.000  H
  H213     1.0000 0.22690  0.41970  0.29800  Biso   1.000  H
  H214     1.0000 0.34050  0.48600  0.30860  Biso   1.000  H
  H215     1.0000 0.30620  0.38340  0.41420  Biso   1.000  H
  H216     1.0000 0.42270  0.44580  0.42380  Biso   1.000  H
  H217     1.0000 0.62040  0.46850  0.79640  Biso   1.000  H
  H218     1.0000 0.53850  0.50400  0.73520  Biso   1.000  H
  H219     1.0000 0.68650  0.67720  0.80780  Biso   1.000  H
  H220     1.0000 0.46300  0.60750  0.71520  Biso   1.000  H
  H221     1.0000 0.41420  0.68210  0.66940  Biso   1.000  H
  H222     1.0000 0.67010  0.70900  0.74040  Biso   1.000  H
  H223     1.0000 0.62040  0.78750  0.69800  Biso   1.000  H
  H224     1.0000 0.34320  0.61950  0.38600  Biso   1.000  H
  H225     1.0000 0.41270  0.61020  0.45880  Biso   1.000  H
  H226     1.0000 0.33780  0.81020  0.46860  Biso   1.000  H
  H227     1.0000 0.33800  0.81730  0.53680  Biso   1.000  H
  H228     1.0000 0.38150  0.84850  0.61120  Biso   1.000  H
  H229     1.0000 0.48540  0.65510  0.52860  Biso   1.000  H
  H230     1.0000 0.52360  0.68200  0.60260  Biso   1.000  H
  H231     1.0000 0.91970  0.72690  0.79800  Biso   1.000  H
  H232     1.0000 0.98600  0.84050  0.80860  Biso   1.000  H
  H233     1.0000 0.88340  0.80620  0.91420  Biso   1.000  H
  H234     1.0000 0.94580  0.92270  0.92380  Biso   1.000  H
  H235     1.0000 0.67600  0.32790  0.79640  Biso   1.000  H
  H236     1.0000 0.69670  0.23120  0.73520  Biso   1.000  H
  H237     1.0000 0.62130  0.13060  0.80780  Biso   1.000  H
  H238     1.0000 0.75220  0.10770  0.71520  Biso   1.000  H
  H239     1.0000 0.75520  0.98730  0.66940  Biso   1.000  H
  H240     1.0000 0.57030  0.03140  0.74040  Biso   1.000  H
  H241     1.0000 0.57760  0.91050  0.69800  Biso   1.000  H
  H242     1.0000 0.54280  0.76650  0.38600  Biso   1.000  H
  H243     1.0000 0.54610  0.84860  0.45880  Biso   1.000  H
  H244     1.0000 0.63080  0.65840  0.46860  Biso   1.000  H
  H245     1.0000 0.69880  0.71950  0.53680  Biso   1.000  H
  H246     1.0000 0.72970  0.76270  0.61120  Biso   1.000  H
  H247     1.0000 0.54320  0.87350  0.52860  Biso   1.000  H
  H248     1.0000 0.57900  0.92060  0.60260  Biso   1.000  H
  H249     1.0000 0.37830  0.07110  0.79800  Biso   1.000  H
  H250     1.0000 0.32260  0.96810  0.80860  Biso   1.000  H
  H251     1.0000 0.53080  0.10800  0.91420  Biso   1.000  H
  H252     1.0000 0.47800  0.00110  0.92380  Biso   1.000  H
  H253     1.0000 0.46850  0.67600  0.29640  Biso   1.000  H
  H254     1.0000 0.50400  0.69670  0.23520  Biso   1.000  H
  H255     1.0000 0.67720  0.62130  0.30780  Biso   1.000  H
  H256     1.0000 0.60750  0.75220  0.21520  Biso   1.000  H
  H257     1.0000 0.68210  0.75520  0.16940  Biso   1.000  H
  H258     1.0000 0.70900  0.57030  0.24040  Biso   1.000  H
  H259     1.0000 0.78750  0.57760  0.19800  Biso   1.000  H
  H260     1.0000 0.61950  0.54280  0.88600  Biso   1.000  H
  H261     1.0000 0.61020  0.54610  0.95880  Biso   1.000  H
  H262     1.0000 0.81020  0.63080  0.96860  Biso   1.000  H
  H263     1.0000 0.81730  0.69880  0.03680  Biso   1.000  H
  H264     1.0000 0.84850  0.72970  0.11120  Biso   1.000  H
  H265     1.0000 0.65510  0.54320  0.02860  Biso   1.000  H
  H266     1.0000 0.68200  0.57900  0.10260  Biso   1.000  H
  H267     1.0000 0.72690  0.37830  0.29800  Biso   1.000  H
  H268     1.0000 0.84050  0.32260  0.30860  Biso   1.000  H
  H269     1.0000 0.80620  0.53080  0.41420  Biso   1.000  H
  H270     1.0000 0.92270  0.47800  0.42380  Biso   1.000  H
  H271     1.0000 0.32790  0.62040  0.29640  Biso   1.000  H
  H272     1.0000 0.23120  0.53850  0.23520  Biso   1.000  H
  H273     1.0000 0.13060  0.68650  0.30780  Biso   1.000  H
  H274     1.0000 0.10770  0.46300  0.21520  Biso   1.000  H
  H275     1.0000 0.98730  0.41420  0.16940  Biso   1.000  H
  H276     1.0000 0.03140  0.67010  0.24040  Biso   1.000  H
  H277     1.0000 0.91050  0.62040  0.19800  Biso   1.000  H
  H278     1.0000 0.76650  0.34320  0.88600  Biso   1.000  H
  H279     1.0000 0.84860  0.41270  0.95880  Biso   1.000  H
  H280     1.0000 0.65840  0.33780  0.96860  Biso   1.000  H
  H281     1.0000 0.71950  0.33800  0.03680  Biso   1.000  H
  H282     1.0000 0.76270  0.38150  0.11120  Biso   1.000  H
  H283     1.0000 0.87350  0.48540  0.02860  Biso   1.000  H
  H284     1.0000 0.92060  0.52360  0.10260  Biso   1.000  H
  H285     1.0000 0.07110  0.91970  0.29800  Biso   1.000  H
  H286     1.0000 0.96810  0.98600  0.30860  Biso   1.000  H
  H287     1.0000 0.10800  0.88340  0.41420  Biso   1.000  H
  H288     1.0000 0.00110  0.94580  0.42380  Biso   1.000  H
  C209     1.0000 0.16681  0.01611  0.79082  Biso   1.000  C
  C210     1.0000 0.17882  0.03532  0.75764  Biso   1.000  C
  C211     1.0000 0.13750  0.12850  0.79720  Biso   1.000  C
  C212     1.0000 0.16208  0.15268  0.73316  Biso   1.000  C
  C213     1.0000 0.21622  0.14392  0.71164  Biso   1.000  C
  C214     1.0000 0.21835  0.18835  0.68490  Biso   1.000  C
  C215     1.0000 0.10970  0.20470  0.72680  Biso   1.000  C
  C216     1.0000 0.11277  0.25027  0.70134  Biso   1.000  C
  C217     1.0000 0.16739  0.24089  0.68098  Biso   1.000  C
  C218     1.0000 0.15696  0.26756  0.61392  Biso   1.000  C
  C219     1.0000 0.06018  0.15908  0.41216  Biso   1.000  C
  C220     1.0000 0.06385  0.15285  0.45230  Biso   1.000  C
  C221     1.0000 0.10762  0.25992  0.45664  Biso   1.000  C
  C222     1.0000 0.11836  0.23386  0.52592  Biso   1.000  C
  C223     1.0000 0.17355  0.29045  0.55030  Biso   1.000  C
  C224     1.0000 0.19232  0.30822  0.59404  Biso   1.000  C
  C225     1.0000 0.08224  0.19394  0.54568  Biso   1.000  C
  C226     1.0000 0.10271  0.21041  0.58922  Biso   1.000  C
  C227     1.0000 0.99767  0.18307  0.84794  Biso   1.000  C
  C228     1.0000 0.95990  0.25620  0.85520  Biso   1.000  C
  C229     1.0000 0.89834  0.26654  0.82388  Biso   1.000  C
  C230     1.0000 0.86587  0.33427  0.83014  Biso   1.000  C
  C231     1.0000 0.98877  0.31367  0.89234  Biso   1.000  C
  C232     1.0000 0.95677  0.38267  0.89814  Biso   1.000  C
  C233     1.0000 0.89436  0.39376  0.86692  Biso   1.000  C
  C234     1.0000 0.86059  0.46819  0.87298  Biso   1.000  C
  C235     1.0000 0.12401  0.77471  0.79082  Biso   1.000  C
  C236     1.0000 0.07882  0.72232  0.75764  Biso   1.000  C
  C237     1.0000 0.15970  0.66870  0.79720  Biso   1.000  C
  C238     1.0000 0.07108  0.58048  0.73316  Biso   1.000  C
  C239     1.0000 0.99542  0.56772  0.71164  Biso   1.000  C
  C240     1.0000 0.96655  0.49655  0.68490  Biso   1.000  C
  C241     1.0000 0.11710  0.52210  0.72680  Biso   1.000  C
  C242     1.0000 0.08857  0.45107  0.70134  Biso   1.000  C
  C243     1.0000 0.01359  0.44009  0.68098  Biso   1.000  C
  C244     1.0000 0.95696  0.34636  0.61392  Biso   1.000  C
  C245     1.0000 0.85198  0.25308  0.41216  Biso   1.000  C
  C246     1.0000 0.88845  0.29945  0.45230  Biso   1.000  C
  C247     1.0000 0.84902  0.19672  0.45664  Biso   1.000  C
  C248     1.0000 0.90756  0.29206  0.52592  Biso   1.000  C
  C249     1.0000 0.87675  0.25985  0.55030  Biso   1.000  C
  C250     1.0000 0.90172  0.28582  0.59404  Biso   1.000  C
  C251     1.0000 0.96344  0.35174  0.54568  Biso   1.000  C
  C252     1.0000 0.98651  0.37881  0.58922  Biso   1.000  C
  C253     1.0000 0.35027  0.66487  0.84794  Biso   1.000  C
  C254     1.0000 0.39530  0.59900  0.85520  Biso   1.000  C
  C255     1.0000 0.42554  0.55734  0.82388  Biso   1.000  C
  C256     1.0000 0.46427  0.49587  0.83014  Biso   1.000  C
  C257     1.0000 0.40357  0.57867  0.89234  Biso   1.000  C
  C258     1.0000 0.44137  0.51547  0.89814  Biso   1.000  C
  C259     1.0000 0.47256  0.47316  0.86692  Biso   1.000  C
  C260     1.0000 0.51239  0.40479  0.87298  Biso   1.000  C
  C261     1.0000 0.77471  0.16681  0.29082  Biso   1.000  C
  C262     1.0000 0.72232  0.17882  0.25764  Biso   1.000  C
  C263     1.0000 0.66870  0.13750  0.29720  Biso   1.000  C
  C264     1.0000 0.58048  0.16208  0.23316  Biso   1.000  C
  C265     1.0000 0.56772  0.21622  0.21164  Biso   1.000  C
  C266     1.0000 0.49655  0.21835  0.18490  Biso   1.000  C
  C267     1.0000 0.52210  0.10970  0.22680  Biso   1.000  C
  C268     1.0000 0.45107  0.11277  0.20134  Biso   1.000  C
  C269     1.0000 0.44009  0.16739  0.18098  Biso   1.000  C
  C270     1.0000 0.34636  0.15696  0.11392  Biso   1.000  C
  C271     1.0000 0.25308  0.06018  0.91216  Biso   1.000  C
  C272     1.0000 0.29945  0.06385  0.95230  Biso   1.000  C
  C273     1.0000 0.19672  0.10762  0.95664  Biso   1.000  C
  C274     1.0000 0.29206  0.11836  0.02592  Biso   1.000  C
  C275     1.0000 0.25985  0.17355  0.05030  Biso   1.000  C
  C276     1.0000 0.28582  0.19232  0.09404  Biso   1.000  C
  C277     1.0000 0.35174  0.08224  0.04568  Biso   1.000  C
  C278     1.0000 0.37881  0.10271  0.08922  Biso   1.000  C
  C279     1.0000 0.66487  0.99767  0.34794  Biso   1.000  C
  C280     1.0000 0.59900  0.95990  0.35520  Biso   1.000  C
  C281     1.0000 0.55734  0.89834  0.32388  Biso   1.000  C
  C282     1.0000 0.49587  0.86587  0.33014  Biso   1.000  C
  C283     1.0000 0.57867  0.98877  0.39234  Biso   1.000  C
  C284     1.0000 0.51547  0.95677  0.39814  Biso   1.000  C
  C285     1.0000 0.47316  0.89436  0.36692  Biso   1.000  C
  C286     1.0000 0.40479  0.86059  0.37298  Biso   1.000  C
  C287     1.0000 0.01611  0.12401  0.29082  Biso   1.000  C
  C288     1.0000 0.03532  0.07882  0.25764  Biso   1.000  C
  C289     1.0000 0.12850  0.15970  0.29720  Biso   1.000  C
  C290     1.0000 0.15268  0.07108  0.23316  Biso   1.000  C
  C291     1.0000 0.14392  0.99542  0.21164  Biso   1.000  C
  C292     1.0000 0.18835  0.96655  0.18490  Biso   1.000  C
  C293     1.0000 0.20470  0.11710  0.22680  Biso   1.000  C
  C294     1.0000 0.25027  0.08857  0.20134  Biso   1.000  C
  C295     1.0000 0.24089  0.01359  0.18098  Biso   1.000  C
  C296     1.0000 0.26756  0.95696  0.11392  Biso   1.000  C
  C297     1.0000 0.15908  0.85198  0.91216  Biso   1.000  C
  C298     1.0000 0.15285  0.88845  0.95230  Biso   1.000  C
  C299     1.0000 0.25992  0.84902  0.95664  Biso   1.000  C
  C300     1.0000 0.23386  0.90756  0.02592  Biso   1.000  C
  C301     1.0000 0.29045  0.87675  0.05030  Biso   1.000  C
  C302     1.0000 0.30822  0.90172  0.09404  Biso   1.000  C
  C303     1.0000 0.19394  0.96344  0.04568  Biso   1.000  C
  C304     1.0000 0.21041  0.98651  0.08922  Biso   1.000  C
  C305     1.0000 0.18307  0.35027  0.34794  Biso   1.000  C
  C306     1.0000 0.25620  0.39530  0.35520  Biso   1.000  C
  C307     1.0000 0.26654  0.42554  0.32388  Biso   1.000  C
  C308     1.0000 0.33427  0.46427  0.33014  Biso   1.000  C
  C309     1.0000 0.31367  0.40357  0.39234  Biso   1.000  C
  C310     1.0000 0.38267  0.44137  0.39814  Biso   1.000  C
  C311     1.0000 0.39376  0.47256  0.36692  Biso   1.000  C
  C312     1.0000 0.46819  0.51239  0.37298  Biso   1.000  C
  C313     1.0000 0.62401  0.51611  0.79082  Biso   1.000  C
  C314     1.0000 0.57882  0.53532  0.75764  Biso   1.000  C
  C315     1.0000 0.65970  0.62850  0.79720  Biso   1.000  C
  C316     1.0000 0.57108  0.65268  0.73316  Biso   1.000  C
  C317     1.0000 0.49542  0.64392  0.71164  Biso   1.000  C
  C318     1.0000 0.46655  0.68835  0.68490  Biso   1.000  C
  C319     1.0000 0.61710  0.70470  0.72680  Biso   1.000  C
  C320     1.0000 0.58857  0.75027  0.70134  Biso   1.000  C
  C321     1.0000 0.51359  0.74089  0.68098  Biso   1.000  C
  C322     1.0000 0.45696  0.76756  0.61392  Biso   1.000  C
  C323     1.0000 0.35198  0.65908  0.41216  Biso   1.000  C
  C324     1.0000 0.38845  0.65285  0.45230  Biso   1.000  C
  C325     1.0000 0.34902  0.75992  0.45664  Biso   1.000  C
  C326     1.0000 0.40756  0.73386  0.52592  Biso   1.000  C
  C327     1.0000 0.37675  0.79045  0.55030  Biso   1.000  C
  C328     1.0000 0.40172  0.80822  0.59404  Biso   1.000  C
  C329     1.0000 0.46344  0.69394  0.54568  Biso   1.000  C
  C330     1.0000 0.48651  0.71041  0.58922  Biso   1.000  C
  C331     1.0000 0.85027  0.68307  0.84794  Biso   1.000  C
  C332     1.0000 0.89530  0.75620  0.85520  Biso   1.000  C
  C333     1.0000 0.92554  0.76654  0.82388  Biso   1.000  C
  C334     1.0000 0.96427  0.83427  0.83014  Biso   1.000  C
  C335     1.0000 0.90357  0.81367  0.89234  Biso   1.000  C
  C336     1.0000 0.94137  0.88267  0.89814  Biso   1.000  C
  C337     1.0000 0.97256  0.89376  0.86692  Biso   1.000  C
  C338     1.0000 0.01239  0.96819  0.87298  Biso   1.000  C
  C339     1.0000 0.66681  0.27471  0.79082  Biso   1.000  C
  C340     1.0000 0.67882  0.22232  0.75764  Biso   1.000  C
  C341     1.0000 0.63750  0.16870  0.79720  Biso   1.000  C
  C342     1.0000 0.66208  0.08048  0.73316  Biso   1.000  C
  C343     1.0000 0.71622  0.06772  0.71164  Biso   1.000  C
  C344     1.0000 0.71835  0.99655  0.68490  Biso   1.000  C
  C345     1.0000 0.60970  0.02210  0.72680  Biso   1.000  C
  C346     1.0000 0.61277  0.95107  0.70134  Biso   1.000  C
  C347     1.0000 0.66739  0.94009  0.68098  Biso   1.000  C
  C348     1.0000 0.65696  0.84636  0.61392  Biso   1.000  C
  C349     1.0000 0.56018  0.75308  0.41216  Biso   1.000  C
  C350     1.0000 0.56385  0.79945  0.45230  Biso   1.000  C
  C351     1.0000 0.60762  0.69672  0.45664  Biso   1.000  C
  C352     1.0000 0.61836  0.79206  0.52592  Biso   1.000  C
  C353     1.0000 0.67355  0.75985  0.55030  Biso   1.000  C
  C354     1.0000 0.69232  0.78582  0.59404  Biso   1.000  C
  C355     1.0000 0.58224  0.85174  0.54568  Biso   1.000  C
  C356     1.0000 0.60271  0.87881  0.58922  Biso   1.000  C
  C357     1.0000 0.49767  0.16487  0.84794  Biso   1.000  C
  C358     1.0000 0.45990  0.09900  0.85520  Biso   1.000  C
  C359     1.0000 0.39834  0.05734  0.82388  Biso   1.000  C
  C360     1.0000 0.36587  0.99587  0.83014  Biso   1.000  C
  C361     1.0000 0.48877  0.07867  0.89234  Biso   1.000  C
  C362     1.0000 0.45677  0.01547  0.89814  Biso   1.000  C
  C363     1.0000 0.39436  0.97316  0.86692  Biso   1.000  C
  C364     1.0000 0.36059  0.90479  0.87298  Biso   1.000  C
  C365     1.0000 0.51611  0.66681  0.29082  Biso   1.000  C
  C366     1.0000 0.53532  0.67882  0.25764  Biso   1.000  C
  C367     1.0000 0.62850  0.63750  0.29720  Biso   1.000  C
  C368     1.0000 0.65268  0.66208  0.23316  Biso   1.000  C
  C369     1.0000 0.64392  0.71622  0.21164  Biso   1.000  C
  C370     1.0000 0.68835  0.71835  0.18490  Biso   1.000  C
  C371     1.0000 0.70470  0.60970  0.22680  Biso   1.000  C
  C372     1.0000 0.75027  0.61277  0.20134  Biso   1.000  C
  C373     1.0000 0.74089  0.66739  0.18098  Biso   1.000  C
  C374     1.0000 0.76756  0.65696  0.11392  Biso   1.000  C
  C375     1.0000 0.65908  0.56018  0.91216  Biso   1.000  C
  C376     1.0000 0.65285  0.56385  0.95230  Biso   1.000  C
  C377     1.0000 0.75992  0.60762  0.95664  Biso   1.000  C
  C378     1.0000 0.73386  0.61836  0.02592  Biso   1.000  C
  C379     1.0000 0.79045  0.67355  0.05030  Biso   1.000  C
  C380     1.0000 0.80822  0.69232  0.09404  Biso   1.000  C
  C381     1.0000 0.69394  0.58224  0.04568  Biso   1.000  C
  C382     1.0000 0.71041  0.60271  0.08922  Biso   1.000  C
  C383     1.0000 0.68307  0.49767  0.34794  Biso   1.000  C
  C384     1.0000 0.75620  0.45990  0.35520  Biso   1.000  C
  C385     1.0000 0.76654  0.39834  0.32388  Biso   1.000  C
  C386     1.0000 0.83427  0.36587  0.33014  Biso   1.000  C
  C387     1.0000 0.81367  0.48877  0.39234  Biso   1.000  C
  C388     1.0000 0.88267  0.45677  0.39814  Biso   1.000  C
  C389     1.0000 0.89376  0.39436  0.36692  Biso   1.000  C
  C390     1.0000 0.96819  0.36059  0.37298  Biso   1.000  C
  C391     1.0000 0.27471  0.62401  0.29082  Biso   1.000  C
  C392     1.0000 0.22232  0.57882  0.25764  Biso   1.000  C
  C393     1.0000 0.16870  0.65970  0.29720  Biso   1.000  C
  C394     1.0000 0.08048  0.57108  0.23316  Biso   1.000  C
  C395     1.0000 0.06772  0.49542  0.21164  Biso   1.000  C
  C396     1.0000 0.99655  0.46655  0.18490  Biso   1.000  C
  C397     1.0000 0.02210  0.61710  0.22680  Biso   1.000  C
  C398     1.0000 0.95107  0.58857  0.20134  Biso   1.000  C
  C399     1.0000 0.94009  0.51359  0.18098  Biso   1.000  C
  C400     1.0000 0.84636  0.45696  0.11392  Biso   1.000  C
  C401     1.0000 0.75308  0.35198  0.91216  Biso   1.000  C
  C402     1.0000 0.79945  0.38845  0.95230  Biso   1.000  C
  C403     1.0000 0.69672  0.34902  0.95664  Biso   1.000  C
  C404     1.0000 0.79206  0.40756  0.02592  Biso   1.000  C
  C405     1.0000 0.75985  0.37675  0.05030  Biso   1.000  C
  C406     1.0000 0.78582  0.40172  0.09404  Biso   1.000  C
  C407     1.0000 0.85174  0.46344  0.04568  Biso   1.000  C
  C408     1.0000 0.87881  0.48651  0.08922  Biso   1.000  C
  C409     1.0000 0.16487  0.85027  0.34794  Biso   1.000  C
  C410     1.0000 0.09900  0.89530  0.35520  Biso   1.000  C
  C411     1.0000 0.05734  0.92554  0.32388  Biso   1.000  C
  C412     1.0000 0.99587  0.96427  0.33014  Biso   1.000  C
  C413     1.0000 0.07867  0.90357  0.39234  Biso   1.000  C
  C414     1.0000 0.01547  0.94137  0.39814  Biso   1.000  C
  C415     1.0000 0.97316  0.97256  0.36692  Biso   1.000  C
  C416     1.0000 0.90479  0.01239  0.37298  Biso   1.000  C
  N33      1.0000 0.13962  0.07472  0.81564  Biso   1.000  N
  N34      1.0000 0.16071  0.10781  0.76182  Biso   1.000  N
  N35      1.0000 0.08443  0.22813  0.41526  Biso   1.000  N
  N36      1.0000 0.09705  0.21805  0.48050  Biso   1.000  N
  N37      1.0000 0.17602  0.74092  0.81564  Biso   1.000  N
  N38      1.0000 0.10111  0.65401  0.76182  Biso   1.000  N
  N39      1.0000 0.83083  0.18713  0.41526  Biso   1.000  N
  N40      1.0000 0.88345  0.26245  0.48050  Biso   1.000  N
  N41      1.0000 0.74092  0.13962  0.31564  Biso   1.000  N
  N42      1.0000 0.65401  0.16071  0.26182  Biso   1.000  N
  N43      1.0000 0.18713  0.08443  0.91526  Biso   1.000  N
  N44      1.0000 0.26245  0.09705  0.98050  Biso   1.000  N
  N45      1.0000 0.07472  0.17602  0.31564  Biso   1.000  N
  N46      1.0000 0.10781  0.10111  0.26182  Biso   1.000  N
  N47      1.0000 0.22813  0.83083  0.91526  Biso   1.000  N
  N48      1.0000 0.21805  0.88345  0.98050  Biso   1.000  N
  N49      1.0000 0.67602  0.57472  0.81564  Biso   1.000  N
  N50      1.0000 0.60111  0.60781  0.76182  Biso   1.000  N
  N51      1.0000 0.33083  0.72813  0.41526  Biso   1.000  N
  N52      1.0000 0.38345  0.71805  0.48050  Biso   1.000  N
  N53      1.0000 0.63962  0.24092  0.81564  Biso   1.000  N
  N54      1.0000 0.66071  0.15401  0.76182  Biso   1.000  N
  N55      1.0000 0.58443  0.68713  0.41526  Biso   1.000  N
  N56      1.0000 0.59705  0.76245  0.48050  Biso   1.000  N
  N57      1.0000 0.57472  0.63962  0.31564  Biso   1.000  N
  N58      1.0000 0.60781  0.66071  0.26182  Biso   1.000  N
  N59      1.0000 0.72813  0.58443  0.91526  Biso   1.000  N
  N60      1.0000 0.71805  0.59705  0.98050  Biso   1.000  N
  N61      1.0000 0.24092  0.67602  0.31564  Biso   1.000  N
  N62      1.0000 0.15401  0.60111  0.26182  Biso   1.000  N
  N63      1.0000 0.68713  0.33083  0.91526  Biso   1.000  N
  N64      1.0000 0.76245  0.38345  0.98050  Biso   1.000  N
  O41      1.0000 0.05099  0.17459  0.87878  Biso   1.000  O
  O42      1.0000 0.97691  0.13641  0.81162  Biso   1.000  O
  O43      1.0000 0.88915  0.52285  0.90430  Biso   1.000  O
  O44      1.0000 0.79966  0.47286  0.84492  Biso   1.000  O
  O45      1.0000 0.17719  0.29169  0.65838  Biso   1.000  O
  O46      1.0000 0.32779  0.70419  0.87878  Biso   1.000  O
  O47      1.0000 0.33471  0.67521  0.81162  Biso   1.000  O
  O48      1.0000 0.51515  0.38145  0.90430  Biso   1.000  O
  O49      1.0000 0.54526  0.37206  0.84492  Biso   1.000  O
  O50      1.0000 0.98119  0.36669  0.65838  Biso   1.000  O
  O51      1.0000 0.70419  0.05099  0.37878  Biso   1.000  O
  O52      1.0000 0.67521  0.97691  0.31162  Biso   1.000  O
  O53      1.0000 0.38145  0.88915  0.40430  Biso   1.000  O
  O54      1.0000 0.37206  0.79966  0.34492  Biso   1.000  O
  O55      1.0000 0.36669  0.17719  0.15838  Biso   1.000  O
  O56      1.0000 0.17459  0.32779  0.37878  Biso   1.000  O
  O57      1.0000 0.13641  0.33471  0.31162  Biso   1.000  O
  O58      1.0000 0.52285  0.51515  0.40430  Biso   1.000  O
  O59      1.0000 0.47286  0.54526  0.34492  Biso   1.000  O
  O60      1.0000 0.29169  0.98119  0.15838  Biso   1.000  O
  O61      1.0000 0.82779  0.67459  0.87878  Biso   1.000  O
  O62      1.0000 0.83471  0.63641  0.81162  Biso   1.000  O
  O63      1.0000 0.01515  0.02285  0.90430  Biso   1.000  O
  O64      1.0000 0.04526  0.97286  0.84492  Biso   1.000  O
  O65      1.0000 0.48119  0.79169  0.65838  Biso   1.000  O
  O66      1.0000 0.55099  0.20419  0.87878  Biso   1.000  O
  O67      1.0000 0.47691  0.17521  0.81162  Biso   1.000  O
  O68      1.0000 0.38915  0.88145  0.90430  Biso   1.000  O
  O69      1.0000 0.29966  0.87206  0.84492  Biso   1.000  O
  O70      1.0000 0.67719  0.86669  0.65838  Biso   1.000  O
  O71      1.0000 0.67459  0.55099  0.37878  Biso   1.000  O
  O72      1.0000 0.63641  0.47691  0.31162  Biso   1.000  O
  O73      1.0000 0.02285  0.38915  0.40430  Biso   1.000  O
  O74      1.0000 0.97286  0.29966  0.34492  Biso   1.000  O
  O75      1.0000 0.79169  0.67719  0.15838  Biso   1.000  O
  O76      1.0000 0.20419  0.82779  0.37878  Biso   1.000  O
  O77      1.0000 0.17521  0.83471  0.31162  Biso   1.000  O
  O78      1.0000 0.88145  0.01515  0.40430  Biso   1.000  O
  O79      1.0000 0.87206  0.04526  0.34492  Biso   1.000  O
  O80      1.0000 0.86669  0.48119  0.15838  Biso   1.000  O
