data_image0
_cell_length_a       45.5419
_cell_length_b       45.5419
_cell_length_c       45.5419
_cell_angle_alpha    90
_cell_angle_beta     90
_cell_angle_gamma    90

_symmetry_space_group_name_H-M    "P 1"
_symmetry_int_tables_number       1

loop_
  _symmetry_equiv_pos_as_xyz
  'x, y, z'

loop_
  _atom_site_label
  _atom_site_occupancy
  _atom_site_fract_x
  _atom_site_fract_y
  _atom_site_fract_z
  _atom_site_thermal_displace_type
  _atom_site_B_iso_or_equiv
  _atom_site_type_symbol
  O1       1.0000 0.79585  0.01584  0.02295  Biso   1.000  O
  O2       1.0000 0.69470  0.98169  0.44439  Biso   1.000  O
  O3       1.0000 0.84413  0.01392  0.02906  Biso   1.000  O
  O4       1.0000 0.64637  0.98458  0.44960  Biso   1.000  O
  O5       1.0000 0.94472  0.00970  0.14893  Biso   1.000  O
  O6       1.0000 0.52464  0.01111  0.34708  Biso   1.000  O
  O7       1.0000 0.94310  0.01446  0.19737  Biso   1.000  O
  O8       1.0000 0.52197  0.01798  0.29892  Biso   1.000  O
  N1       1.0000 0.81064  0.03302  0.16020  Biso   1.000  N
  N2       1.0000 0.65874  0.00397  0.31312  Biso   1.000  N
  C1       1.0000 0.69571  0.00208  0.24050  Biso   1.000  C
  C2       1.0000 0.67520  0.99711  0.26276  Biso   1.000  C
  H1       1.0000 0.65629  0.98341  0.25837  Biso   1.000  H
  C3       1.0000 0.78642  0.02394  0.08348  Biso   1.000  C
  H2       1.0000 0.76703  0.02523  0.06982  Biso   1.000  H
  C4       1.0000 0.69238  0.98425  0.38428  Biso   1.000  C
  H3       1.0000 0.71345  0.97968  0.39424  Biso   1.000  H
  C5       1.0000 0.78356  0.02999  0.11353  Biso   1.000  C
  H4       1.0000 0.76250  0.03592  0.12273  Biso   1.000  H
  C6       1.0000 0.69148  0.99021  0.35409  Biso   1.000  C
  H5       1.0000 0.71142  0.98976  0.34126  Biso   1.000  H
  C7       1.0000 0.80858  0.02823  0.13099  Biso   1.000  C
  C8       1.0000 0.66439  0.99679  0.34144  Biso   1.000  C
  C9       1.0000 0.83548  0.02075  0.11925  Biso   1.000  C
  C10      1.0000 0.63900  0.99632  0.35789  Biso   1.000  C
  C11      1.0000 0.83897  0.01428  0.08955  Biso   1.000  C
  H6       1.0000 0.86028  0.00817  0.08102  Biso   1.000  H
  C12      1.0000 0.63915  0.99058  0.38793  Biso   1.000  C
  H7       1.0000 0.61892  0.99113  0.40036  Biso   1.000  H
  C13      1.0000 0.81397  0.01598  0.07121  Biso   1.000  C
  C14      1.0000 0.66644  0.98479  0.40154  Biso   1.000  C
  C15      1.0000 0.81782  0.01412  0.03964  Biso   1.000  C
  C16      1.0000 0.66944  0.98366  0.43321  Biso   1.000  C
  C17      1.0000 0.93006  0.01146  0.17310  Biso   1.000  C
  C18      1.0000 0.53706  0.01474  0.32186  Biso   1.000  C
  C19      1.0000 0.89850  0.01382  0.17172  Biso   1.000  C
  C20      1.0000 0.56878  0.01459  0.31938  Biso   1.000  C
  C21      1.0000 0.88473  0.01324  0.14388  Biso   1.000  C
  H8       1.0000 0.89655  0.00684  0.12429  Biso   1.000  H
  C22      1.0000 0.58647  0.00650  0.34354  Biso   1.000  C
  H9       1.0000 0.57717  0.00276  0.36508  Biso   1.000  H
  C23      1.0000 0.85508  0.02065  0.14234  Biso   1.000  C
  C24      1.0000 0.61651  0.00327  0.33893  Biso   1.000  C
  C25      1.0000 0.83917  0.02830  0.16693  Biso   1.000  C
  C26      1.0000 0.62927  0.00782  0.31184  Biso   1.000  C
  C27      1.0000 0.85212  0.02907  0.19461  Biso   1.000  C
  H10      1.0000 0.83960  0.03469  0.21398  Biso   1.000  H
  C28      1.0000 0.61246  0.01645  0.28776  Biso   1.000  C
  H11      1.0000 0.62230  0.02080  0.26662  Biso   1.000  H
  C29      1.0000 0.88198  0.02197  0.19686  Biso   1.000  C
  H12      1.0000 0.89205  0.02238  0.21838  Biso   1.000  H
  C30      1.0000 0.58205  0.01958  0.29163  Biso   1.000  C
  H13      1.0000 0.56892  0.02612  0.27295  Biso   1.000  H
  C31      1.0000 0.78700  0.03122  0.18015  Biso   1.000  C
  C32      1.0000 0.67936  0.00927  0.29068  Biso   1.000  C
  C33      1.0000 0.78261  0.05267  0.20164  Biso   1.000  C
  H14      1.0000 0.79654  0.07190  0.20230  Biso   1.000  H
  C34      1.0000 0.70402  0.02685  0.29595  Biso   1.000  C
  H15      1.0000 0.70738  0.03666  0.31732  Biso   1.000  H
  C35      1.0000 0.76066  0.04910  0.22272  Biso   1.000  C
  H16      1.0000 0.75773  0.06607  0.23906  Biso   1.000  H
  C36      1.0000 0.72472  0.03152  0.27391  Biso   1.000  C
  H17      1.0000 0.74406  0.04427  0.27911  Biso   1.000  H
  C37      1.0000 0.74308  0.02367  0.22293  Biso   1.000  C
  C38      1.0000 0.72094  0.01907  0.24591  Biso   1.000  C
  C39      1.0000 0.76887  0.00645  0.17943  Biso   1.000  C
  C40      1.0000 0.74719  0.00259  0.20073  Biso   1.000  C
  H18      1.0000 0.73266  0.98224  0.20023  Biso   1.000  H
  H19      1.0000 0.77185  0.98940  0.16138  Biso   1.000  H
  H20      1.0000 0.69207  0.99235  0.21774  Biso   1.000  H
  Cu1      1.0000 0.85130  0.01498  0.98964  Biso   1.000  Cu
  Cu2      1.0000 0.79715  0.01699  0.98241  Biso   1.000  Cu
  O9       1.0000 0.70415  0.98416  0.52295  Biso   1.000  O
  O10      1.0000 0.80530  0.01831  0.94439  Biso   1.000  O
  O11      1.0000 0.65587  0.98608  0.52906  Biso   1.000  O
  O12      1.0000 0.85363  0.01542  0.94960  Biso   1.000  O
  O13      1.0000 0.55528  0.99030  0.64893  Biso   1.000  O
  O14      1.0000 0.97536  0.98889  0.84708  Biso   1.000  O
  O15      1.0000 0.55690  0.98554  0.69737  Biso   1.000  O
  O16      1.0000 0.97803  0.98202  0.79892  Biso   1.000  O
  N3       1.0000 0.68936  0.96698  0.66020  Biso   1.000  N
  N4       1.0000 0.84126  0.99603  0.81312  Biso   1.000  N
  C41      1.0000 0.80429  0.99792  0.74050  Biso   1.000  C
  C42      1.0000 0.82480  0.00289  0.76276  Biso   1.000  C
  H21      1.0000 0.84371  0.01659  0.75837  Biso   1.000  H
  C43      1.0000 0.71358  0.97606  0.58348  Biso   1.000  C
  H22      1.0000 0.73297  0.97477  0.56982  Biso   1.000  H
  C44      1.0000 0.80762  0.01575  0.88428  Biso   1.000  C
  H23      1.0000 0.78655  0.02032  0.89424  Biso   1.000  H
  C45      1.0000 0.71644  0.97001  0.61353  Biso   1.000  C
  H24      1.0000 0.73750  0.96408  0.62273  Biso   1.000  H
  C46      1.0000 0.80852  0.00979  0.85409  Biso   1.000  C
  H25      1.0000 0.78858  0.01024  0.84126  Biso   1.000  H
  C47      1.0000 0.69142  0.97177  0.63099  Biso   1.000  C
  C48      1.0000 0.83561  0.00321  0.84144  Biso   1.000  C
  C49      1.0000 0.66452  0.97925  0.61925  Biso   1.000  C
  C50      1.0000 0.86100  0.00368  0.85789  Biso   1.000  C
  C51      1.0000 0.66103  0.98572  0.58955  Biso   1.000  C
  H26      1.0000 0.63972  0.99183  0.58102  Biso   1.000  H
  C52      1.0000 0.86085  0.00942  0.88793  Biso   1.000  C
  H27      1.0000 0.88108  0.00887  0.90036  Biso   1.000  H
  C53      1.0000 0.68603  0.98402  0.57121  Biso   1.000  C
  C54      1.0000 0.83356  0.01521  0.90154  Biso   1.000  C
  C55      1.0000 0.68218  0.98588  0.53964  Biso   1.000  C
  C56      1.0000 0.83056  0.01634  0.93321  Biso   1.000  C
  C57      1.0000 0.56994  0.98854  0.67310  Biso   1.000  C
  C58      1.0000 0.96294  0.98526  0.82186  Biso   1.000  C
  C59      1.0000 0.60150  0.98618  0.67172  Biso   1.000  C
  C60      1.0000 0.93122  0.98541  0.81938  Biso   1.000  C
  C61      1.0000 0.61527  0.98676  0.64388  Biso   1.000  C
  H28      1.0000 0.60345  0.99316  0.62429  Biso   1.000  H
  C62      1.0000 0.91353  0.99350  0.84354  Biso   1.000  C
  H29      1.0000 0.92283  0.99724  0.86508  Biso   1.000  H
  C63      1.0000 0.64492  0.97935  0.64234  Biso   1.000  C
  C64      1.0000 0.88349  0.99673  0.83893  Biso   1.000  C
  C65      1.0000 0.66083  0.97170  0.66693  Biso   1.000  C
  C66      1.0000 0.87073  0.99218  0.81184  Biso   1.000  C
  C67      1.0000 0.64788  0.97093  0.69461  Biso   1.000  C
  H30      1.0000 0.66040  0.96531  0.71398  Biso   1.000  H
  C68      1.0000 0.88754  0.98355  0.78776  Biso   1.000  C
  H31      1.0000 0.87770  0.97920  0.76662  Biso   1.000  H
  C69      1.0000 0.61802  0.97803  0.69686  Biso   1.000  C
  H32      1.0000 0.60795  0.97762  0.71838  Biso   1.000  H
  C70      1.0000 0.91795  0.98042  0.79163  Biso   1.000  C
  H33      1.0000 0.93108  0.97388  0.77295  Biso   1.000  H
  C71      1.0000 0.71300  0.96878  0.68015  Biso   1.000  C
  C72      1.0000 0.82064  0.99073  0.79068  Biso   1.000  C
  C73      1.0000 0.71739  0.94733  0.70164  Biso   1.000  C
  H34      1.0000 0.70346  0.92810  0.70230  Biso   1.000  H
  C74      1.0000 0.79598  0.97315  0.79595  Biso   1.000  C
  H35      1.0000 0.79262  0.96334  0.81732  Biso   1.000  H
  C75      1.0000 0.73934  0.95090  0.72272  Biso   1.000  C
  H36      1.0000 0.74227  0.93393  0.73906  Biso   1.000  H
  C76      1.0000 0.77528  0.96848  0.77391  Biso   1.000  C
  H37      1.0000 0.75594  0.95573  0.77911  Biso   1.000  H
  C77      1.0000 0.75692  0.97633  0.72293  Biso   1.000  C
  C78      1.0000 0.77906  0.98093  0.74591  Biso   1.000  C
  C79      1.0000 0.73113  0.99355  0.67943  Biso   1.000  C
  C80      1.0000 0.75281  0.99741  0.70073  Biso   1.000  C
  H38      1.0000 0.76734  0.01776  0.70023  Biso   1.000  H
  H39      1.0000 0.72815  0.01060  0.66138  Biso   1.000  H
  H40      1.0000 0.80793  0.00765  0.71774  Biso   1.000  H
  Cu3      1.0000 0.64870  0.98502  0.48964  Biso   1.000  Cu
  Cu4      1.0000 0.70285  0.98301  0.48241  Biso   1.000  Cu
  O17      1.0000 0.20415  0.51584  0.47705  Biso   1.000  O
  O18      1.0000 0.30530  0.48169  0.05561  Biso   1.000  O
  O19      1.0000 0.15587  0.51392  0.47094  Biso   1.000  O
  O20      1.0000 0.35363  0.48458  0.05040  Biso   1.000  O
  O21      1.0000 0.05528  0.50970  0.35107  Biso   1.000  O
  O22      1.0000 0.47536  0.51111  0.15292  Biso   1.000  O
  O23      1.0000 0.05690  0.51446  0.30263  Biso   1.000  O
  O24      1.0000 0.47803  0.51798  0.20108  Biso   1.000  O
  N5       1.0000 0.18936  0.53302  0.33980  Biso   1.000  N
  N6       1.0000 0.34126  0.50397  0.18688  Biso   1.000  N
  C81      1.0000 0.30429  0.50208  0.25950  Biso   1.000  C
  C82      1.0000 0.32480  0.49711  0.23724  Biso   1.000  C
  H41      1.0000 0.34371  0.48341  0.24163  Biso   1.000  H
  C83      1.0000 0.21358  0.52394  0.41652  Biso   1.000  C
  H42      1.0000 0.23297  0.52523  0.43018  Biso   1.000  H
  C84      1.0000 0.30762  0.48425  0.11572  Biso   1.000  C
  H43      1.0000 0.28655  0.47968  0.10576  Biso   1.000  H
  C85      1.0000 0.21644  0.52999  0.38647  Biso   1.000  C
  H44      1.0000 0.23750  0.53592  0.37727  Biso   1.000  H
  C86      1.0000 0.30852  0.49021  0.14591  Biso   1.000  C
  H45      1.0000 0.28858  0.48976  0.15874  Biso   1.000  H
  C87      1.0000 0.19142  0.52823  0.36901  Biso   1.000  C
  C88      1.0000 0.33561  0.49679  0.15856  Biso   1.000  C
  C89      1.0000 0.16452  0.52075  0.38075  Biso   1.000  C
  C90      1.0000 0.36100  0.49632  0.14211  Biso   1.000  C
  C91      1.0000 0.16103  0.51428  0.41045  Biso   1.000  C
  H46      1.0000 0.13972  0.50817  0.41898  Biso   1.000  H
  C92      1.0000 0.36085  0.49058  0.11207  Biso   1.000  C
  H47      1.0000 0.38108  0.49113  0.09964  Biso   1.000  H
  C93      1.0000 0.18603  0.51598  0.42879  Biso   1.000  C
  C94      1.0000 0.33356  0.48479  0.09846  Biso   1.000  C
  C95      1.0000 0.18218  0.51412  0.46036  Biso   1.000  C
  C96      1.0000 0.33056  0.48366  0.06679  Biso   1.000  C
  C97      1.0000 0.06994  0.51146  0.32690  Biso   1.000  C
  C98      1.0000 0.46294  0.51474  0.17814  Biso   1.000  C
  C99      1.0000 0.10150  0.51382  0.32828  Biso   1.000  C
  C100     1.0000 0.43122  0.51459  0.18062  Biso   1.000  C
  C101     1.0000 0.11527  0.51324  0.35612  Biso   1.000  C
  H48      1.0000 0.10345  0.50684  0.37571  Biso   1.000  H
  C102     1.0000 0.41353  0.50650  0.15646  Biso   1.000  C
  H49      1.0000 0.42283  0.50276  0.13492  Biso   1.000  H
  C103     1.0000 0.14492  0.52065  0.35766  Biso   1.000  C
  C104     1.0000 0.38349  0.50327  0.16107  Biso   1.000  C
  C105     1.0000 0.16083  0.52830  0.33307  Biso   1.000  C
  C106     1.0000 0.37073  0.50782  0.18816  Biso   1.000  C
  C107     1.0000 0.14788  0.52907  0.30539  Biso   1.000  C
  H50      1.0000 0.16040  0.53469  0.28602  Biso   1.000  H
  C108     1.0000 0.38754  0.51645  0.21224  Biso   1.000  C
  H51      1.0000 0.37770  0.52080  0.23338  Biso   1.000  H
  C109     1.0000 0.11802  0.52197  0.30314  Biso   1.000  C
  H52      1.0000 0.10795  0.52238  0.28162  Biso   1.000  H
  C110     1.0000 0.41795  0.51958  0.20837  Biso   1.000  C
  H53      1.0000 0.43108  0.52612  0.22705  Biso   1.000  H
  C111     1.0000 0.21300  0.53122  0.31985  Biso   1.000  C
  C112     1.0000 0.32064  0.50927  0.20932  Biso   1.000  C
  C113     1.0000 0.21739  0.55267  0.29836  Biso   1.000  C
  H54      1.0000 0.20346  0.57190  0.29770  Biso   1.000  H
  C114     1.0000 0.29598  0.52685  0.20405  Biso   1.000  C
  H55      1.0000 0.29262  0.53666  0.18268  Biso   1.000  H
  C115     1.0000 0.23934  0.54910  0.27728  Biso   1.000  C
  H56      1.0000 0.24227  0.56607  0.26094  Biso   1.000  H
  C116     1.0000 0.27528  0.53152  0.22609  Biso   1.000  C
  H57      1.0000 0.25594  0.54427  0.22089  Biso   1.000  H
  C117     1.0000 0.25692  0.52367  0.27707  Biso   1.000  C
  C118     1.0000 0.27906  0.51907  0.25409  Biso   1.000  C
  C119     1.0000 0.23113  0.50645  0.32057  Biso   1.000  C
  C120     1.0000 0.25281  0.50259  0.29927  Biso   1.000  C
  H58      1.0000 0.26734  0.48224  0.29977  Biso   1.000  H
  H59      1.0000 0.22815  0.48940  0.33862  Biso   1.000  H
  H60      1.0000 0.30793  0.49235  0.28226  Biso   1.000  H
  Cu5      1.0000 0.14870  0.51498  0.51036  Biso   1.000  Cu
  Cu6      1.0000 0.20285  0.51699  0.51759  Biso   1.000  Cu
  O25      1.0000 0.29585  0.48416  0.97705  Biso   1.000  O
  O26      1.0000 0.19470  0.51831  0.55561  Biso   1.000  O
  O27      1.0000 0.34413  0.48608  0.97094  Biso   1.000  O
  O28      1.0000 0.14637  0.51542  0.55040  Biso   1.000  O
  O29      1.0000 0.44472  0.49030  0.85107  Biso   1.000  O
  O30      1.0000 0.02464  0.48889  0.65292  Biso   1.000  O
  O31      1.0000 0.44310  0.48554  0.80263  Biso   1.000  O
  O32      1.0000 0.02197  0.48202  0.70108  Biso   1.000  O
  N7       1.0000 0.31064  0.46698  0.83980  Biso   1.000  N
  N8       1.0000 0.15874  0.49603  0.68688  Biso   1.000  N
  C121     1.0000 0.19571  0.49792  0.75950  Biso   1.000  C
  C122     1.0000 0.17520  0.50289  0.73724  Biso   1.000  C
  H61      1.0000 0.15629  0.51659  0.74163  Biso   1.000  H
  C123     1.0000 0.28642  0.47606  0.91652  Biso   1.000  C
  H62      1.0000 0.26703  0.47477  0.93018  Biso   1.000  H
  C124     1.0000 0.19238  0.51575  0.61572  Biso   1.000  C
  H63      1.0000 0.21345  0.52032  0.60576  Biso   1.000  H
  C125     1.0000 0.28356  0.47001  0.88647  Biso   1.000  C
  H64      1.0000 0.26250  0.46408  0.87727  Biso   1.000  H
  C126     1.0000 0.19148  0.50979  0.64591  Biso   1.000  C
  H65      1.0000 0.21142  0.51024  0.65874  Biso   1.000  H
  C127     1.0000 0.30858  0.47177  0.86901  Biso   1.000  C
  C128     1.0000 0.16439  0.50321  0.65856  Biso   1.000  C
  C129     1.0000 0.33548  0.47925  0.88075  Biso   1.000  C
  C130     1.0000 0.13900  0.50368  0.64211  Biso   1.000  C
  C131     1.0000 0.33897  0.48572  0.91045  Biso   1.000  C
  H66      1.0000 0.36028  0.49183  0.91898  Biso   1.000  H
  C132     1.0000 0.13915  0.50942  0.61207  Biso   1.000  C
  H67      1.0000 0.11892  0.50887  0.59964  Biso   1.000  H
  C133     1.0000 0.31397  0.48402  0.92879  Biso   1.000  C
  C134     1.0000 0.16644  0.51521  0.59846  Biso   1.000  C
  C135     1.0000 0.31782  0.48588  0.96036  Biso   1.000  C
  C136     1.0000 0.16944  0.51634  0.56679  Biso   1.000  C
  C137     1.0000 0.43006  0.48854  0.82690  Biso   1.000  C
  C138     1.0000 0.03706  0.48526  0.67814  Biso   1.000  C
  C139     1.0000 0.39850  0.48618  0.82828  Biso   1.000  C
  C140     1.0000 0.06878  0.48541  0.68062  Biso   1.000  C
  C141     1.0000 0.38473  0.48676  0.85612  Biso   1.000  C
  H68      1.0000 0.39655  0.49316  0.87571  Biso   1.000  H
  C142     1.0000 0.08647  0.49350  0.65646  Biso   1.000  C
  H69      1.0000 0.07717  0.49724  0.63492  Biso   1.000  H
  C143     1.0000 0.35508  0.47935  0.85766  Biso   1.000  C
  C144     1.0000 0.11651  0.49673  0.66107  Biso   1.000  C
  C145     1.0000 0.33917  0.47170  0.83307  Biso   1.000  C
  C146     1.0000 0.12927  0.49218  0.68816  Biso   1.000  C
  C147     1.0000 0.35212  0.47093  0.80539  Biso   1.000  C
  H70      1.0000 0.33960  0.46531  0.78602  Biso   1.000  H
  C148     1.0000 0.11246  0.48355  0.71224  Biso   1.000  C
  H71      1.0000 0.12230  0.47920  0.73338  Biso   1.000  H
  C149     1.0000 0.38198  0.47803  0.80314  Biso   1.000  C
  H72      1.0000 0.39205  0.47762  0.78162  Biso   1.000  H
  C150     1.0000 0.08205  0.48042  0.70837  Biso   1.000  C
  H73      1.0000 0.06892  0.47388  0.72705  Biso   1.000  H
  C151     1.0000 0.28700  0.46878  0.81985  Biso   1.000  C
  C152     1.0000 0.17936  0.49073  0.70932  Biso   1.000  C
  C153     1.0000 0.28261  0.44733  0.79836  Biso   1.000  C
  H74      1.0000 0.29654  0.42810  0.79770  Biso   1.000  H
  C154     1.0000 0.20402  0.47315  0.70405  Biso   1.000  C
  H75      1.0000 0.20738  0.46334  0.68268  Biso   1.000  H
  C155     1.0000 0.26066  0.45090  0.77728  Biso   1.000  C
  H76      1.0000 0.25773  0.43393  0.76094  Biso   1.000  H
  C156     1.0000 0.22472  0.46848  0.72609  Biso   1.000  C
  H77      1.0000 0.24406  0.45573  0.72089  Biso   1.000  H
  C157     1.0000 0.24308  0.47633  0.77707  Biso   1.000  C
  C158     1.0000 0.22094  0.48093  0.75409  Biso   1.000  C
  C159     1.0000 0.26887  0.49355  0.82057  Biso   1.000  C
  C160     1.0000 0.24719  0.49741  0.79927  Biso   1.000  C
  H78      1.0000 0.23266  0.51776  0.79977  Biso   1.000  H
  H79      1.0000 0.27185  0.51060  0.83862  Biso   1.000  H
  H80      1.0000 0.19207  0.50765  0.78226  Biso   1.000  H
  Cu7      1.0000 0.35130  0.48502  0.01036  Biso   1.000  Cu
  Cu8      1.0000 0.29715  0.48301  0.01759  Biso   1.000  Cu
  O33      1.0000 0.02295  0.79585  0.01584  Biso   1.000  O
  O34      1.0000 0.44439  0.69470  0.98169  Biso   1.000  O
  O35      1.0000 0.02906  0.84413  0.01392  Biso   1.000  O
  O36      1.0000 0.44960  0.64637  0.98458  Biso   1.000  O
  O37      1.0000 0.14893  0.94472  0.00970  Biso   1.000  O
  O38      1.0000 0.34708  0.52464  0.01111  Biso   1.000  O
  O39      1.0000 0.19737  0.94310  0.01446  Biso   1.000  O
  O40      1.0000 0.29892  0.52197  0.01798  Biso   1.000  O
  N9       1.0000 0.16020  0.81064  0.03302  Biso   1.000  N
  N10      1.0000 0.31312  0.65874  0.00397  Biso   1.000  N
  C161     1.0000 0.24050  0.69571  0.00208  Biso   1.000  C
  C162     1.0000 0.26276  0.67520  0.99711  Biso   1.000  C
  H81      1.0000 0.25837  0.65629  0.98341  Biso   1.000  H
  C163     1.0000 0.08348  0.78642  0.02394  Biso   1.000  C
  H82      1.0000 0.06982  0.76703  0.02523  Biso   1.000  H
  C164     1.0000 0.38428  0.69238  0.98425  Biso   1.000  C
  H83      1.0000 0.39424  0.71345  0.97968  Biso   1.000  H
  C165     1.0000 0.11353  0.78356  0.02999  Biso   1.000  C
  H84      1.0000 0.12273  0.76250  0.03592  Biso   1.000  H
  C166     1.0000 0.35409  0.69148  0.99021  Biso   1.000  C
  H85      1.0000 0.34126  0.71142  0.98976  Biso   1.000  H
  C167     1.0000 0.13099  0.80858  0.02823  Biso   1.000  C
  C168     1.0000 0.34144  0.66439  0.99679  Biso   1.000  C
  C169     1.0000 0.11925  0.83548  0.02075  Biso   1.000  C
  C170     1.0000 0.35789  0.63900  0.99632  Biso   1.000  C
  C171     1.0000 0.08955  0.83897  0.01428  Biso   1.000  C
  H86      1.0000 0.08102  0.86028  0.00817  Biso   1.000  H
  C172     1.0000 0.38793  0.63915  0.99058  Biso   1.000  C
  H87      1.0000 0.40036  0.61892  0.99113  Biso   1.000  H
  C173     1.0000 0.07121  0.81397  0.01598  Biso   1.000  C
  C174     1.0000 0.40154  0.66644  0.98479  Biso   1.000  C
  C175     1.0000 0.03964  0.81782  0.01412  Biso   1.000  C
  C176     1.0000 0.43321  0.66944  0.98366  Biso   1.000  C
  C177     1.0000 0.17310  0.93006  0.01146  Biso   1.000  C
  C178     1.0000 0.32186  0.53706  0.01474  Biso   1.000  C
  C179     1.0000 0.17172  0.89850  0.01382  Biso   1.000  C
  C180     1.0000 0.31938  0.56878  0.01459  Biso   1.000  C
  C181     1.0000 0.14388  0.88473  0.01324  Biso   1.000  C
  H88      1.0000 0.12429  0.89655  0.00684  Biso   1.000  H
  C182     1.0000 0.34354  0.58647  0.00650  Biso   1.000  C
  H89      1.0000 0.36508  0.57717  0.00276  Biso   1.000  H
  C183     1.0000 0.14234  0.85508  0.02065  Biso   1.000  C
  C184     1.0000 0.33893  0.61651  0.00327  Biso   1.000  C
  C185     1.0000 0.16693  0.83917  0.02830  Biso   1.000  C
  C186     1.0000 0.31184  0.62927  0.00782  Biso   1.000  C
  C187     1.0000 0.19461  0.85212  0.02907  Biso   1.000  C
  H90      1.0000 0.21398  0.83960  0.03469  Biso   1.000  H
  C188     1.0000 0.28776  0.61246  0.01645  Biso   1.000  C
  H91      1.0000 0.26662  0.62230  0.02080  Biso   1.000  H
  C189     1.0000 0.19686  0.88198  0.02197  Biso   1.000  C
  H92      1.0000 0.21838  0.89205  0.02238  Biso   1.000  H
  C190     1.0000 0.29163  0.58205  0.01958  Biso   1.000  C
  H93      1.0000 0.27295  0.56892  0.02612  Biso   1.000  H
  C191     1.0000 0.18015  0.78700  0.03122  Biso   1.000  C
  C192     1.0000 0.29068  0.67936  0.00927  Biso   1.000  C
  C193     1.0000 0.20164  0.78261  0.05267  Biso   1.000  C
  H94      1.0000 0.20230  0.79654  0.07190  Biso   1.000  H
  C194     1.0000 0.29595  0.70402  0.02685  Biso   1.000  C
  H95      1.0000 0.31732  0.70738  0.03666  Biso   1.000  H
  C195     1.0000 0.22272  0.76066  0.04910  Biso   1.000  C
  H96      1.0000 0.23906  0.75773  0.06607  Biso   1.000  H
  C196     1.0000 0.27391  0.72472  0.03152  Biso   1.000  C
  H97      1.0000 0.27911  0.74406  0.04427  Biso   1.000  H
  C197     1.0000 0.22293  0.74308  0.02367  Biso   1.000  C
  C198     1.0000 0.24591  0.72094  0.01907  Biso   1.000  C
  C199     1.0000 0.17943  0.76887  0.00645  Biso   1.000  C
  C200     1.0000 0.20073  0.74719  0.00259  Biso   1.000  C
  H98      1.0000 0.20023  0.73266  0.98224  Biso   1.000  H
  H99      1.0000 0.16138  0.77185  0.98940  Biso   1.000  H
  H100     1.0000 0.21774  0.69207  0.99235  Biso   1.000  H
  Cu9      1.0000 0.98964  0.85130  0.01498  Biso   1.000  Cu
  Cu10     1.0000 0.98241  0.79715  0.01699  Biso   1.000  Cu
  O41      1.0000 0.52295  0.70415  0.98416  Biso   1.000  O
  O42      1.0000 0.94439  0.80530  0.01831  Biso   1.000  O
  O43      1.0000 0.52906  0.65587  0.98608  Biso   1.000  O
  O44      1.0000 0.94960  0.85363  0.01542  Biso   1.000  O
  O45      1.0000 0.64893  0.55528  0.99030  Biso   1.000  O
  O46      1.0000 0.84708  0.97536  0.98889  Biso   1.000  O
  O47      1.0000 0.69737  0.55690  0.98554  Biso   1.000  O
  O48      1.0000 0.79892  0.97803  0.98202  Biso   1.000  O
  N11      1.0000 0.66020  0.68936  0.96698  Biso   1.000  N
  N12      1.0000 0.81312  0.84126  0.99603  Biso   1.000  N
  C201     1.0000 0.74050  0.80429  0.99792  Biso   1.000  C
  C202     1.0000 0.76276  0.82480  0.00289  Biso   1.000  C
  H101     1.0000 0.75837  0.84371  0.01659  Biso   1.000  H
  C203     1.0000 0.58348  0.71358  0.97606  Biso   1.000  C
  H102     1.0000 0.56982  0.73297  0.97477  Biso   1.000  H
  C204     1.0000 0.88428  0.80762  0.01575  Biso   1.000  C
  H103     1.0000 0.89424  0.78655  0.02032  Biso   1.000  H
  C205     1.0000 0.61353  0.71644  0.97001  Biso   1.000  C
  H104     1.0000 0.62273  0.73750  0.96408  Biso   1.000  H
  C206     1.0000 0.85409  0.80852  0.00979  Biso   1.000  C
  H105     1.0000 0.84126  0.78858  0.01024  Biso   1.000  H
  C207     1.0000 0.63099  0.69142  0.97177  Biso   1.000  C
  C208     1.0000 0.84144  0.83561  0.00321  Biso   1.000  C
  C209     1.0000 0.61925  0.66452  0.97925  Biso   1.000  C
  C210     1.0000 0.85789  0.86100  0.00368  Biso   1.000  C
  C211     1.0000 0.58955  0.66103  0.98572  Biso   1.000  C
  H106     1.0000 0.58102  0.63972  0.99183  Biso   1.000  H
  C212     1.0000 0.88793  0.86085  0.00942  Biso   1.000  C
  H107     1.0000 0.90036  0.88108  0.00887  Biso   1.000  H
  C213     1.0000 0.57121  0.68603  0.98402  Biso   1.000  C
  C214     1.0000 0.90154  0.83356  0.01521  Biso   1.000  C
  C215     1.0000 0.53964  0.68218  0.98588  Biso   1.000  C
  C216     1.0000 0.93321  0.83056  0.01634  Biso   1.000  C
  C217     1.0000 0.67310  0.56994  0.98854  Biso   1.000  C
  C218     1.0000 0.82186  0.96294  0.98526  Biso   1.000  C
  C219     1.0000 0.67172  0.60150  0.98618  Biso   1.000  C
  C220     1.0000 0.81938  0.93122  0.98541  Biso   1.000  C
  C221     1.0000 0.64388  0.61527  0.98676  Biso   1.000  C
  H108     1.0000 0.62429  0.60345  0.99316  Biso   1.000  H
  C222     1.0000 0.84354  0.91353  0.99350  Biso   1.000  C
  H109     1.0000 0.86508  0.92283  0.99724  Biso   1.000  H
  C223     1.0000 0.64234  0.64492  0.97935  Biso   1.000  C
  C224     1.0000 0.83893  0.88349  0.99673  Biso   1.000  C
  C225     1.0000 0.66693  0.66083  0.97170  Biso   1.000  C
  C226     1.0000 0.81184  0.87073  0.99218  Biso   1.000  C
  C227     1.0000 0.69461  0.64788  0.97093  Biso   1.000  C
  H110     1.0000 0.71398  0.66040  0.96531  Biso   1.000  H
  C228     1.0000 0.78776  0.88754  0.98355  Biso   1.000  C
  H111     1.0000 0.76662  0.87770  0.97920  Biso   1.000  H
  C229     1.0000 0.69686  0.61802  0.97803  Biso   1.000  C
  H112     1.0000 0.71838  0.60795  0.97762  Biso   1.000  H
  C230     1.0000 0.79163  0.91795  0.98042  Biso   1.000  C
  H113     1.0000 0.77295  0.93108  0.97388  Biso   1.000  H
  C231     1.0000 0.68015  0.71300  0.96878  Biso   1.000  C
  C232     1.0000 0.79068  0.82064  0.99073  Biso   1.000  C
  C233     1.0000 0.70164  0.71739  0.94733  Biso   1.000  C
  H114     1.0000 0.70230  0.70346  0.92810  Biso   1.000  H
  C234     1.0000 0.79595  0.79598  0.97315  Biso   1.000  C
  H115     1.0000 0.81732  0.79262  0.96334  Biso   1.000  H
  C235     1.0000 0.72272  0.73934  0.95090  Biso   1.000  C
  H116     1.0000 0.73906  0.74227  0.93393  Biso   1.000  H
  C236     1.0000 0.77391  0.77528  0.96848  Biso   1.000  C
  H117     1.0000 0.77911  0.75594  0.95573  Biso   1.000  H
  C237     1.0000 0.72293  0.75692  0.97633  Biso   1.000  C
  C238     1.0000 0.74591  0.77906  0.98093  Biso   1.000  C
  C239     1.0000 0.67943  0.73113  0.99355  Biso   1.000  C
  C240     1.0000 0.70073  0.75281  0.99741  Biso   1.000  C
  H118     1.0000 0.70023  0.76734  0.01776  Biso   1.000  H
  H119     1.0000 0.66138  0.72815  0.01060  Biso   1.000  H
  H120     1.0000 0.71774  0.80793  0.00765  Biso   1.000  H
  Cu11     1.0000 0.48964  0.64870  0.98502  Biso   1.000  Cu
  Cu12     1.0000 0.48241  0.70285  0.98301  Biso   1.000  Cu
  O49      1.0000 0.47705  0.20415  0.51584  Biso   1.000  O
  O50      1.0000 0.05561  0.30530  0.48169  Biso   1.000  O
  O51      1.0000 0.47094  0.15587  0.51392  Biso   1.000  O
  O52      1.0000 0.05040  0.35363  0.48458  Biso   1.000  O
  O53      1.0000 0.35107  0.05528  0.50970  Biso   1.000  O
  O54      1.0000 0.15292  0.47536  0.51111  Biso   1.000  O
  O55      1.0000 0.30263  0.05690  0.51446  Biso   1.000  O
  O56      1.0000 0.20108  0.47803  0.51798  Biso   1.000  O
  N13      1.0000 0.33980  0.18936  0.53302  Biso   1.000  N
  N14      1.0000 0.18688  0.34126  0.50397  Biso   1.000  N
  C241     1.0000 0.25950  0.30429  0.50208  Biso   1.000  C
  C242     1.0000 0.23724  0.32480  0.49711  Biso   1.000  C
  H121     1.0000 0.24163  0.34371  0.48341  Biso   1.000  H
  C243     1.0000 0.41652  0.21358  0.52394  Biso   1.000  C
  H122     1.0000 0.43018  0.23297  0.52523  Biso   1.000  H
  C244     1.0000 0.11572  0.30762  0.48425  Biso   1.000  C
  H123     1.0000 0.10576  0.28655  0.47968  Biso   1.000  H
  C245     1.0000 0.38647  0.21644  0.52999  Biso   1.000  C
  H124     1.0000 0.37727  0.23750  0.53592  Biso   1.000  H
  C246     1.0000 0.14591  0.30852  0.49021  Biso   1.000  C
  H125     1.0000 0.15874  0.28858  0.48976  Biso   1.000  H
  C247     1.0000 0.36901  0.19142  0.52823  Biso   1.000  C
  C248     1.0000 0.15856  0.33561  0.49679  Biso   1.000  C
  C249     1.0000 0.38075  0.16452  0.52075  Biso   1.000  C
  C250     1.0000 0.14211  0.36100  0.49632  Biso   1.000  C
  C251     1.0000 0.41045  0.16103  0.51428  Biso   1.000  C
  H126     1.0000 0.41898  0.13972  0.50817  Biso   1.000  H
  C252     1.0000 0.11207  0.36085  0.49058  Biso   1.000  C
  H127     1.0000 0.09964  0.38108  0.49113  Biso   1.000  H
  C253     1.0000 0.42879  0.18603  0.51598  Biso   1.000  C
  C254     1.0000 0.09846  0.33356  0.48479  Biso   1.000  C
  C255     1.0000 0.46036  0.18218  0.51412  Biso   1.000  C
  C256     1.0000 0.06679  0.33056  0.48366  Biso   1.000  C
  C257     1.0000 0.32690  0.06994  0.51146  Biso   1.000  C
  C258     1.0000 0.17814  0.46294  0.51474  Biso   1.000  C
  C259     1.0000 0.32828  0.10150  0.51382  Biso   1.000  C
  C260     1.0000 0.18062  0.43122  0.51459  Biso   1.000  C
  C261     1.0000 0.35612  0.11527  0.51324  Biso   1.000  C
  H128     1.0000 0.37571  0.10345  0.50684  Biso   1.000  H
  C262     1.0000 0.15646  0.41353  0.50650  Biso   1.000  C
  H129     1.0000 0.13492  0.42283  0.50276  Biso   1.000  H
  C263     1.0000 0.35766  0.14492  0.52065  Biso   1.000  C
  C264     1.0000 0.16107  0.38349  0.50327  Biso   1.000  C
  C265     1.0000 0.33307  0.16083  0.52830  Biso   1.000  C
  C266     1.0000 0.18816  0.37073  0.50782  Biso   1.000  C
  C267     1.0000 0.30539  0.14788  0.52907  Biso   1.000  C
  H130     1.0000 0.28602  0.16040  0.53469  Biso   1.000  H
  C268     1.0000 0.21224  0.38754  0.51645  Biso   1.000  C
  H131     1.0000 0.23338  0.37770  0.52080  Biso   1.000  H
  C269     1.0000 0.30314  0.11802  0.52197  Biso   1.000  C
  H132     1.0000 0.28162  0.10795  0.52238  Biso   1.000  H
  C270     1.0000 0.20837  0.41795  0.51958  Biso   1.000  C
  H133     1.0000 0.22705  0.43108  0.52612  Biso   1.000  H
  C271     1.0000 0.31985  0.21300  0.53122  Biso   1.000  C
  C272     1.0000 0.20932  0.32064  0.50927  Biso   1.000  C
  C273     1.0000 0.29836  0.21739  0.55267  Biso   1.000  C
  H134     1.0000 0.29770  0.20346  0.57190  Biso   1.000  H
  C274     1.0000 0.20405  0.29598  0.52685  Biso   1.000  C
  H135     1.0000 0.18268  0.29262  0.53666  Biso   1.000  H
  C275     1.0000 0.27728  0.23934  0.54910  Biso   1.000  C
  H136     1.0000 0.26094  0.24227  0.56607  Biso   1.000  H
  C276     1.0000 0.22609  0.27528  0.53152  Biso   1.000  C
  H137     1.0000 0.22089  0.25594  0.54427  Biso   1.000  H
  C277     1.0000 0.27707  0.25692  0.52367  Biso   1.000  C
  C278     1.0000 0.25409  0.27906  0.51907  Biso   1.000  C
  C279     1.0000 0.32057  0.23113  0.50645  Biso   1.000  C
  C280     1.0000 0.29927  0.25281  0.50259  Biso   1.000  C
  H138     1.0000 0.29977  0.26734  0.48224  Biso   1.000  H
  H139     1.0000 0.33862  0.22815  0.48940  Biso   1.000  H
  H140     1.0000 0.28226  0.30793  0.49235  Biso   1.000  H
  Cu13     1.0000 0.51036  0.14870  0.51498  Biso   1.000  Cu
  Cu14     1.0000 0.51759  0.20285  0.51699  Biso   1.000  Cu
  O57      1.0000 0.97705  0.29585  0.48416  Biso   1.000  O
  O58      1.0000 0.55561  0.19470  0.51831  Biso   1.000  O
  O59      1.0000 0.97094  0.34413  0.48608  Biso   1.000  O
  O60      1.0000 0.55040  0.14637  0.51542  Biso   1.000  O
  O61      1.0000 0.85107  0.44472  0.49030  Biso   1.000  O
  O62      1.0000 0.65292  0.02464  0.48889  Biso   1.000  O
  O63      1.0000 0.80263  0.44310  0.48554  Biso   1.000  O
  O64      1.0000 0.70108  0.02197  0.48202  Biso   1.000  O
  N15      1.0000 0.83980  0.31064  0.46698  Biso   1.000  N
  N16      1.0000 0.68688  0.15874  0.49603  Biso   1.000  N
  C281     1.0000 0.75950  0.19571  0.49792  Biso   1.000  C
  C282     1.0000 0.73724  0.17520  0.50289  Biso   1.000  C
  H141     1.0000 0.74163  0.15629  0.51659  Biso   1.000  H
  C283     1.0000 0.91652  0.28642  0.47606  Biso   1.000  C
  H142     1.0000 0.93018  0.26703  0.47477  Biso   1.000  H
  C284     1.0000 0.61572  0.19238  0.51575  Biso   1.000  C
  H143     1.0000 0.60576  0.21345  0.52032  Biso   1.000  H
  C285     1.0000 0.88647  0.28356  0.47001  Biso   1.000  C
  H144     1.0000 0.87727  0.26250  0.46408  Biso   1.000  H
  C286     1.0000 0.64591  0.19148  0.50979  Biso   1.000  C
  H145     1.0000 0.65874  0.21142  0.51024  Biso   1.000  H
  C287     1.0000 0.86901  0.30858  0.47177  Biso   1.000  C
  C288     1.0000 0.65856  0.16439  0.50321  Biso   1.000  C
  C289     1.0000 0.88075  0.33548  0.47925  Biso   1.000  C
  C290     1.0000 0.64211  0.13900  0.50368  Biso   1.000  C
  C291     1.0000 0.91045  0.33897  0.48572  Biso   1.000  C
  H146     1.0000 0.91898  0.36028  0.49183  Biso   1.000  H
  C292     1.0000 0.61207  0.13915  0.50942  Biso   1.000  C
  H147     1.0000 0.59964  0.11892  0.50887  Biso   1.000  H
  C293     1.0000 0.92879  0.31397  0.48402  Biso   1.000  C
  C294     1.0000 0.59846  0.16644  0.51521  Biso   1.000  C
  C295     1.0000 0.96036  0.31782  0.48588  Biso   1.000  C
  C296     1.0000 0.56679  0.16944  0.51634  Biso   1.000  C
  C297     1.0000 0.82690  0.43006  0.48854  Biso   1.000  C
  C298     1.0000 0.67814  0.03706  0.48526  Biso   1.000  C
  C299     1.0000 0.82828  0.39850  0.48618  Biso   1.000  C
  C300     1.0000 0.68062  0.06878  0.48541  Biso   1.000  C
  C301     1.0000 0.85612  0.38473  0.48676  Biso   1.000  C
  H148     1.0000 0.87571  0.39655  0.49316  Biso   1.000  H
  C302     1.0000 0.65646  0.08647  0.49350  Biso   1.000  C
  H149     1.0000 0.63492  0.07717  0.49724  Biso   1.000  H
  C303     1.0000 0.85766  0.35508  0.47935  Biso   1.000  C
  C304     1.0000 0.66107  0.11651  0.49673  Biso   1.000  C
  C305     1.0000 0.83307  0.33917  0.47170  Biso   1.000  C
  C306     1.0000 0.68816  0.12927  0.49218  Biso   1.000  C
  C307     1.0000 0.80539  0.35212  0.47093  Biso   1.000  C
  H150     1.0000 0.78602  0.33960  0.46531  Biso   1.000  H
  C308     1.0000 0.71224  0.11246  0.48355  Biso   1.000  C
  H151     1.0000 0.73338  0.12230  0.47920  Biso   1.000  H
  C309     1.0000 0.80314  0.38198  0.47803  Biso   1.000  C
  H152     1.0000 0.78162  0.39205  0.47762  Biso   1.000  H
  C310     1.0000 0.70837  0.08205  0.48042  Biso   1.000  C
  H153     1.0000 0.72705  0.06892  0.47388  Biso   1.000  H
  C311     1.0000 0.81985  0.28700  0.46878  Biso   1.000  C
  C312     1.0000 0.70932  0.17936  0.49073  Biso   1.000  C
  C313     1.0000 0.79836  0.28261  0.44733  Biso   1.000  C
  H154     1.0000 0.79770  0.29654  0.42810  Biso   1.000  H
  C314     1.0000 0.70405  0.20402  0.47315  Biso   1.000  C
  H155     1.0000 0.68268  0.20738  0.46334  Biso   1.000  H
  C315     1.0000 0.77728  0.26066  0.45090  Biso   1.000  C
  H156     1.0000 0.76094  0.25773  0.43393  Biso   1.000  H
  C316     1.0000 0.72609  0.22472  0.46848  Biso   1.000  C
  H157     1.0000 0.72089  0.24406  0.45573  Biso   1.000  H
  C317     1.0000 0.77707  0.24308  0.47633  Biso   1.000  C
  C318     1.0000 0.75409  0.22094  0.48093  Biso   1.000  C
  C319     1.0000 0.82057  0.26887  0.49355  Biso   1.000  C
  C320     1.0000 0.79927  0.24719  0.49741  Biso   1.000  C
  H158     1.0000 0.79977  0.23266  0.51776  Biso   1.000  H
  H159     1.0000 0.83862  0.27185  0.51060  Biso   1.000  H
  H160     1.0000 0.78226  0.19207  0.50765  Biso   1.000  H
  Cu15     1.0000 0.01036  0.35130  0.48502  Biso   1.000  Cu
  Cu16     1.0000 0.01759  0.29715  0.48301  Biso   1.000  Cu
  O65      1.0000 0.01584  0.02295  0.79585  Biso   1.000  O
  O66      1.0000 0.98169  0.44439  0.69470  Biso   1.000  O
  O67      1.0000 0.01392  0.02906  0.84413  Biso   1.000  O
  O68      1.0000 0.98458  0.44960  0.64637  Biso   1.000  O
  O69      1.0000 0.00970  0.14893  0.94472  Biso   1.000  O
  O70      1.0000 0.01111  0.34708  0.52464  Biso   1.000  O
  O71      1.0000 0.01446  0.19737  0.94310  Biso   1.000  O
  O72      1.0000 0.01798  0.29892  0.52197  Biso   1.000  O
  N17      1.0000 0.03302  0.16020  0.81064  Biso   1.000  N
  N18      1.0000 0.00397  0.31312  0.65874  Biso   1.000  N
  C321     1.0000 0.00208  0.24050  0.69571  Biso   1.000  C
  C322     1.0000 0.99711  0.26276  0.67520  Biso   1.000  C
  H161     1.0000 0.98341  0.25837  0.65629  Biso   1.000  H
  C323     1.0000 0.02394  0.08348  0.78642  Biso   1.000  C
  H162     1.0000 0.02523  0.06982  0.76703  Biso   1.000  H
  C324     1.0000 0.98425  0.38428  0.69238  Biso   1.000  C
  H163     1.0000 0.97968  0.39424  0.71345  Biso   1.000  H
  C325     1.0000 0.02999  0.11353  0.78356  Biso   1.000  C
  H164     1.0000 0.03592  0.12273  0.76250  Biso   1.000  H
  C326     1.0000 0.99021  0.35409  0.69148  Biso   1.000  C
  H165     1.0000 0.98976  0.34126  0.71142  Biso   1.000  H
  C327     1.0000 0.02823  0.13099  0.80858  Biso   1.000  C
  C328     1.0000 0.99679  0.34144  0.66439  Biso   1.000  C
  C329     1.0000 0.02075  0.11925  0.83548  Biso   1.000  C
  C330     1.0000 0.99632  0.35789  0.63900  Biso   1.000  C
  C331     1.0000 0.01428  0.08955  0.83897  Biso   1.000  C
  H166     1.0000 0.00817  0.08102  0.86028  Biso   1.000  H
  C332     1.0000 0.99058  0.38793  0.63915  Biso   1.000  C
  H167     1.0000 0.99113  0.40036  0.61892  Biso   1.000  H
  C333     1.0000 0.01598  0.07121  0.81397  Biso   1.000  C
  C334     1.0000 0.98479  0.40154  0.66644  Biso   1.000  C
  C335     1.0000 0.01412  0.03964  0.81782  Biso   1.000  C
  C336     1.0000 0.98366  0.43321  0.66944  Biso   1.000  C
  C337     1.0000 0.01146  0.17310  0.93006  Biso   1.000  C
  C338     1.0000 0.01474  0.32186  0.53706  Biso   1.000  C
  C339     1.0000 0.01382  0.17172  0.89850  Biso   1.000  C
  C340     1.0000 0.01459  0.31938  0.56878  Biso   1.000  C
  C341     1.0000 0.01324  0.14388  0.88473  Biso   1.000  C
  H168     1.0000 0.00684  0.12429  0.89655  Biso   1.000  H
  C342     1.0000 0.00650  0.34354  0.58647  Biso   1.000  C
  H169     1.0000 0.00276  0.36508  0.57717  Biso   1.000  H
  C343     1.0000 0.02065  0.14234  0.85508  Biso   1.000  C
  C344     1.0000 0.00327  0.33893  0.61651  Biso   1.000  C
  C345     1.0000 0.02830  0.16693  0.83917  Biso   1.000  C
  C346     1.0000 0.00782  0.31184  0.62927  Biso   1.000  C
  C347     1.0000 0.02907  0.19461  0.85212  Biso   1.000  C
  H170     1.0000 0.03469  0.21398  0.83960  Biso   1.000  H
  C348     1.0000 0.01645  0.28776  0.61246  Biso   1.000  C
  H171     1.0000 0.02080  0.26662  0.62230  Biso   1.000  H
  C349     1.0000 0.02197  0.19686  0.88198  Biso   1.000  C
  H172     1.0000 0.02238  0.21838  0.89205  Biso   1.000  H
  C350     1.0000 0.01958  0.29163  0.58205  Biso   1.000  C
  H173     1.0000 0.02612  0.27295  0.56892  Biso   1.000  H
  C351     1.0000 0.03122  0.18015  0.78700  Biso   1.000  C
  C352     1.0000 0.00927  0.29068  0.67936  Biso   1.000  C
  C353     1.0000 0.05267  0.20164  0.78261  Biso   1.000  C
  H174     1.0000 0.07190  0.20230  0.79654  Biso   1.000  H
  C354     1.0000 0.02685  0.29595  0.70402  Biso   1.000  C
  H175     1.0000 0.03666  0.31732  0.70738  Biso   1.000  H
  C355     1.0000 0.04910  0.22272  0.76066  Biso   1.000  C
  H176     1.0000 0.06607  0.23906  0.75773  Biso   1.000  H
  C356     1.0000 0.03152  0.27391  0.72472  Biso   1.000  C
  H177     1.0000 0.04427  0.27911  0.74406  Biso   1.000  H
  C357     1.0000 0.02367  0.22293  0.74308  Biso   1.000  C
  C358     1.0000 0.01907  0.24591  0.72094  Biso   1.000  C
  C359     1.0000 0.00645  0.17943  0.76887  Biso   1.000  C
  C360     1.0000 0.00259  0.20073  0.74719  Biso   1.000  C
  H178     1.0000 0.98224  0.20023  0.73266  Biso   1.000  H
  H179     1.0000 0.98940  0.16138  0.77185  Biso   1.000  H
  H180     1.0000 0.99235  0.21774  0.69207  Biso   1.000  H
  Cu17     1.0000 0.01498  0.98964  0.85130  Biso   1.000  Cu
  Cu18     1.0000 0.01699  0.98241  0.79715  Biso   1.000  Cu
  O73      1.0000 0.98416  0.52295  0.70415  Biso   1.000  O
  O74      1.0000 0.01831  0.94439  0.80530  Biso   1.000  O
  O75      1.0000 0.98608  0.52906  0.65587  Biso   1.000  O
  O76      1.0000 0.01542  0.94960  0.85363  Biso   1.000  O
  O77      1.0000 0.99030  0.64893  0.55528  Biso   1.000  O
  O78      1.0000 0.98889  0.84708  0.97536  Biso   1.000  O
  O79      1.0000 0.98554  0.69737  0.55690  Biso   1.000  O
  O80      1.0000 0.98202  0.79892  0.97803  Biso   1.000  O
  N19      1.0000 0.96698  0.66020  0.68936  Biso   1.000  N
  N20      1.0000 0.99603  0.81312  0.84126  Biso   1.000  N
  C361     1.0000 0.99792  0.74050  0.80429  Biso   1.000  C
  C362     1.0000 0.00289  0.76276  0.82480  Biso   1.000  C
  H181     1.0000 0.01659  0.75837  0.84371  Biso   1.000  H
  C363     1.0000 0.97606  0.58348  0.71358  Biso   1.000  C
  H182     1.0000 0.97477  0.56982  0.73297  Biso   1.000  H
  C364     1.0000 0.01575  0.88428  0.80762  Biso   1.000  C
  H183     1.0000 0.02032  0.89424  0.78655  Biso   1.000  H
  C365     1.0000 0.97001  0.61353  0.71644  Biso   1.000  C
  H184     1.0000 0.96408  0.62273  0.73750  Biso   1.000  H
  C366     1.0000 0.00979  0.85409  0.80852  Biso   1.000  C
  H185     1.0000 0.01024  0.84126  0.78858  Biso   1.000  H
  C367     1.0000 0.97177  0.63099  0.69142  Biso   1.000  C
  C368     1.0000 0.00321  0.84144  0.83561  Biso   1.000  C
  C369     1.0000 0.97925  0.61925  0.66452  Biso   1.000  C
  C370     1.0000 0.00368  0.85789  0.86100  Biso   1.000  C
  C371     1.0000 0.98572  0.58955  0.66103  Biso   1.000  C
  H186     1.0000 0.99183  0.58102  0.63972  Biso   1.000  H
  C372     1.0000 0.00942  0.88793  0.86085  Biso   1.000  C
  H187     1.0000 0.00887  0.90036  0.88108  Biso   1.000  H
  C373     1.0000 0.98402  0.57121  0.68603  Biso   1.000  C
  C374     1.0000 0.01521  0.90154  0.83356  Biso   1.000  C
  C375     1.0000 0.98588  0.53964  0.68218  Biso   1.000  C
  C376     1.0000 0.01634  0.93321  0.83056  Biso   1.000  C
  C377     1.0000 0.98854  0.67310  0.56994  Biso   1.000  C
  C378     1.0000 0.98526  0.82186  0.96294  Biso   1.000  C
  C379     1.0000 0.98618  0.67172  0.60150  Biso   1.000  C
  C380     1.0000 0.98541  0.81938  0.93122  Biso   1.000  C
  C381     1.0000 0.98676  0.64388  0.61527  Biso   1.000  C
  H188     1.0000 0.99316  0.62429  0.60345  Biso   1.000  H
  C382     1.0000 0.99350  0.84354  0.91353  Biso   1.000  C
  H189     1.0000 0.99724  0.86508  0.92283  Biso   1.000  H
  C383     1.0000 0.97935  0.64234  0.64492  Biso   1.000  C
  C384     1.0000 0.99673  0.83893  0.88349  Biso   1.000  C
  C385     1.0000 0.97170  0.66693  0.66083  Biso   1.000  C
  C386     1.0000 0.99218  0.81184  0.87073  Biso   1.000  C
  C387     1.0000 0.97093  0.69461  0.64788  Biso   1.000  C
  H190     1.0000 0.96531  0.71398  0.66040  Biso   1.000  H
  C388     1.0000 0.98355  0.78776  0.88754  Biso   1.000  C
  H191     1.0000 0.97920  0.76662  0.87770  Biso   1.000  H
  C389     1.0000 0.97803  0.69686  0.61802  Biso   1.000  C
  H192     1.0000 0.97762  0.71838  0.60795  Biso   1.000  H
  C390     1.0000 0.98042  0.79163  0.91795  Biso   1.000  C
  H193     1.0000 0.97388  0.77295  0.93108  Biso   1.000  H
  C391     1.0000 0.96878  0.68015  0.71300  Biso   1.000  C
  C392     1.0000 0.99073  0.79068  0.82064  Biso   1.000  C
  C393     1.0000 0.94733  0.70164  0.71739  Biso   1.000  C
  H194     1.0000 0.92810  0.70230  0.70346  Biso   1.000  H
  C394     1.0000 0.97315  0.79595  0.79598  Biso   1.000  C
  H195     1.0000 0.96334  0.81732  0.79262  Biso   1.000  H
  C395     1.0000 0.95090  0.72272  0.73934  Biso   1.000  C
  H196     1.0000 0.93393  0.73906  0.74227  Biso   1.000  H
  C396     1.0000 0.96848  0.77391  0.77528  Biso   1.000  C
  H197     1.0000 0.95573  0.77911  0.75594  Biso   1.000  H
  C397     1.0000 0.97633  0.72293  0.75692  Biso   1.000  C
  C398     1.0000 0.98093  0.74591  0.77906  Biso   1.000  C
  C399     1.0000 0.99355  0.67943  0.73113  Biso   1.000  C
  C400     1.0000 0.99741  0.70073  0.75281  Biso   1.000  C
  H198     1.0000 0.01776  0.70023  0.76734  Biso   1.000  H
  H199     1.0000 0.01060  0.66138  0.72815  Biso   1.000  H
  H200     1.0000 0.00765  0.71774  0.80793  Biso   1.000  H
  Cu19     1.0000 0.98502  0.48964  0.64870  Biso   1.000  Cu
  Cu20     1.0000 0.98301  0.48241  0.70285  Biso   1.000  Cu
  O81      1.0000 0.51584  0.47705  0.20415  Biso   1.000  O
  O82      1.0000 0.48169  0.05561  0.30530  Biso   1.000  O
  O83      1.0000 0.51392  0.47094  0.15587  Biso   1.000  O
  O84      1.0000 0.48458  0.05040  0.35363  Biso   1.000  O
  O85      1.0000 0.50970  0.35107  0.05528  Biso   1.000  O
  O86      1.0000 0.51111  0.15292  0.47536  Biso   1.000  O
  O87      1.0000 0.51446  0.30263  0.05690  Biso   1.000  O
  O88      1.0000 0.51798  0.20108  0.47803  Biso   1.000  O
  N21      1.0000 0.53302  0.33980  0.18936  Biso   1.000  N
  N22      1.0000 0.50397  0.18688  0.34126  Biso   1.000  N
  C401     1.0000 0.50208  0.25950  0.30429  Biso   1.000  C
  C402     1.0000 0.49711  0.23724  0.32480  Biso   1.000  C
  H201     1.0000 0.48341  0.24163  0.34371  Biso   1.000  H
  C403     1.0000 0.52394  0.41652  0.21358  Biso   1.000  C
  H202     1.0000 0.52523  0.43018  0.23297  Biso   1.000  H
  C404     1.0000 0.48425  0.11572  0.30762  Biso   1.000  C
  H203     1.0000 0.47968  0.10576  0.28655  Biso   1.000  H
  C405     1.0000 0.52999  0.38647  0.21644  Biso   1.000  C
  H204     1.0000 0.53592  0.37727  0.23750  Biso   1.000  H
  C406     1.0000 0.49021  0.14591  0.30852  Biso   1.000  C
  H205     1.0000 0.48976  0.15874  0.28858  Biso   1.000  H
  C407     1.0000 0.52823  0.36901  0.19142  Biso   1.000  C
  C408     1.0000 0.49679  0.15856  0.33561  Biso   1.000  C
  C409     1.0000 0.52075  0.38075  0.16452  Biso   1.000  C
  C410     1.0000 0.49632  0.14211  0.36100  Biso   1.000  C
  C411     1.0000 0.51428  0.41045  0.16103  Biso   1.000  C
  H206     1.0000 0.50817  0.41898  0.13972  Biso   1.000  H
  C412     1.0000 0.49058  0.11207  0.36085  Biso   1.000  C
  H207     1.0000 0.49113  0.09964  0.38108  Biso   1.000  H
  C413     1.0000 0.51598  0.42879  0.18603  Biso   1.000  C
  C414     1.0000 0.48479  0.09846  0.33356  Biso   1.000  C
  C415     1.0000 0.51412  0.46036  0.18218  Biso   1.000  C
  C416     1.0000 0.48366  0.06679  0.33056  Biso   1.000  C
  C417     1.0000 0.51146  0.32690  0.06994  Biso   1.000  C
  C418     1.0000 0.51474  0.17814  0.46294  Biso   1.000  C
  C419     1.0000 0.51382  0.32828  0.10150  Biso   1.000  C
  C420     1.0000 0.51459  0.18062  0.43122  Biso   1.000  C
  C421     1.0000 0.51324  0.35612  0.11527  Biso   1.000  C
  H208     1.0000 0.50684  0.37571  0.10345  Biso   1.000  H
  C422     1.0000 0.50650  0.15646  0.41353  Biso   1.000  C
  H209     1.0000 0.50276  0.13492  0.42283  Biso   1.000  H
  C423     1.0000 0.52065  0.35766  0.14492  Biso   1.000  C
  C424     1.0000 0.50327  0.16107  0.38349  Biso   1.000  C
  C425     1.0000 0.52830  0.33307  0.16083  Biso   1.000  C
  C426     1.0000 0.50782  0.18816  0.37073  Biso   1.000  C
  C427     1.0000 0.52907  0.30539  0.14788  Biso   1.000  C
  H210     1.0000 0.53469  0.28602  0.16040  Biso   1.000  H
  C428     1.0000 0.51645  0.21224  0.38754  Biso   1.000  C
  H211     1.0000 0.52080  0.23338  0.37770  Biso   1.000  H
  C429     1.0000 0.52197  0.30314  0.11802  Biso   1.000  C
  H212     1.0000 0.52238  0.28162  0.10795  Biso   1.000  H
  C430     1.0000 0.51958  0.20837  0.41795  Biso   1.000  C
  H213     1.0000 0.52612  0.22705  0.43108  Biso   1.000  H
  C431     1.0000 0.53122  0.31985  0.21300  Biso   1.000  C
  C432     1.0000 0.50927  0.20932  0.32064  Biso   1.000  C
  C433     1.0000 0.55267  0.29836  0.21739  Biso   1.000  C
  H214     1.0000 0.57190  0.29770  0.20346  Biso   1.000  H
  C434     1.0000 0.52685  0.20405  0.29598  Biso   1.000  C
  H215     1.0000 0.53666  0.18268  0.29262  Biso   1.000  H
  C435     1.0000 0.54910  0.27728  0.23934  Biso   1.000  C
  H216     1.0000 0.56607  0.26094  0.24227  Biso   1.000  H
  C436     1.0000 0.53152  0.22609  0.27528  Biso   1.000  C
  H217     1.0000 0.54427  0.22089  0.25594  Biso   1.000  H
  C437     1.0000 0.52367  0.27707  0.25692  Biso   1.000  C
  C438     1.0000 0.51907  0.25409  0.27906  Biso   1.000  C
  C439     1.0000 0.50645  0.32057  0.23113  Biso   1.000  C
  C440     1.0000 0.50259  0.29927  0.25281  Biso   1.000  C
  H218     1.0000 0.48224  0.29977  0.26734  Biso   1.000  H
  H219     1.0000 0.48940  0.33862  0.22815  Biso   1.000  H
  H220     1.0000 0.49235  0.28226  0.30793  Biso   1.000  H
  Cu21     1.0000 0.51498  0.51036  0.14870  Biso   1.000  Cu
  Cu22     1.0000 0.51699  0.51759  0.20285  Biso   1.000  Cu
  O89      1.0000 0.48416  0.97705  0.29585  Biso   1.000  O
  O90      1.0000 0.51831  0.55561  0.19470  Biso   1.000  O
  O91      1.0000 0.48608  0.97094  0.34413  Biso   1.000  O
  O92      1.0000 0.51542  0.55040  0.14637  Biso   1.000  O
  O93      1.0000 0.49030  0.85107  0.44472  Biso   1.000  O
  O94      1.0000 0.48889  0.65292  0.02464  Biso   1.000  O
  O95      1.0000 0.48554  0.80263  0.44310  Biso   1.000  O
  O96      1.0000 0.48202  0.70108  0.02197  Biso   1.000  O
  N23      1.0000 0.46698  0.83980  0.31064  Biso   1.000  N
  N24      1.0000 0.49603  0.68688  0.15874  Biso   1.000  N
  C441     1.0000 0.49792  0.75950  0.19571  Biso   1.000  C
  C442     1.0000 0.50289  0.73724  0.17520  Biso   1.000  C
  H221     1.0000 0.51659  0.74163  0.15629  Biso   1.000  H
  C443     1.0000 0.47606  0.91652  0.28642  Biso   1.000  C
  H222     1.0000 0.47477  0.93018  0.26703  Biso   1.000  H
  C444     1.0000 0.51575  0.61572  0.19238  Biso   1.000  C
  H223     1.0000 0.52032  0.60576  0.21345  Biso   1.000  H
  C445     1.0000 0.47001  0.88647  0.28356  Biso   1.000  C
  H224     1.0000 0.46408  0.87727  0.26250  Biso   1.000  H
  C446     1.0000 0.50979  0.64591  0.19148  Biso   1.000  C
  H225     1.0000 0.51024  0.65874  0.21142  Biso   1.000  H
  C447     1.0000 0.47177  0.86901  0.30858  Biso   1.000  C
  C448     1.0000 0.50321  0.65856  0.16439  Biso   1.000  C
  C449     1.0000 0.47925  0.88075  0.33548  Biso   1.000  C
  C450     1.0000 0.50368  0.64211  0.13900  Biso   1.000  C
  C451     1.0000 0.48572  0.91045  0.33897  Biso   1.000  C
  H226     1.0000 0.49183  0.91898  0.36028  Biso   1.000  H
  C452     1.0000 0.50942  0.61207  0.13915  Biso   1.000  C
  H227     1.0000 0.50887  0.59964  0.11892  Biso   1.000  H
  C453     1.0000 0.48402  0.92879  0.31397  Biso   1.000  C
  C454     1.0000 0.51521  0.59846  0.16644  Biso   1.000  C
  C455     1.0000 0.48588  0.96036  0.31782  Biso   1.000  C
  C456     1.0000 0.51634  0.56679  0.16944  Biso   1.000  C
  C457     1.0000 0.48854  0.82690  0.43006  Biso   1.000  C
  C458     1.0000 0.48526  0.67814  0.03706  Biso   1.000  C
  C459     1.0000 0.48618  0.82828  0.39850  Biso   1.000  C
  C460     1.0000 0.48541  0.68062  0.06878  Biso   1.000  C
  C461     1.0000 0.48676  0.85612  0.38473  Biso   1.000  C
  H228     1.0000 0.49316  0.87571  0.39655  Biso   1.000  H
  C462     1.0000 0.49350  0.65646  0.08647  Biso   1.000  C
  H229     1.0000 0.49724  0.63492  0.07717  Biso   1.000  H
  C463     1.0000 0.47935  0.85766  0.35508  Biso   1.000  C
  C464     1.0000 0.49673  0.66107  0.11651  Biso   1.000  C
  C465     1.0000 0.47170  0.83307  0.33917  Biso   1.000  C
  C466     1.0000 0.49218  0.68816  0.12927  Biso   1.000  C
  C467     1.0000 0.47093  0.80539  0.35212  Biso   1.000  C
  H230     1.0000 0.46531  0.78602  0.33960  Biso   1.000  H
  C468     1.0000 0.48355  0.71224  0.11246  Biso   1.000  C
  H231     1.0000 0.47920  0.73338  0.12230  Biso   1.000  H
  C469     1.0000 0.47803  0.80314  0.38198  Biso   1.000  C
  H232     1.0000 0.47762  0.78162  0.39205  Biso   1.000  H
  C470     1.0000 0.48042  0.70837  0.08205  Biso   1.000  C
  H233     1.0000 0.47388  0.72705  0.06892  Biso   1.000  H
  C471     1.0000 0.46878  0.81985  0.28700  Biso   1.000  C
  C472     1.0000 0.49073  0.70932  0.17936  Biso   1.000  C
  C473     1.0000 0.44733  0.79836  0.28261  Biso   1.000  C
  H234     1.0000 0.42810  0.79770  0.29654  Biso   1.000  H
  C474     1.0000 0.47315  0.70405  0.20402  Biso   1.000  C
  H235     1.0000 0.46334  0.68268  0.20738  Biso   1.000  H
  C475     1.0000 0.45090  0.77728  0.26066  Biso   1.000  C
  H236     1.0000 0.43393  0.76094  0.25773  Biso   1.000  H
  C476     1.0000 0.46848  0.72609  0.22472  Biso   1.000  C
  H237     1.0000 0.45573  0.72089  0.24406  Biso   1.000  H
  C477     1.0000 0.47633  0.77707  0.24308  Biso   1.000  C
  C478     1.0000 0.48093  0.75409  0.22094  Biso   1.000  C
  C479     1.0000 0.49355  0.82057  0.26887  Biso   1.000  C
  C480     1.0000 0.49741  0.79927  0.24719  Biso   1.000  C
  H238     1.0000 0.51776  0.79977  0.23266  Biso   1.000  H
  H239     1.0000 0.51060  0.83862  0.27185  Biso   1.000  H
  H240     1.0000 0.50765  0.78226  0.19207  Biso   1.000  H
  Cu23     1.0000 0.48502  0.01036  0.35130  Biso   1.000  Cu
  Cu24     1.0000 0.48301  0.01759  0.29715  Biso   1.000  Cu
  O97      1.0000 0.20415  0.98416  0.97705  Biso   1.000  O
  O98      1.0000 0.30530  0.01831  0.55561  Biso   1.000  O
  O99      1.0000 0.15587  0.98608  0.97094  Biso   1.000  O
  O100     1.0000 0.35363  0.01542  0.55040  Biso   1.000  O
  O101     1.0000 0.05528  0.99030  0.85107  Biso   1.000  O
  O102     1.0000 0.47536  0.98889  0.65292  Biso   1.000  O
  O103     1.0000 0.05690  0.98554  0.80263  Biso   1.000  O
  O104     1.0000 0.47803  0.98202  0.70108  Biso   1.000  O
  N25      1.0000 0.18936  0.96698  0.83980  Biso   1.000  N
  N26      1.0000 0.34126  0.99603  0.68688  Biso   1.000  N
  C481     1.0000 0.30429  0.99792  0.75950  Biso   1.000  C
  C482     1.0000 0.32480  0.00289  0.73724  Biso   1.000  C
  H241     1.0000 0.34371  0.01659  0.74163  Biso   1.000  H
  C483     1.0000 0.21358  0.97606  0.91652  Biso   1.000  C
  H242     1.0000 0.23297  0.97477  0.93018  Biso   1.000  H
  C484     1.0000 0.30762  0.01575  0.61572  Biso   1.000  C
  H243     1.0000 0.28655  0.02032  0.60576  Biso   1.000  H
  C485     1.0000 0.21644  0.97001  0.88647  Biso   1.000  C
  H244     1.0000 0.23750  0.96408  0.87727  Biso   1.000  H
  C486     1.0000 0.30852  0.00979  0.64591  Biso   1.000  C
  H245     1.0000 0.28858  0.01024  0.65874  Biso   1.000  H
  C487     1.0000 0.19142  0.97177  0.86901  Biso   1.000  C
  C488     1.0000 0.33561  0.00321  0.65856  Biso   1.000  C
  C489     1.0000 0.16452  0.97925  0.88075  Biso   1.000  C
  C490     1.0000 0.36100  0.00368  0.64211  Biso   1.000  C
  C491     1.0000 0.16103  0.98572  0.91045  Biso   1.000  C
  H246     1.0000 0.13972  0.99183  0.91898  Biso   1.000  H
  C492     1.0000 0.36085  0.00942  0.61207  Biso   1.000  C
  H247     1.0000 0.38108  0.00887  0.59964  Biso   1.000  H
  C493     1.0000 0.18603  0.98402  0.92879  Biso   1.000  C
  C494     1.0000 0.33356  0.01521  0.59846  Biso   1.000  C
  C495     1.0000 0.18218  0.98588  0.96036  Biso   1.000  C
  C496     1.0000 0.33056  0.01634  0.56679  Biso   1.000  C
  C497     1.0000 0.06994  0.98854  0.82690  Biso   1.000  C
  C498     1.0000 0.46294  0.98526  0.67814  Biso   1.000  C
  C499     1.0000 0.10150  0.98618  0.82828  Biso   1.000  C
  C500     1.0000 0.43122  0.98541  0.68062  Biso   1.000  C
  C501     1.0000 0.11527  0.98676  0.85612  Biso   1.000  C
  H248     1.0000 0.10345  0.99316  0.87571  Biso   1.000  H
  C502     1.0000 0.41353  0.99350  0.65646  Biso   1.000  C
  H249     1.0000 0.42283  0.99724  0.63492  Biso   1.000  H
  C503     1.0000 0.14492  0.97935  0.85766  Biso   1.000  C
  C504     1.0000 0.38349  0.99673  0.66107  Biso   1.000  C
  C505     1.0000 0.16083  0.97170  0.83307  Biso   1.000  C
  C506     1.0000 0.37073  0.99218  0.68816  Biso   1.000  C
  C507     1.0000 0.14788  0.97093  0.80539  Biso   1.000  C
  H250     1.0000 0.16040  0.96531  0.78602  Biso   1.000  H
  C508     1.0000 0.38754  0.98355  0.71224  Biso   1.000  C
  H251     1.0000 0.37770  0.97920  0.73338  Biso   1.000  H
  C509     1.0000 0.11802  0.97803  0.80314  Biso   1.000  C
  H252     1.0000 0.10795  0.97762  0.78162  Biso   1.000  H
  C510     1.0000 0.41795  0.98042  0.70837  Biso   1.000  C
  H253     1.0000 0.43108  0.97388  0.72705  Biso   1.000  H
  C511     1.0000 0.21300  0.96878  0.81985  Biso   1.000  C
  C512     1.0000 0.32064  0.99073  0.70932  Biso   1.000  C
  C513     1.0000 0.21739  0.94733  0.79836  Biso   1.000  C
  H254     1.0000 0.20346  0.92810  0.79770  Biso   1.000  H
  C514     1.0000 0.29598  0.97315  0.70405  Biso   1.000  C
  H255     1.0000 0.29262  0.96334  0.68268  Biso   1.000  H
  C515     1.0000 0.23934  0.95090  0.77728  Biso   1.000  C
  H256     1.0000 0.24227  0.93393  0.76094  Biso   1.000  H
  C516     1.0000 0.27528  0.96848  0.72609  Biso   1.000  C
  H257     1.0000 0.25594  0.95573  0.72089  Biso   1.000  H
  C517     1.0000 0.25692  0.97633  0.77707  Biso   1.000  C
  C518     1.0000 0.27906  0.98093  0.75409  Biso   1.000  C
  C519     1.0000 0.23113  0.99355  0.82057  Biso   1.000  C
  C520     1.0000 0.25281  0.99741  0.79927  Biso   1.000  C
  H258     1.0000 0.26734  0.01776  0.79977  Biso   1.000  H
  H259     1.0000 0.22815  0.01060  0.83862  Biso   1.000  H
  H260     1.0000 0.30793  0.00765  0.78226  Biso   1.000  H
  Cu25     1.0000 0.14870  0.98502  0.01036  Biso   1.000  Cu
  Cu26     1.0000 0.20285  0.98301  0.01759  Biso   1.000  Cu
  O105     1.0000 0.29585  0.01584  0.47705  Biso   1.000  O
  O106     1.0000 0.19470  0.98169  0.05561  Biso   1.000  O
  O107     1.0000 0.34413  0.01392  0.47094  Biso   1.000  O
  O108     1.0000 0.14637  0.98458  0.05040  Biso   1.000  O
  O109     1.0000 0.44472  0.00970  0.35107  Biso   1.000  O
  O110     1.0000 0.02464  0.01111  0.15292  Biso   1.000  O
  O111     1.0000 0.44310  0.01446  0.30263  Biso   1.000  O
  O112     1.0000 0.02197  0.01798  0.20108  Biso   1.000  O
  N27      1.0000 0.31064  0.03302  0.33980  Biso   1.000  N
  N28      1.0000 0.15874  0.00397  0.18688  Biso   1.000  N
  C521     1.0000 0.19571  0.00208  0.25950  Biso   1.000  C
  C522     1.0000 0.17520  0.99711  0.23724  Biso   1.000  C
  H261     1.0000 0.15629  0.98341  0.24163  Biso   1.000  H
  C523     1.0000 0.28642  0.02394  0.41652  Biso   1.000  C
  H262     1.0000 0.26703  0.02523  0.43018  Biso   1.000  H
  C524     1.0000 0.19238  0.98425  0.11572  Biso   1.000  C
  H263     1.0000 0.21345  0.97968  0.10576  Biso   1.000  H
  C525     1.0000 0.28356  0.02999  0.38647  Biso   1.000  C
  H264     1.0000 0.26250  0.03592  0.37727  Biso   1.000  H
  C526     1.0000 0.19148  0.99021  0.14591  Biso   1.000  C
  H265     1.0000 0.21142  0.98976  0.15874  Biso   1.000  H
  C527     1.0000 0.30858  0.02823  0.36901  Biso   1.000  C
  C528     1.0000 0.16439  0.99679  0.15856  Biso   1.000  C
  C529     1.0000 0.33548  0.02075  0.38075  Biso   1.000  C
  C530     1.0000 0.13900  0.99632  0.14211  Biso   1.000  C
  C531     1.0000 0.33897  0.01428  0.41045  Biso   1.000  C
  H266     1.0000 0.36028  0.00817  0.41898  Biso   1.000  H
  C532     1.0000 0.13915  0.99058  0.11207  Biso   1.000  C
  H267     1.0000 0.11892  0.99113  0.09964  Biso   1.000  H
  C533     1.0000 0.31397  0.01598  0.42879  Biso   1.000  C
  C534     1.0000 0.16644  0.98479  0.09846  Biso   1.000  C
  C535     1.0000 0.31782  0.01412  0.46036  Biso   1.000  C
  C536     1.0000 0.16944  0.98366  0.06679  Biso   1.000  C
  C537     1.0000 0.43006  0.01146  0.32690  Biso   1.000  C
  C538     1.0000 0.03706  0.01474  0.17814  Biso   1.000  C
  C539     1.0000 0.39850  0.01382  0.32828  Biso   1.000  C
  C540     1.0000 0.06878  0.01459  0.18062  Biso   1.000  C
  C541     1.0000 0.38473  0.01324  0.35612  Biso   1.000  C
  H268     1.0000 0.39655  0.00684  0.37571  Biso   1.000  H
  C542     1.0000 0.08647  0.00650  0.15646  Biso   1.000  C
  H269     1.0000 0.07717  0.00276  0.13492  Biso   1.000  H
  C543     1.0000 0.35508  0.02065  0.35766  Biso   1.000  C
  C544     1.0000 0.11651  0.00327  0.16107  Biso   1.000  C
  C545     1.0000 0.33917  0.02830  0.33307  Biso   1.000  C
  C546     1.0000 0.12927  0.00782  0.18816  Biso   1.000  C
  C547     1.0000 0.35212  0.02907  0.30539  Biso   1.000  C
  H270     1.0000 0.33960  0.03469  0.28602  Biso   1.000  H
  C548     1.0000 0.11246  0.01645  0.21224  Biso   1.000  C
  H271     1.0000 0.12230  0.02080  0.23338  Biso   1.000  H
  C549     1.0000 0.38198  0.02197  0.30314  Biso   1.000  C
  H272     1.0000 0.39205  0.02238  0.28162  Biso   1.000  H
  C550     1.0000 0.08205  0.01958  0.20837  Biso   1.000  C
  H273     1.0000 0.06892  0.02612  0.22705  Biso   1.000  H
  C551     1.0000 0.28700  0.03122  0.31985  Biso   1.000  C
  C552     1.0000 0.17936  0.00927  0.20932  Biso   1.000  C
  C553     1.0000 0.28261  0.05267  0.29836  Biso   1.000  C
  H274     1.0000 0.29654  0.07190  0.29770  Biso   1.000  H
  C554     1.0000 0.20402  0.02685  0.20405  Biso   1.000  C
  H275     1.0000 0.20738  0.03666  0.18268  Biso   1.000  H
  C555     1.0000 0.26066  0.04910  0.27728  Biso   1.000  C
  H276     1.0000 0.25773  0.06607  0.26094  Biso   1.000  H
  C556     1.0000 0.22472  0.03152  0.22609  Biso   1.000  C
  H277     1.0000 0.24406  0.04427  0.22089  Biso   1.000  H
  C557     1.0000 0.24308  0.02367  0.27707  Biso   1.000  C
  C558     1.0000 0.22094  0.01907  0.25409  Biso   1.000  C
  C559     1.0000 0.26887  0.00645  0.32057  Biso   1.000  C
  C560     1.0000 0.24719  0.00259  0.29927  Biso   1.000  C
  H278     1.0000 0.23266  0.98224  0.29977  Biso   1.000  H
  H279     1.0000 0.27185  0.98940  0.33862  Biso   1.000  H
  H280     1.0000 0.19207  0.99235  0.28226  Biso   1.000  H
  Cu27     1.0000 0.35130  0.01498  0.51036  Biso   1.000  Cu
  Cu28     1.0000 0.29715  0.01699  0.51759  Biso   1.000  Cu
  O113     1.0000 0.79585  0.48416  0.52295  Biso   1.000  O
  O114     1.0000 0.69470  0.51831  0.94439  Biso   1.000  O
  O115     1.0000 0.84413  0.48608  0.52906  Biso   1.000  O
  O116     1.0000 0.64637  0.51542  0.94960  Biso   1.000  O
  O117     1.0000 0.94472  0.49030  0.64893  Biso   1.000  O
  O118     1.0000 0.52464  0.48889  0.84708  Biso   1.000  O
  O119     1.0000 0.94310  0.48554  0.69737  Biso   1.000  O
  O120     1.0000 0.52197  0.48202  0.79892  Biso   1.000  O
  N29      1.0000 0.81064  0.46698  0.66020  Biso   1.000  N
  N30      1.0000 0.65874  0.49603  0.81312  Biso   1.000  N
  C561     1.0000 0.69571  0.49792  0.74050  Biso   1.000  C
  C562     1.0000 0.67520  0.50289  0.76276  Biso   1.000  C
  H281     1.0000 0.65629  0.51659  0.75837  Biso   1.000  H
  C563     1.0000 0.78642  0.47606  0.58348  Biso   1.000  C
  H282     1.0000 0.76703  0.47477  0.56982  Biso   1.000  H
  C564     1.0000 0.69238  0.51575  0.88428  Biso   1.000  C
  H283     1.0000 0.71345  0.52032  0.89424  Biso   1.000  H
  C565     1.0000 0.78356  0.47001  0.61353  Biso   1.000  C
  H284     1.0000 0.76250  0.46408  0.62273  Biso   1.000  H
  C566     1.0000 0.69148  0.50979  0.85409  Biso   1.000  C
  H285     1.0000 0.71142  0.51024  0.84126  Biso   1.000  H
  C567     1.0000 0.80858  0.47177  0.63099  Biso   1.000  C
  C568     1.0000 0.66439  0.50321  0.84144  Biso   1.000  C
  C569     1.0000 0.83548  0.47925  0.61925  Biso   1.000  C
  C570     1.0000 0.63900  0.50368  0.85789  Biso   1.000  C
  C571     1.0000 0.83897  0.48572  0.58955  Biso   1.000  C
  H286     1.0000 0.86028  0.49183  0.58102  Biso   1.000  H
  C572     1.0000 0.63915  0.50942  0.88793  Biso   1.000  C
  H287     1.0000 0.61892  0.50887  0.90036  Biso   1.000  H
  C573     1.0000 0.81397  0.48402  0.57121  Biso   1.000  C
  C574     1.0000 0.66644  0.51521  0.90154  Biso   1.000  C
  C575     1.0000 0.81782  0.48588  0.53964  Biso   1.000  C
  C576     1.0000 0.66944  0.51634  0.93321  Biso   1.000  C
  C577     1.0000 0.93006  0.48854  0.67310  Biso   1.000  C
  C578     1.0000 0.53706  0.48526  0.82186  Biso   1.000  C
  C579     1.0000 0.89850  0.48618  0.67172  Biso   1.000  C
  C580     1.0000 0.56878  0.48541  0.81938  Biso   1.000  C
  C581     1.0000 0.88473  0.48676  0.64388  Biso   1.000  C
  H288     1.0000 0.89655  0.49316  0.62429  Biso   1.000  H
  C582     1.0000 0.58647  0.49350  0.84354  Biso   1.000  C
  H289     1.0000 0.57717  0.49724  0.86508  Biso   1.000  H
  C583     1.0000 0.85508  0.47935  0.64234  Biso   1.000  C
  C584     1.0000 0.61651  0.49673  0.83893  Biso   1.000  C
  C585     1.0000 0.83917  0.47170  0.66693  Biso   1.000  C
  C586     1.0000 0.62927  0.49218  0.81184  Biso   1.000  C
  C587     1.0000 0.85212  0.47093  0.69461  Biso   1.000  C
  H290     1.0000 0.83960  0.46531  0.71398  Biso   1.000  H
  C588     1.0000 0.61246  0.48355  0.78776  Biso   1.000  C
  H291     1.0000 0.62230  0.47920  0.76662  Biso   1.000  H
  C589     1.0000 0.88198  0.47803  0.69686  Biso   1.000  C
  H292     1.0000 0.89205  0.47762  0.71838  Biso   1.000  H
  C590     1.0000 0.58205  0.48042  0.79163  Biso   1.000  C
  H293     1.0000 0.56892  0.47388  0.77295  Biso   1.000  H
  C591     1.0000 0.78700  0.46878  0.68015  Biso   1.000  C
  C592     1.0000 0.67936  0.49073  0.79068  Biso   1.000  C
  C593     1.0000 0.78261  0.44733  0.70164  Biso   1.000  C
  H294     1.0000 0.79654  0.42810  0.70230  Biso   1.000  H
  C594     1.0000 0.70402  0.47315  0.79595  Biso   1.000  C
  H295     1.0000 0.70738  0.46334  0.81732  Biso   1.000  H
  C595     1.0000 0.76066  0.45090  0.72272  Biso   1.000  C
  H296     1.0000 0.75773  0.43393  0.73906  Biso   1.000  H
  C596     1.0000 0.72472  0.46848  0.77391  Biso   1.000  C
  H297     1.0000 0.74406  0.45573  0.77911  Biso   1.000  H
  C597     1.0000 0.74308  0.47633  0.72293  Biso   1.000  C
  C598     1.0000 0.72094  0.48093  0.74591  Biso   1.000  C
  C599     1.0000 0.76887  0.49355  0.67943  Biso   1.000  C
  C600     1.0000 0.74719  0.49741  0.70073  Biso   1.000  C
  H298     1.0000 0.73266  0.51776  0.70023  Biso   1.000  H
  H299     1.0000 0.77185  0.51060  0.66138  Biso   1.000  H
  H300     1.0000 0.69207  0.50765  0.71774  Biso   1.000  H
  Cu29     1.0000 0.85130  0.48502  0.48964  Biso   1.000  Cu
  Cu30     1.0000 0.79715  0.48301  0.48241  Biso   1.000  Cu
  O121     1.0000 0.70415  0.51584  0.02295  Biso   1.000  O
  O122     1.0000 0.80530  0.48169  0.44439  Biso   1.000  O
  O123     1.0000 0.65587  0.51392  0.02906  Biso   1.000  O
  O124     1.0000 0.85363  0.48458  0.44960  Biso   1.000  O
  O125     1.0000 0.55528  0.50970  0.14893  Biso   1.000  O
  O126     1.0000 0.97536  0.51111  0.34708  Biso   1.000  O
  O127     1.0000 0.55690  0.51446  0.19737  Biso   1.000  O
  O128     1.0000 0.97803  0.51798  0.29892  Biso   1.000  O
  N31      1.0000 0.68936  0.53302  0.16020  Biso   1.000  N
  N32      1.0000 0.84126  0.50397  0.31312  Biso   1.000  N
  C601     1.0000 0.80429  0.50208  0.24050  Biso   1.000  C
  C602     1.0000 0.82480  0.49711  0.26276  Biso   1.000  C
  H301     1.0000 0.84371  0.48341  0.25837  Biso   1.000  H
  C603     1.0000 0.71358  0.52394  0.08348  Biso   1.000  C
  H302     1.0000 0.73297  0.52523  0.06982  Biso   1.000  H
  C604     1.0000 0.80762  0.48425  0.38428  Biso   1.000  C
  H303     1.0000 0.78655  0.47968  0.39424  Biso   1.000  H
  C605     1.0000 0.71644  0.52999  0.11353  Biso   1.000  C
  H304     1.0000 0.73750  0.53592  0.12273  Biso   1.000  H
  C606     1.0000 0.80852  0.49021  0.35409  Biso   1.000  C
  H305     1.0000 0.78858  0.48976  0.34126  Biso   1.000  H
  C607     1.0000 0.69142  0.52823  0.13099  Biso   1.000  C
  C608     1.0000 0.83561  0.49679  0.34144  Biso   1.000  C
  C609     1.0000 0.66452  0.52075  0.11925  Biso   1.000  C
  C610     1.0000 0.86100  0.49632  0.35789  Biso   1.000  C
  C611     1.0000 0.66103  0.51428  0.08955  Biso   1.000  C
  H306     1.0000 0.63972  0.50817  0.08102  Biso   1.000  H
  C612     1.0000 0.86085  0.49058  0.38793  Biso   1.000  C
  H307     1.0000 0.88108  0.49113  0.40036  Biso   1.000  H
  C613     1.0000 0.68603  0.51598  0.07121  Biso   1.000  C
  C614     1.0000 0.83356  0.48479  0.40154  Biso   1.000  C
  C615     1.0000 0.68218  0.51412  0.03964  Biso   1.000  C
  C616     1.0000 0.83056  0.48366  0.43321  Biso   1.000  C
  C617     1.0000 0.56994  0.51146  0.17310  Biso   1.000  C
  C618     1.0000 0.96294  0.51474  0.32186  Biso   1.000  C
  C619     1.0000 0.60150  0.51382  0.17172  Biso   1.000  C
  C620     1.0000 0.93122  0.51459  0.31938  Biso   1.000  C
  C621     1.0000 0.61527  0.51324  0.14388  Biso   1.000  C
  H308     1.0000 0.60345  0.50684  0.12429  Biso   1.000  H
  C622     1.0000 0.91353  0.50650  0.34354  Biso   1.000  C
  H309     1.0000 0.92283  0.50276  0.36508  Biso   1.000  H
  C623     1.0000 0.64492  0.52065  0.14234  Biso   1.000  C
  C624     1.0000 0.88349  0.50327  0.33893  Biso   1.000  C
  C625     1.0000 0.66083  0.52830  0.16693  Biso   1.000  C
  C626     1.0000 0.87073  0.50782  0.31184  Biso   1.000  C
  C627     1.0000 0.64788  0.52907  0.19461  Biso   1.000  C
  H310     1.0000 0.66040  0.53469  0.21398  Biso   1.000  H
  C628     1.0000 0.88754  0.51645  0.28776  Biso   1.000  C
  H311     1.0000 0.87770  0.52080  0.26662  Biso   1.000  H
  C629     1.0000 0.61802  0.52197  0.19686  Biso   1.000  C
  H312     1.0000 0.60795  0.52238  0.21838  Biso   1.000  H
  C630     1.0000 0.91795  0.51958  0.29163  Biso   1.000  C
  H313     1.0000 0.93108  0.52612  0.27295  Biso   1.000  H
  C631     1.0000 0.71300  0.53122  0.18015  Biso   1.000  C
  C632     1.0000 0.82064  0.50927  0.29068  Biso   1.000  C
  C633     1.0000 0.71739  0.55267  0.20164  Biso   1.000  C
  H314     1.0000 0.70346  0.57190  0.20230  Biso   1.000  H
  C634     1.0000 0.79598  0.52685  0.29595  Biso   1.000  C
  H315     1.0000 0.79262  0.53666  0.31732  Biso   1.000  H
  C635     1.0000 0.73934  0.54910  0.22272  Biso   1.000  C
  H316     1.0000 0.74227  0.56607  0.23906  Biso   1.000  H
  C636     1.0000 0.77528  0.53152  0.27391  Biso   1.000  C
  H317     1.0000 0.75594  0.54427  0.27911  Biso   1.000  H
  C637     1.0000 0.75692  0.52367  0.22293  Biso   1.000  C
  C638     1.0000 0.77906  0.51907  0.24591  Biso   1.000  C
  C639     1.0000 0.73113  0.50645  0.17943  Biso   1.000  C
  C640     1.0000 0.75281  0.50259  0.20073  Biso   1.000  C
  H318     1.0000 0.76734  0.48224  0.20023  Biso   1.000  H
  H319     1.0000 0.72815  0.48940  0.16138  Biso   1.000  H
  H320     1.0000 0.80793  0.49235  0.21774  Biso   1.000  H
  Cu31     1.0000 0.64870  0.51498  0.98964  Biso   1.000  Cu
  Cu32     1.0000 0.70285  0.51699  0.98241  Biso   1.000  Cu
  O129     1.0000 0.97705  0.20415  0.98416  Biso   1.000  O
  O130     1.0000 0.55561  0.30530  0.01831  Biso   1.000  O
  O131     1.0000 0.97094  0.15587  0.98608  Biso   1.000  O
  O132     1.0000 0.55040  0.35363  0.01542  Biso   1.000  O
  O133     1.0000 0.85107  0.05528  0.99030  Biso   1.000  O
  O134     1.0000 0.65292  0.47536  0.98889  Biso   1.000  O
  O135     1.0000 0.80263  0.05690  0.98554  Biso   1.000  O
  O136     1.0000 0.70108  0.47803  0.98202  Biso   1.000  O
  N33      1.0000 0.83980  0.18936  0.96698  Biso   1.000  N
  N34      1.0000 0.68688  0.34126  0.99603  Biso   1.000  N
  C641     1.0000 0.75950  0.30429  0.99792  Biso   1.000  C
  C642     1.0000 0.73724  0.32480  0.00289  Biso   1.000  C
  H321     1.0000 0.74163  0.34371  0.01659  Biso   1.000  H
  C643     1.0000 0.91652  0.21358  0.97606  Biso   1.000  C
  H322     1.0000 0.93018  0.23297  0.97477  Biso   1.000  H
  C644     1.0000 0.61572  0.30762  0.01575  Biso   1.000  C
  H323     1.0000 0.60576  0.28655  0.02032  Biso   1.000  H
  C645     1.0000 0.88647  0.21644  0.97001  Biso   1.000  C
  H324     1.0000 0.87727  0.23750  0.96408  Biso   1.000  H
  C646     1.0000 0.64591  0.30852  0.00979  Biso   1.000  C
  H325     1.0000 0.65874  0.28858  0.01024  Biso   1.000  H
  C647     1.0000 0.86901  0.19142  0.97177  Biso   1.000  C
  C648     1.0000 0.65856  0.33561  0.00321  Biso   1.000  C
  C649     1.0000 0.88075  0.16452  0.97925  Biso   1.000  C
  C650     1.0000 0.64211  0.36100  0.00368  Biso   1.000  C
  C651     1.0000 0.91045  0.16103  0.98572  Biso   1.000  C
  H326     1.0000 0.91898  0.13972  0.99183  Biso   1.000  H
  C652     1.0000 0.61207  0.36085  0.00942  Biso   1.000  C
  H327     1.0000 0.59964  0.38108  0.00887  Biso   1.000  H
  C653     1.0000 0.92879  0.18603  0.98402  Biso   1.000  C
  C654     1.0000 0.59846  0.33356  0.01521  Biso   1.000  C
  C655     1.0000 0.96036  0.18218  0.98588  Biso   1.000  C
  C656     1.0000 0.56679  0.33056  0.01634  Biso   1.000  C
  C657     1.0000 0.82690  0.06994  0.98854  Biso   1.000  C
  C658     1.0000 0.67814  0.46294  0.98526  Biso   1.000  C
  C659     1.0000 0.82828  0.10150  0.98618  Biso   1.000  C
  C660     1.0000 0.68062  0.43122  0.98541  Biso   1.000  C
  C661     1.0000 0.85612  0.11527  0.98676  Biso   1.000  C
  H328     1.0000 0.87571  0.10345  0.99316  Biso   1.000  H
  C662     1.0000 0.65646  0.41353  0.99350  Biso   1.000  C
  H329     1.0000 0.63492  0.42283  0.99724  Biso   1.000  H
  C663     1.0000 0.85766  0.14492  0.97935  Biso   1.000  C
  C664     1.0000 0.66107  0.38349  0.99673  Biso   1.000  C
  C665     1.0000 0.83307  0.16083  0.97170  Biso   1.000  C
  C666     1.0000 0.68816  0.37073  0.99218  Biso   1.000  C
  C667     1.0000 0.80539  0.14788  0.97093  Biso   1.000  C
  H330     1.0000 0.78602  0.16040  0.96531  Biso   1.000  H
  C668     1.0000 0.71224  0.38754  0.98355  Biso   1.000  C
  H331     1.0000 0.73338  0.37770  0.97920  Biso   1.000  H
  C669     1.0000 0.80314  0.11802  0.97803  Biso   1.000  C
  H332     1.0000 0.78162  0.10795  0.97762  Biso   1.000  H
  C670     1.0000 0.70837  0.41795  0.98042  Biso   1.000  C
  H333     1.0000 0.72705  0.43108  0.97388  Biso   1.000  H
  C671     1.0000 0.81985  0.21300  0.96878  Biso   1.000  C
  C672     1.0000 0.70932  0.32064  0.99073  Biso   1.000  C
  C673     1.0000 0.79836  0.21739  0.94733  Biso   1.000  C
  H334     1.0000 0.79770  0.20346  0.92810  Biso   1.000  H
  C674     1.0000 0.70405  0.29598  0.97315  Biso   1.000  C
  H335     1.0000 0.68268  0.29262  0.96334  Biso   1.000  H
  C675     1.0000 0.77728  0.23934  0.95090  Biso   1.000  C
  H336     1.0000 0.76094  0.24227  0.93393  Biso   1.000  H
  C676     1.0000 0.72609  0.27528  0.96848  Biso   1.000  C
  H337     1.0000 0.72089  0.25594  0.95573  Biso   1.000  H
  C677     1.0000 0.77707  0.25692  0.97633  Biso   1.000  C
  C678     1.0000 0.75409  0.27906  0.98093  Biso   1.000  C
  C679     1.0000 0.82057  0.23113  0.99355  Biso   1.000  C
  C680     1.0000 0.79927  0.25281  0.99741  Biso   1.000  C
  H338     1.0000 0.79977  0.26734  0.01776  Biso   1.000  H
  H339     1.0000 0.83862  0.22815  0.01060  Biso   1.000  H
  H340     1.0000 0.78226  0.30793  0.00765  Biso   1.000  H
  Cu33     1.0000 0.01036  0.14870  0.98502  Biso   1.000  Cu
  Cu34     1.0000 0.01759  0.20285  0.98301  Biso   1.000  Cu
  O137     1.0000 0.47705  0.29585  0.01584  Biso   1.000  O
  O138     1.0000 0.05561  0.19470  0.98169  Biso   1.000  O
  O139     1.0000 0.47094  0.34413  0.01392  Biso   1.000  O
  O140     1.0000 0.05040  0.14637  0.98458  Biso   1.000  O
  O141     1.0000 0.35107  0.44472  0.00970  Biso   1.000  O
  O142     1.0000 0.15292  0.02464  0.01111  Biso   1.000  O
  O143     1.0000 0.30263  0.44310  0.01446  Biso   1.000  O
  O144     1.0000 0.20108  0.02197  0.01798  Biso   1.000  O
  N35      1.0000 0.33980  0.31064  0.03302  Biso   1.000  N
  N36      1.0000 0.18688  0.15874  0.00397  Biso   1.000  N
  C681     1.0000 0.25950  0.19571  0.00208  Biso   1.000  C
  C682     1.0000 0.23724  0.17520  0.99711  Biso   1.000  C
  H341     1.0000 0.24163  0.15629  0.98341  Biso   1.000  H
  C683     1.0000 0.41652  0.28642  0.02394  Biso   1.000  C
  H342     1.0000 0.43018  0.26703  0.02523  Biso   1.000  H
  C684     1.0000 0.11572  0.19238  0.98425  Biso   1.000  C
  H343     1.0000 0.10576  0.21345  0.97968  Biso   1.000  H
  C685     1.0000 0.38647  0.28356  0.02999  Biso   1.000  C
  H344     1.0000 0.37727  0.26250  0.03592  Biso   1.000  H
  C686     1.0000 0.14591  0.19148  0.99021  Biso   1.000  C
  H345     1.0000 0.15874  0.21142  0.98976  Biso   1.000  H
  C687     1.0000 0.36901  0.30858  0.02823  Biso   1.000  C
  C688     1.0000 0.15856  0.16439  0.99679  Biso   1.000  C
  C689     1.0000 0.38075  0.33548  0.02075  Biso   1.000  C
  C690     1.0000 0.14211  0.13900  0.99632  Biso   1.000  C
  C691     1.0000 0.41045  0.33897  0.01428  Biso   1.000  C
  H346     1.0000 0.41898  0.36028  0.00817  Biso   1.000  H
  C692     1.0000 0.11207  0.13915  0.99058  Biso   1.000  C
  H347     1.0000 0.09964  0.11892  0.99113  Biso   1.000  H
  C693     1.0000 0.42879  0.31397  0.01598  Biso   1.000  C
  C694     1.0000 0.09846  0.16644  0.98479  Biso   1.000  C
  C695     1.0000 0.46036  0.31782  0.01412  Biso   1.000  C
  C696     1.0000 0.06679  0.16944  0.98366  Biso   1.000  C
  C697     1.0000 0.32690  0.43006  0.01146  Biso   1.000  C
  C698     1.0000 0.17814  0.03706  0.01474  Biso   1.000  C
  C699     1.0000 0.32828  0.39850  0.01382  Biso   1.000  C
  C700     1.0000 0.18062  0.06878  0.01459  Biso   1.000  C
  C701     1.0000 0.35612  0.38473  0.01324  Biso   1.000  C
  H348     1.0000 0.37571  0.39655  0.00684  Biso   1.000  H
  C702     1.0000 0.15646  0.08647  0.00650  Biso   1.000  C
  H349     1.0000 0.13492  0.07717  0.00276  Biso   1.000  H
  C703     1.0000 0.35766  0.35508  0.02065  Biso   1.000  C
  C704     1.0000 0.16107  0.11651  0.00327  Biso   1.000  C
  C705     1.0000 0.33307  0.33917  0.02830  Biso   1.000  C
  C706     1.0000 0.18816  0.12927  0.00782  Biso   1.000  C
  C707     1.0000 0.30539  0.35212  0.02907  Biso   1.000  C
  H350     1.0000 0.28602  0.33960  0.03469  Biso   1.000  H
  C708     1.0000 0.21224  0.11246  0.01645  Biso   1.000  C
  H351     1.0000 0.23338  0.12230  0.02080  Biso   1.000  H
  C709     1.0000 0.30314  0.38198  0.02197  Biso   1.000  C
  H352     1.0000 0.28162  0.39205  0.02238  Biso   1.000  H
  C710     1.0000 0.20837  0.08205  0.01958  Biso   1.000  C
  H353     1.0000 0.22705  0.06892  0.02612  Biso   1.000  H
  C711     1.0000 0.31985  0.28700  0.03122  Biso   1.000  C
  C712     1.0000 0.20932  0.17936  0.00927  Biso   1.000  C
  C713     1.0000 0.29836  0.28261  0.05267  Biso   1.000  C
  H354     1.0000 0.29770  0.29654  0.07190  Biso   1.000  H
  C714     1.0000 0.20405  0.20402  0.02685  Biso   1.000  C
  H355     1.0000 0.18268  0.20738  0.03666  Biso   1.000  H
  C715     1.0000 0.27728  0.26066  0.04910  Biso   1.000  C
  H356     1.0000 0.26094  0.25773  0.06607  Biso   1.000  H
  C716     1.0000 0.22609  0.22472  0.03152  Biso   1.000  C
  H357     1.0000 0.22089  0.24406  0.04427  Biso   1.000  H
  C717     1.0000 0.27707  0.24308  0.02367  Biso   1.000  C
  C718     1.0000 0.25409  0.22094  0.01907  Biso   1.000  C
  C719     1.0000 0.32057  0.26887  0.00645  Biso   1.000  C
  C720     1.0000 0.29927  0.24719  0.00259  Biso   1.000  C
  H358     1.0000 0.29977  0.23266  0.98224  Biso   1.000  H
  H359     1.0000 0.33862  0.27185  0.98940  Biso   1.000  H
  H360     1.0000 0.28226  0.19207  0.99235  Biso   1.000  H
  Cu35     1.0000 0.51036  0.35130  0.01498  Biso   1.000  Cu
  Cu36     1.0000 0.51759  0.29715  0.01699  Biso   1.000  Cu
  O145     1.0000 0.52295  0.79585  0.48416  Biso   1.000  O
  O146     1.0000 0.94439  0.69470  0.51831  Biso   1.000  O
  O147     1.0000 0.52906  0.84413  0.48608  Biso   1.000  O
  O148     1.0000 0.94960  0.64637  0.51542  Biso   1.000  O
  O149     1.0000 0.64893  0.94472  0.49030  Biso   1.000  O
  O150     1.0000 0.84708  0.52464  0.48889  Biso   1.000  O
  O151     1.0000 0.69737  0.94310  0.48554  Biso   1.000  O
  O152     1.0000 0.79892  0.52197  0.48202  Biso   1.000  O
  N37      1.0000 0.66020  0.81064  0.46698  Biso   1.000  N
  N38      1.0000 0.81312  0.65874  0.49603  Biso   1.000  N
  C721     1.0000 0.74050  0.69571  0.49792  Biso   1.000  C
  C722     1.0000 0.76276  0.67520  0.50289  Biso   1.000  C
  H361     1.0000 0.75837  0.65629  0.51659  Biso   1.000  H
  C723     1.0000 0.58348  0.78642  0.47606  Biso   1.000  C
  H362     1.0000 0.56982  0.76703  0.47477  Biso   1.000  H
  C724     1.0000 0.88428  0.69238  0.51575  Biso   1.000  C
  H363     1.0000 0.89424  0.71345  0.52032  Biso   1.000  H
  C725     1.0000 0.61353  0.78356  0.47001  Biso   1.000  C
  H364     1.0000 0.62273  0.76250  0.46408  Biso   1.000  H
  C726     1.0000 0.85409  0.69148  0.50979  Biso   1.000  C
  H365     1.0000 0.84126  0.71142  0.51024  Biso   1.000  H
  C727     1.0000 0.63099  0.80858  0.47177  Biso   1.000  C
  C728     1.0000 0.84144  0.66439  0.50321  Biso   1.000  C
  C729     1.0000 0.61925  0.83548  0.47925  Biso   1.000  C
  C730     1.0000 0.85789  0.63900  0.50368  Biso   1.000  C
  C731     1.0000 0.58955  0.83897  0.48572  Biso   1.000  C
  H366     1.0000 0.58102  0.86028  0.49183  Biso   1.000  H
  C732     1.0000 0.88793  0.63915  0.50942  Biso   1.000  C
  H367     1.0000 0.90036  0.61892  0.50887  Biso   1.000  H
  C733     1.0000 0.57121  0.81397  0.48402  Biso   1.000  C
  C734     1.0000 0.90154  0.66644  0.51521  Biso   1.000  C
  C735     1.0000 0.53964  0.81782  0.48588  Biso   1.000  C
  C736     1.0000 0.93321  0.66944  0.51634  Biso   1.000  C
  C737     1.0000 0.67310  0.93006  0.48854  Biso   1.000  C
  C738     1.0000 0.82186  0.53706  0.48526  Biso   1.000  C
  C739     1.0000 0.67172  0.89850  0.48618  Biso   1.000  C
  C740     1.0000 0.81938  0.56878  0.48541  Biso   1.000  C
  C741     1.0000 0.64388  0.88473  0.48676  Biso   1.000  C
  H368     1.0000 0.62429  0.89655  0.49316  Biso   1.000  H
  C742     1.0000 0.84354  0.58647  0.49350  Biso   1.000  C
  H369     1.0000 0.86508  0.57717  0.49724  Biso   1.000  H
  C743     1.0000 0.64234  0.85508  0.47935  Biso   1.000  C
  C744     1.0000 0.83893  0.61651  0.49673  Biso   1.000  C
  C745     1.0000 0.66693  0.83917  0.47170  Biso   1.000  C
  C746     1.0000 0.81184  0.62927  0.49218  Biso   1.000  C
  C747     1.0000 0.69461  0.85212  0.47093  Biso   1.000  C
  H370     1.0000 0.71398  0.83960  0.46531  Biso   1.000  H
  C748     1.0000 0.78776  0.61246  0.48355  Biso   1.000  C
  H371     1.0000 0.76662  0.62230  0.47920  Biso   1.000  H
  C749     1.0000 0.69686  0.88198  0.47803  Biso   1.000  C
  H372     1.0000 0.71838  0.89205  0.47762  Biso   1.000  H
  C750     1.0000 0.79163  0.58205  0.48042  Biso   1.000  C
  H373     1.0000 0.77295  0.56892  0.47388  Biso   1.000  H
  C751     1.0000 0.68015  0.78700  0.46878  Biso   1.000  C
  C752     1.0000 0.79068  0.67936  0.49073  Biso   1.000  C
  C753     1.0000 0.70164  0.78261  0.44733  Biso   1.000  C
  H374     1.0000 0.70230  0.79654  0.42810  Biso   1.000  H
  C754     1.0000 0.79595  0.70402  0.47315  Biso   1.000  C
  H375     1.0000 0.81732  0.70738  0.46334  Biso   1.000  H
  C755     1.0000 0.72272  0.76066  0.45090  Biso   1.000  C
  H376     1.0000 0.73906  0.75773  0.43393  Biso   1.000  H
  C756     1.0000 0.77391  0.72472  0.46848  Biso   1.000  C
  H377     1.0000 0.77911  0.74406  0.45573  Biso   1.000  H
  C757     1.0000 0.72293  0.74308  0.47633  Biso   1.000  C
  C758     1.0000 0.74591  0.72094  0.48093  Biso   1.000  C
  C759     1.0000 0.67943  0.76887  0.49355  Biso   1.000  C
  C760     1.0000 0.70073  0.74719  0.49741  Biso   1.000  C
  H378     1.0000 0.70023  0.73266  0.51776  Biso   1.000  H
  H379     1.0000 0.66138  0.77185  0.51060  Biso   1.000  H
  H380     1.0000 0.71774  0.69207  0.50765  Biso   1.000  H
  Cu37     1.0000 0.48964  0.85130  0.48502  Biso   1.000  Cu
  Cu38     1.0000 0.48241  0.79715  0.48301  Biso   1.000  Cu
  O153     1.0000 0.02295  0.70415  0.51584  Biso   1.000  O
  O154     1.0000 0.44439  0.80530  0.48169  Biso   1.000  O
  O155     1.0000 0.02906  0.65587  0.51392  Biso   1.000  O
  O156     1.0000 0.44960  0.85363  0.48458  Biso   1.000  O
  O157     1.0000 0.14893  0.55528  0.50970  Biso   1.000  O
  O158     1.0000 0.34708  0.97536  0.51111  Biso   1.000  O
  O159     1.0000 0.19737  0.55690  0.51446  Biso   1.000  O
  O160     1.0000 0.29892  0.97803  0.51798  Biso   1.000  O
  N39      1.0000 0.16020  0.68936  0.53302  Biso   1.000  N
  N40      1.0000 0.31312  0.84126  0.50397  Biso   1.000  N
  C761     1.0000 0.24050  0.80429  0.50208  Biso   1.000  C
  C762     1.0000 0.26276  0.82480  0.49711  Biso   1.000  C
  H381     1.0000 0.25837  0.84371  0.48341  Biso   1.000  H
  C763     1.0000 0.08348  0.71358  0.52394  Biso   1.000  C
  H382     1.0000 0.06982  0.73297  0.52523  Biso   1.000  H
  C764     1.0000 0.38428  0.80762  0.48425  Biso   1.000  C
  H383     1.0000 0.39424  0.78655  0.47968  Biso   1.000  H
  C765     1.0000 0.11353  0.71644  0.52999  Biso   1.000  C
  H384     1.0000 0.12273  0.73750  0.53592  Biso   1.000  H
  C766     1.0000 0.35409  0.80852  0.49021  Biso   1.000  C
  H385     1.0000 0.34126  0.78858  0.48976  Biso   1.000  H
  C767     1.0000 0.13099  0.69142  0.52823  Biso   1.000  C
  C768     1.0000 0.34144  0.83561  0.49679  Biso   1.000  C
  C769     1.0000 0.11925  0.66452  0.52075  Biso   1.000  C
  C770     1.0000 0.35789  0.86100  0.49632  Biso   1.000  C
  C771     1.0000 0.08955  0.66103  0.51428  Biso   1.000  C
  H386     1.0000 0.08102  0.63972  0.50817  Biso   1.000  H
  C772     1.0000 0.38793  0.86085  0.49058  Biso   1.000  C
  H387     1.0000 0.40036  0.88108  0.49113  Biso   1.000  H
  C773     1.0000 0.07121  0.68603  0.51598  Biso   1.000  C
  C774     1.0000 0.40154  0.83356  0.48479  Biso   1.000  C
  C775     1.0000 0.03964  0.68218  0.51412  Biso   1.000  C
  C776     1.0000 0.43321  0.83056  0.48366  Biso   1.000  C
  C777     1.0000 0.17310  0.56994  0.51146  Biso   1.000  C
  C778     1.0000 0.32186  0.96294  0.51474  Biso   1.000  C
  C779     1.0000 0.17172  0.60150  0.51382  Biso   1.000  C
  C780     1.0000 0.31938  0.93122  0.51459  Biso   1.000  C
  C781     1.0000 0.14388  0.61527  0.51324  Biso   1.000  C
  H388     1.0000 0.12429  0.60345  0.50684  Biso   1.000  H
  C782     1.0000 0.34354  0.91353  0.50650  Biso   1.000  C
  H389     1.0000 0.36508  0.92283  0.50276  Biso   1.000  H
  C783     1.0000 0.14234  0.64492  0.52065  Biso   1.000  C
  C784     1.0000 0.33893  0.88349  0.50327  Biso   1.000  C
  C785     1.0000 0.16693  0.66083  0.52830  Biso   1.000  C
  C786     1.0000 0.31184  0.87073  0.50782  Biso   1.000  C
  C787     1.0000 0.19461  0.64788  0.52907  Biso   1.000  C
  H390     1.0000 0.21398  0.66040  0.53469  Biso   1.000  H
  C788     1.0000 0.28776  0.88754  0.51645  Biso   1.000  C
  H391     1.0000 0.26662  0.87770  0.52080  Biso   1.000  H
  C789     1.0000 0.19686  0.61802  0.52197  Biso   1.000  C
  H392     1.0000 0.21838  0.60795  0.52238  Biso   1.000  H
  C790     1.0000 0.29163  0.91795  0.51958  Biso   1.000  C
  H393     1.0000 0.27295  0.93108  0.52612  Biso   1.000  H
  C791     1.0000 0.18015  0.71300  0.53122  Biso   1.000  C
  C792     1.0000 0.29068  0.82064  0.50927  Biso   1.000  C
  C793     1.0000 0.20164  0.71739  0.55267  Biso   1.000  C
  H394     1.0000 0.20230  0.70346  0.57190  Biso   1.000  H
  C794     1.0000 0.29595  0.79598  0.52685  Biso   1.000  C
  H395     1.0000 0.31732  0.79262  0.53666  Biso   1.000  H
  C795     1.0000 0.22272  0.73934  0.54910  Biso   1.000  C
  H396     1.0000 0.23906  0.74227  0.56607  Biso   1.000  H
  C796     1.0000 0.27391  0.77528  0.53152  Biso   1.000  C
  H397     1.0000 0.27911  0.75594  0.54427  Biso   1.000  H
  C797     1.0000 0.22293  0.75692  0.52367  Biso   1.000  C
  C798     1.0000 0.24591  0.77906  0.51907  Biso   1.000  C
  C799     1.0000 0.17943  0.73113  0.50645  Biso   1.000  C
  C800     1.0000 0.20073  0.75281  0.50259  Biso   1.000  C
  H398     1.0000 0.20023  0.76734  0.48224  Biso   1.000  H
  H399     1.0000 0.16138  0.72815  0.48940  Biso   1.000  H
  H400     1.0000 0.21774  0.80793  0.49235  Biso   1.000  H
  Cu39     1.0000 0.98964  0.64870  0.51498  Biso   1.000  Cu
  Cu40     1.0000 0.98241  0.70285  0.51699  Biso   1.000  Cu
  O161     1.0000 0.98416  0.97705  0.20415  Biso   1.000  O
  O162     1.0000 0.01831  0.55561  0.30530  Biso   1.000  O
  O163     1.0000 0.98608  0.97094  0.15587  Biso   1.000  O
  O164     1.0000 0.01542  0.55040  0.35363  Biso   1.000  O
  O165     1.0000 0.99030  0.85107  0.05528  Biso   1.000  O
  O166     1.0000 0.98889  0.65292  0.47536  Biso   1.000  O
  O167     1.0000 0.98554  0.80263  0.05690  Biso   1.000  O
  O168     1.0000 0.98202  0.70108  0.47803  Biso   1.000  O
  N41      1.0000 0.96698  0.83980  0.18936  Biso   1.000  N
  N42      1.0000 0.99603  0.68688  0.34126  Biso   1.000  N
  C801     1.0000 0.99792  0.75950  0.30429  Biso   1.000  C
  C802     1.0000 0.00289  0.73724  0.32480  Biso   1.000  C
  H401     1.0000 0.01659  0.74163  0.34371  Biso   1.000  H
  C803     1.0000 0.97606  0.91652  0.21358  Biso   1.000  C
  H402     1.0000 0.97477  0.93018  0.23297  Biso   1.000  H
  C804     1.0000 0.01575  0.61572  0.30762  Biso   1.000  C
  H403     1.0000 0.02032  0.60576  0.28655  Biso   1.000  H
  C805     1.0000 0.97001  0.88647  0.21644  Biso   1.000  C
  H404     1.0000 0.96408  0.87727  0.23750  Biso   1.000  H
  C806     1.0000 0.00979  0.64591  0.30852  Biso   1.000  C
  H405     1.0000 0.01024  0.65874  0.28858  Biso   1.000  H
  C807     1.0000 0.97177  0.86901  0.19142  Biso   1.000  C
  C808     1.0000 0.00321  0.65856  0.33561  Biso   1.000  C
  C809     1.0000 0.97925  0.88075  0.16452  Biso   1.000  C
  C810     1.0000 0.00368  0.64211  0.36100  Biso   1.000  C
  C811     1.0000 0.98572  0.91045  0.16103  Biso   1.000  C
  H406     1.0000 0.99183  0.91898  0.13972  Biso   1.000  H
  C812     1.0000 0.00942  0.61207  0.36085  Biso   1.000  C
  H407     1.0000 0.00887  0.59964  0.38108  Biso   1.000  H
  C813     1.0000 0.98402  0.92879  0.18603  Biso   1.000  C
  C814     1.0000 0.01521  0.59846  0.33356  Biso   1.000  C
  C815     1.0000 0.98588  0.96036  0.18218  Biso   1.000  C
  C816     1.0000 0.01634  0.56679  0.33056  Biso   1.000  C
  C817     1.0000 0.98854  0.82690  0.06994  Biso   1.000  C
  C818     1.0000 0.98526  0.67814  0.46294  Biso   1.000  C
  C819     1.0000 0.98618  0.82828  0.10150  Biso   1.000  C
  C820     1.0000 0.98541  0.68062  0.43122  Biso   1.000  C
  C821     1.0000 0.98676  0.85612  0.11527  Biso   1.000  C
  H408     1.0000 0.99316  0.87571  0.10345  Biso   1.000  H
  C822     1.0000 0.99350  0.65646  0.41353  Biso   1.000  C
  H409     1.0000 0.99724  0.63492  0.42283  Biso   1.000  H
  C823     1.0000 0.97935  0.85766  0.14492  Biso   1.000  C
  C824     1.0000 0.99673  0.66107  0.38349  Biso   1.000  C
  C825     1.0000 0.97170  0.83307  0.16083  Biso   1.000  C
  C826     1.0000 0.99218  0.68816  0.37073  Biso   1.000  C
  C827     1.0000 0.97093  0.80539  0.14788  Biso   1.000  C
  H410     1.0000 0.96531  0.78602  0.16040  Biso   1.000  H
  C828     1.0000 0.98355  0.71224  0.38754  Biso   1.000  C
  H411     1.0000 0.97920  0.73338  0.37770  Biso   1.000  H
  C829     1.0000 0.97803  0.80314  0.11802  Biso   1.000  C
  H412     1.0000 0.97762  0.78162  0.10795  Biso   1.000  H
  C830     1.0000 0.98042  0.70837  0.41795  Biso   1.000  C
  H413     1.0000 0.97388  0.72705  0.43108  Biso   1.000  H
  C831     1.0000 0.96878  0.81985  0.21300  Biso   1.000  C
  C832     1.0000 0.99073  0.70932  0.32064  Biso   1.000  C
  C833     1.0000 0.94733  0.79836  0.21739  Biso   1.000  C
  H414     1.0000 0.92810  0.79770  0.20346  Biso   1.000  H
  C834     1.0000 0.97315  0.70405  0.29598  Biso   1.000  C
  H415     1.0000 0.96334  0.68268  0.29262  Biso   1.000  H
  C835     1.0000 0.95090  0.77728  0.23934  Biso   1.000  C
  H416     1.0000 0.93393  0.76094  0.24227  Biso   1.000  H
  C836     1.0000 0.96848  0.72609  0.27528  Biso   1.000  C
  H417     1.0000 0.95573  0.72089  0.25594  Biso   1.000  H
  C837     1.0000 0.97633  0.77707  0.25692  Biso   1.000  C
  C838     1.0000 0.98093  0.75409  0.27906  Biso   1.000  C
  C839     1.0000 0.99355  0.82057  0.23113  Biso   1.000  C
  C840     1.0000 0.99741  0.79927  0.25281  Biso   1.000  C
  H418     1.0000 0.01776  0.79977  0.26734  Biso   1.000  H
  H419     1.0000 0.01060  0.83862  0.22815  Biso   1.000  H
  H420     1.0000 0.00765  0.78226  0.30793  Biso   1.000  H
  Cu41     1.0000 0.98502  0.01036  0.14870  Biso   1.000  Cu
  Cu42     1.0000 0.98301  0.01759  0.20285  Biso   1.000  Cu
  O169     1.0000 0.01584  0.47705  0.29585  Biso   1.000  O
  O170     1.0000 0.98169  0.05561  0.19470  Biso   1.000  O
  O171     1.0000 0.01392  0.47094  0.34413  Biso   1.000  O
  O172     1.0000 0.98458  0.05040  0.14637  Biso   1.000  O
  O173     1.0000 0.00970  0.35107  0.44472  Biso   1.000  O
  O174     1.0000 0.01111  0.15292  0.02464  Biso   1.000  O
  O175     1.0000 0.01446  0.30263  0.44310  Biso   1.000  O
  O176     1.0000 0.01798  0.20108  0.02197  Biso   1.000  O
  N43      1.0000 0.03302  0.33980  0.31064  Biso   1.000  N
  N44      1.0000 0.00397  0.18688  0.15874  Biso   1.000  N
  C841     1.0000 0.00208  0.25950  0.19571  Biso   1.000  C
  C842     1.0000 0.99711  0.23724  0.17520  Biso   1.000  C
  H421     1.0000 0.98341  0.24163  0.15629  Biso   1.000  H
  C843     1.0000 0.02394  0.41652  0.28642  Biso   1.000  C
  H422     1.0000 0.02523  0.43018  0.26703  Biso   1.000  H
  C844     1.0000 0.98425  0.11572  0.19238  Biso   1.000  C
  H423     1.0000 0.97968  0.10576  0.21345  Biso   1.000  H
  C845     1.0000 0.02999  0.38647  0.28356  Biso   1.000  C
  H424     1.0000 0.03592  0.37727  0.26250  Biso   1.000  H
  C846     1.0000 0.99021  0.14591  0.19148  Biso   1.000  C
  H425     1.0000 0.98976  0.15874  0.21142  Biso   1.000  H
  C847     1.0000 0.02823  0.36901  0.30858  Biso   1.000  C
  C848     1.0000 0.99679  0.15856  0.16439  Biso   1.000  C
  C849     1.0000 0.02075  0.38075  0.33548  Biso   1.000  C
  C850     1.0000 0.99632  0.14211  0.13900  Biso   1.000  C
  C851     1.0000 0.01428  0.41045  0.33897  Biso   1.000  C
  H426     1.0000 0.00817  0.41898  0.36028  Biso   1.000  H
  C852     1.0000 0.99058  0.11207  0.13915  Biso   1.000  C
  H427     1.0000 0.99113  0.09964  0.11892  Biso   1.000  H
  C853     1.0000 0.01598  0.42879  0.31397  Biso   1.000  C
  C854     1.0000 0.98479  0.09846  0.16644  Biso   1.000  C
  C855     1.0000 0.01412  0.46036  0.31782  Biso   1.000  C
  C856     1.0000 0.98366  0.06679  0.16944  Biso   1.000  C
  C857     1.0000 0.01146  0.32690  0.43006  Biso   1.000  C
  C858     1.0000 0.01474  0.17814  0.03706  Biso   1.000  C
  C859     1.0000 0.01382  0.32828  0.39850  Biso   1.000  C
  C860     1.0000 0.01459  0.18062  0.06878  Biso   1.000  C
  C861     1.0000 0.01324  0.35612  0.38473  Biso   1.000  C
  H428     1.0000 0.00684  0.37571  0.39655  Biso   1.000  H
  C862     1.0000 0.00650  0.15646  0.08647  Biso   1.000  C
  H429     1.0000 0.00276  0.13492  0.07717  Biso   1.000  H
  C863     1.0000 0.02065  0.35766  0.35508  Biso   1.000  C
  C864     1.0000 0.00327  0.16107  0.11651  Biso   1.000  C
  C865     1.0000 0.02830  0.33307  0.33917  Biso   1.000  C
  C866     1.0000 0.00782  0.18816  0.12927  Biso   1.000  C
  C867     1.0000 0.02907  0.30539  0.35212  Biso   1.000  C
  H430     1.0000 0.03469  0.28602  0.33960  Biso   1.000  H
  C868     1.0000 0.01645  0.21224  0.11246  Biso   1.000  C
  H431     1.0000 0.02080  0.23338  0.12230  Biso   1.000  H
  C869     1.0000 0.02197  0.30314  0.38198  Biso   1.000  C
  H432     1.0000 0.02238  0.28162  0.39205  Biso   1.000  H
  C870     1.0000 0.01958  0.20837  0.08205  Biso   1.000  C
  H433     1.0000 0.02612  0.22705  0.06892  Biso   1.000  H
  C871     1.0000 0.03122  0.31985  0.28700  Biso   1.000  C
  C872     1.0000 0.00927  0.20932  0.17936  Biso   1.000  C
  C873     1.0000 0.05267  0.29836  0.28261  Biso   1.000  C
  H434     1.0000 0.07190  0.29770  0.29654  Biso   1.000  H
  C874     1.0000 0.02685  0.20405  0.20402  Biso   1.000  C
  H435     1.0000 0.03666  0.18268  0.20738  Biso   1.000  H
  C875     1.0000 0.04910  0.27728  0.26066  Biso   1.000  C
  H436     1.0000 0.06607  0.26094  0.25773  Biso   1.000  H
  C876     1.0000 0.03152  0.22609  0.22472  Biso   1.000  C
  H437     1.0000 0.04427  0.22089  0.24406  Biso   1.000  H
  C877     1.0000 0.02367  0.27707  0.24308  Biso   1.000  C
  C878     1.0000 0.01907  0.25409  0.22094  Biso   1.000  C
  C879     1.0000 0.00645  0.32057  0.26887  Biso   1.000  C
  C880     1.0000 0.00259  0.29927  0.24719  Biso   1.000  C
  H438     1.0000 0.98224  0.29977  0.23266  Biso   1.000  H
  H439     1.0000 0.98940  0.33862  0.27185  Biso   1.000  H
  H440     1.0000 0.99235  0.28226  0.19207  Biso   1.000  H
  Cu43     1.0000 0.01498  0.51036  0.35130  Biso   1.000  Cu
  Cu44     1.0000 0.01699  0.51759  0.29715  Biso   1.000  Cu
  O177     1.0000 0.48416  0.52295  0.79585  Biso   1.000  O
  O178     1.0000 0.51831  0.94439  0.69470  Biso   1.000  O
  O179     1.0000 0.48608  0.52906  0.84413  Biso   1.000  O
  O180     1.0000 0.51542  0.94960  0.64637  Biso   1.000  O
  O181     1.0000 0.49030  0.64893  0.94472  Biso   1.000  O
  O182     1.0000 0.48889  0.84708  0.52464  Biso   1.000  O
  O183     1.0000 0.48554  0.69737  0.94310  Biso   1.000  O
  O184     1.0000 0.48202  0.79892  0.52197  Biso   1.000  O
  N45      1.0000 0.46698  0.66020  0.81064  Biso   1.000  N
  N46      1.0000 0.49603  0.81312  0.65874  Biso   1.000  N
  C881     1.0000 0.49792  0.74050  0.69571  Biso   1.000  C
  C882     1.0000 0.50289  0.76276  0.67520  Biso   1.000  C
  H441     1.0000 0.51659  0.75837  0.65629  Biso   1.000  H
  C883     1.0000 0.47606  0.58348  0.78642  Biso   1.000  C
  H442     1.0000 0.47477  0.56982  0.76703  Biso   1.000  H
  C884     1.0000 0.51575  0.88428  0.69238  Biso   1.000  C
  H443     1.0000 0.52032  0.89424  0.71345  Biso   1.000  H
  C885     1.0000 0.47001  0.61353  0.78356  Biso   1.000  C
  H444     1.0000 0.46408  0.62273  0.76250  Biso   1.000  H
  C886     1.0000 0.50979  0.85409  0.69148  Biso   1.000  C
  H445     1.0000 0.51024  0.84126  0.71142  Biso   1.000  H
  C887     1.0000 0.47177  0.63099  0.80858  Biso   1.000  C
  C888     1.0000 0.50321  0.84144  0.66439  Biso   1.000  C
  C889     1.0000 0.47925  0.61925  0.83548  Biso   1.000  C
  C890     1.0000 0.50368  0.85789  0.63900  Biso   1.000  C
  C891     1.0000 0.48572  0.58955  0.83897  Biso   1.000  C
  H446     1.0000 0.49183  0.58102  0.86028  Biso   1.000  H
  C892     1.0000 0.50942  0.88793  0.63915  Biso   1.000  C
  H447     1.0000 0.50887  0.90036  0.61892  Biso   1.000  H
  C893     1.0000 0.48402  0.57121  0.81397  Biso   1.000  C
  C894     1.0000 0.51521  0.90154  0.66644  Biso   1.000  C
  C895     1.0000 0.48588  0.53964  0.81782  Biso   1.000  C
  C896     1.0000 0.51634  0.93321  0.66944  Biso   1.000  C
  C897     1.0000 0.48854  0.67310  0.93006  Biso   1.000  C
  C898     1.0000 0.48526  0.82186  0.53706  Biso   1.000  C
  C899     1.0000 0.48618  0.67172  0.89850  Biso   1.000  C
  C900     1.0000 0.48541  0.81938  0.56878  Biso   1.000  C
  C901     1.0000 0.48676  0.64388  0.88473  Biso   1.000  C
  H448     1.0000 0.49316  0.62429  0.89655  Biso   1.000  H
  C902     1.0000 0.49350  0.84354  0.58647  Biso   1.000  C
  H449     1.0000 0.49724  0.86508  0.57717  Biso   1.000  H
  C903     1.0000 0.47935  0.64234  0.85508  Biso   1.000  C
  C904     1.0000 0.49673  0.83893  0.61651  Biso   1.000  C
  C905     1.0000 0.47170  0.66693  0.83917  Biso   1.000  C
  C906     1.0000 0.49218  0.81184  0.62927  Biso   1.000  C
  C907     1.0000 0.47093  0.69461  0.85212  Biso   1.000  C
  H450     1.0000 0.46531  0.71398  0.83960  Biso   1.000  H
  C908     1.0000 0.48355  0.78776  0.61246  Biso   1.000  C
  H451     1.0000 0.47920  0.76662  0.62230  Biso   1.000  H
  C909     1.0000 0.47803  0.69686  0.88198  Biso   1.000  C
  H452     1.0000 0.47762  0.71838  0.89205  Biso   1.000  H
  C910     1.0000 0.48042  0.79163  0.58205  Biso   1.000  C
  H453     1.0000 0.47388  0.77295  0.56892  Biso   1.000  H
  C911     1.0000 0.46878  0.68015  0.78700  Biso   1.000  C
  C912     1.0000 0.49073  0.79068  0.67936  Biso   1.000  C
  C913     1.0000 0.44733  0.70164  0.78261  Biso   1.000  C
  H454     1.0000 0.42810  0.70230  0.79654  Biso   1.000  H
  C914     1.0000 0.47315  0.79595  0.70402  Biso   1.000  C
  H455     1.0000 0.46334  0.81732  0.70738  Biso   1.000  H
  C915     1.0000 0.45090  0.72272  0.76066  Biso   1.000  C
  H456     1.0000 0.43393  0.73906  0.75773  Biso   1.000  H
  C916     1.0000 0.46848  0.77391  0.72472  Biso   1.000  C
  H457     1.0000 0.45573  0.77911  0.74406  Biso   1.000  H
  C917     1.0000 0.47633  0.72293  0.74308  Biso   1.000  C
  C918     1.0000 0.48093  0.74591  0.72094  Biso   1.000  C
  C919     1.0000 0.49355  0.67943  0.76887  Biso   1.000  C
  C920     1.0000 0.49741  0.70073  0.74719  Biso   1.000  C
  H458     1.0000 0.51776  0.70023  0.73266  Biso   1.000  H
  H459     1.0000 0.51060  0.66138  0.77185  Biso   1.000  H
  H460     1.0000 0.50765  0.71774  0.69207  Biso   1.000  H
  Cu45     1.0000 0.48502  0.48964  0.85130  Biso   1.000  Cu
  Cu46     1.0000 0.48301  0.48241  0.79715  Biso   1.000  Cu
  O185     1.0000 0.51584  0.02295  0.70415  Biso   1.000  O
  O186     1.0000 0.48169  0.44439  0.80530  Biso   1.000  O
  O187     1.0000 0.51392  0.02906  0.65587  Biso   1.000  O
  O188     1.0000 0.48458  0.44960  0.85363  Biso   1.000  O
  O189     1.0000 0.50970  0.14893  0.55528  Biso   1.000  O
  O190     1.0000 0.51111  0.34708  0.97536  Biso   1.000  O
  O191     1.0000 0.51446  0.19737  0.55690  Biso   1.000  O
  O192     1.0000 0.51798  0.29892  0.97803  Biso   1.000  O
  N47      1.0000 0.53302  0.16020  0.68936  Biso   1.000  N
  N48      1.0000 0.50397  0.31312  0.84126  Biso   1.000  N
  C921     1.0000 0.50208  0.24050  0.80429  Biso   1.000  C
  C922     1.0000 0.49711  0.26276  0.82480  Biso   1.000  C
  H461     1.0000 0.48341  0.25837  0.84371  Biso   1.000  H
  C923     1.0000 0.52394  0.08348  0.71358  Biso   1.000  C
  H462     1.0000 0.52523  0.06982  0.73297  Biso   1.000  H
  C924     1.0000 0.48425  0.38428  0.80762  Biso   1.000  C
  H463     1.0000 0.47968  0.39424  0.78655  Biso   1.000  H
  C925     1.0000 0.52999  0.11353  0.71644  Biso   1.000  C
  H464     1.0000 0.53592  0.12273  0.73750  Biso   1.000  H
  C926     1.0000 0.49021  0.35409  0.80852  Biso   1.000  C
  H465     1.0000 0.48976  0.34126  0.78858  Biso   1.000  H
  C927     1.0000 0.52823  0.13099  0.69142  Biso   1.000  C
  C928     1.0000 0.49679  0.34144  0.83561  Biso   1.000  C
  C929     1.0000 0.52075  0.11925  0.66452  Biso   1.000  C
  C930     1.0000 0.49632  0.35789  0.86100  Biso   1.000  C
  C931     1.0000 0.51428  0.08955  0.66103  Biso   1.000  C
  H466     1.0000 0.50817  0.08102  0.63972  Biso   1.000  H
  C932     1.0000 0.49058  0.38793  0.86085  Biso   1.000  C
  H467     1.0000 0.49113  0.40036  0.88108  Biso   1.000  H
  C933     1.0000 0.51598  0.07121  0.68603  Biso   1.000  C
  C934     1.0000 0.48479  0.40154  0.83356  Biso   1.000  C
  C935     1.0000 0.51412  0.03964  0.68218  Biso   1.000  C
  C936     1.0000 0.48366  0.43321  0.83056  Biso   1.000  C
  C937     1.0000 0.51146  0.17310  0.56994  Biso   1.000  C
  C938     1.0000 0.51474  0.32186  0.96294  Biso   1.000  C
  C939     1.0000 0.51382  0.17172  0.60150  Biso   1.000  C
  C940     1.0000 0.51459  0.31938  0.93122  Biso   1.000  C
  C941     1.0000 0.51324  0.14388  0.61527  Biso   1.000  C
  H468     1.0000 0.50684  0.12429  0.60345  Biso   1.000  H
  C942     1.0000 0.50650  0.34354  0.91353  Biso   1.000  C
  H469     1.0000 0.50276  0.36508  0.92283  Biso   1.000  H
  C943     1.0000 0.52065  0.14234  0.64492  Biso   1.000  C
  C944     1.0000 0.50327  0.33893  0.88349  Biso   1.000  C
  C945     1.0000 0.52830  0.16693  0.66083  Biso   1.000  C
  C946     1.0000 0.50782  0.31184  0.87073  Biso   1.000  C
  C947     1.0000 0.52907  0.19461  0.64788  Biso   1.000  C
  H470     1.0000 0.53469  0.21398  0.66040  Biso   1.000  H
  C948     1.0000 0.51645  0.28776  0.88754  Biso   1.000  C
  H471     1.0000 0.52080  0.26662  0.87770  Biso   1.000  H
  C949     1.0000 0.52197  0.19686  0.61802  Biso   1.000  C
  H472     1.0000 0.52238  0.21838  0.60795  Biso   1.000  H
  C950     1.0000 0.51958  0.29163  0.91795  Biso   1.000  C
  H473     1.0000 0.52612  0.27295  0.93108  Biso   1.000  H
  C951     1.0000 0.53122  0.18015  0.71300  Biso   1.000  C
  C952     1.0000 0.50927  0.29068  0.82064  Biso   1.000  C
  C953     1.0000 0.55267  0.20164  0.71739  Biso   1.000  C
  H474     1.0000 0.57190  0.20230  0.70346  Biso   1.000  H
  C954     1.0000 0.52685  0.29595  0.79598  Biso   1.000  C
  H475     1.0000 0.53666  0.31732  0.79262  Biso   1.000  H
  C955     1.0000 0.54910  0.22272  0.73934  Biso   1.000  C
  H476     1.0000 0.56607  0.23906  0.74227  Biso   1.000  H
  C956     1.0000 0.53152  0.27391  0.77528  Biso   1.000  C
  H477     1.0000 0.54427  0.27911  0.75594  Biso   1.000  H
  C957     1.0000 0.52367  0.22293  0.75692  Biso   1.000  C
  C958     1.0000 0.51907  0.24591  0.77906  Biso   1.000  C
  C959     1.0000 0.50645  0.17943  0.73113  Biso   1.000  C
  C960     1.0000 0.50259  0.20073  0.75281  Biso   1.000  C
  H478     1.0000 0.48224  0.20023  0.76734  Biso   1.000  H
  H479     1.0000 0.48940  0.16138  0.72815  Biso   1.000  H
  H480     1.0000 0.49235  0.21774  0.80793  Biso   1.000  H
  Cu47     1.0000 0.51498  0.98964  0.64870  Biso   1.000  Cu
  Cu48     1.0000 0.51699  0.98241  0.70285  Biso   1.000  Cu
