data_image0
_cell_length_a       20.3756
_cell_length_b       28.3927
_cell_length_c       28.3927
_cell_angle_alpha    90
_cell_angle_beta     90
_cell_angle_gamma    90

_symmetry_space_group_name_H-M    P 1
_symmetry_int_tables_number       1

loop_
  _symmetry_equiv_pos_as_xyz
  'x, y, z'

loop_
  _atom_site_label
  _atom_site_occupancy
  _atom_site_fract_x
  _atom_site_fract_y
  _atom_site_fract_z
  _atom_site_thermal_displace_type
  _atom_site_B_iso_or_equiv
  _atom_site_type_symbol
  Zn1      1.0000 0.64170  0.08351  0.78122  Biso   1.000  Zn
  Zn2      1.0000 0.14170  0.91649  0.21878  Biso   1.000  Zn
  Zn3      1.0000 0.89170  0.71878  0.58351  Biso   1.000  Zn
  Zn4      1.0000 0.39170  0.28122  0.41649  Biso   1.000  Zn
  Zn5      1.0000 0.60830  0.41649  0.28122  Biso   1.000  Zn
  Zn6      1.0000 0.10830  0.58351  0.71878  Biso   1.000  Zn
  Zn7      1.0000 0.35830  0.78122  0.08351  Biso   1.000  Zn
  Zn8      1.0000 0.85830  0.21878  0.91649  Biso   1.000  Zn
  Zn9      1.0000 0.75000  0.14797  0.85203  Biso   1.000  Zn
  Zn10     1.0000 0.25000  0.85203  0.14797  Biso   1.000  Zn
  Zn11     1.0000 0.00000  0.64797  0.64797  Biso   1.000  Zn
  Zn12     1.0000 0.50000  0.35203  0.35203  Biso   1.000  Zn
  H1       1.0000 0.53890  0.11050  0.66120  Biso   1.000  H
  H2       1.0000 0.53960  0.12670  0.60840  Biso   1.000  H
  H3       1.0000 0.64550  0.11130  0.66270  Biso   1.000  H
  H4       1.0000 0.71070  0.13390  0.59470  Biso   1.000  H
  H5       1.0000 0.64720  0.15240  0.56930  Biso   1.000  H
  H6       1.0000 0.70530  0.04530  0.61970  Biso   1.000  H
  H7       1.0000 0.69720  0.97340  0.59040  Biso   1.000  H
  H8       1.0000 0.63800  0.95970  0.52530  Biso   1.000  H
  H9       1.0000 0.56560  0.02210  0.49830  Biso   1.000  H
  H10      1.0000 0.59360  0.09810  0.52260  Biso   1.000  H
  H11      1.0000 0.07440  0.48260  0.80020  Biso   1.000  H
  H12      1.0000 0.06970  0.42910  0.81400  Biso   1.000  H
  H13      1.0000 0.08290  0.46040  0.72220  Biso   1.000  H
  H14      1.0000 0.03160  0.36920  0.73760  Biso   1.000  H
  H15      1.0000 0.06990  0.38590  0.69280  Biso   1.000  H
  H16      1.0000 0.15650  0.32930  0.80610  Biso   1.000  H
  H17      1.0000 0.26800  0.32260  0.79100  Biso   1.000  H
  H18      1.0000 0.31280  0.35770  0.72460  Biso   1.000  H
  H19      1.0000 0.24600  0.39940  0.67320  Biso   1.000  H
  H20      1.0000 0.13450  0.40610  0.68830  Biso   1.000  H
  H21      1.0000 0.81200  0.52210  0.36570  Biso   1.000  H
  H22      1.0000 0.75760  0.50690  0.32900  Biso   1.000  H
  H23      1.0000 0.80850  0.47020  0.39970  Biso   1.000  H
  H24      1.0000 0.79290  0.39490  0.35660  Biso   1.000  H
  H25      1.0000 0.80060  0.42970  0.31490  Biso   1.000  H
  H26      1.0000 0.82820  0.41190  0.54190  Biso   1.000  H
  H27      1.0000 0.85410  0.33760  0.66110  Biso   1.000  H
  H28      1.0000 0.74150  0.28460  0.55890  Biso   1.000  H
  H29      1.0000 0.85600  0.26750  0.69050  Biso   1.000  H
  H30      1.0000 0.82080  0.20580  0.73970  Biso   1.000  H
  H31      1.0000 0.69490  0.24930  0.61350  Biso   1.000  H
  H32      1.0000 0.88600  0.46380  0.56510  Biso   1.000  H
  H33      1.0000 0.94200  0.52300  0.59220  Biso   1.000  H
  H34      1.0000 0.91490  0.39220  0.68560  Biso   1.000  H
  H35      1.0000 0.69290  0.29590  0.49440  Biso   1.000  H
  H36      1.0000 0.64860  0.30540  0.42260  Biso   1.000  H
  H37      1.0000 0.78560  0.41640  0.48170  Biso   1.000  H
  H38      1.0000 0.03890  0.88950  0.33880  Biso   1.000  H
  H39      1.0000 0.03960  0.87330  0.39160  Biso   1.000  H
  H40      1.0000 0.14550  0.88870  0.33730  Biso   1.000  H
  H41      1.0000 0.21070  0.86610  0.40530  Biso   1.000  H
  H42      1.0000 0.14720  0.84760  0.43070  Biso   1.000  H
  H43      1.0000 0.20530  0.95470  0.38030  Biso   1.000  H
  H44      1.0000 0.19720  0.02660  0.40960  Biso   1.000  H
  H45      1.0000 0.13800  0.04030  0.47470  Biso   1.000  H
  H46      1.0000 0.06560  0.97790  0.50170  Biso   1.000  H
  H47      1.0000 0.09360  0.90190  0.47740  Biso   1.000  H
  H48      1.0000 0.57440  0.51740  0.19980  Biso   1.000  H
  H49      1.0000 0.56970  0.57090  0.18600  Biso   1.000  H
  H50      1.0000 0.58290  0.53960  0.27780  Biso   1.000  H
  H51      1.0000 0.53160  0.63080  0.26240  Biso   1.000  H
  H52      1.0000 0.56990  0.61410  0.30720  Biso   1.000  H
  H53      1.0000 0.65650  0.67070  0.19390  Biso   1.000  H
  H54      1.0000 0.76800  0.67740  0.20900  Biso   1.000  H
  H55      1.0000 0.81280  0.64230  0.27540  Biso   1.000  H
  H56      1.0000 0.74600  0.60060  0.32680  Biso   1.000  H
  H57      1.0000 0.63450  0.59390  0.31170  Biso   1.000  H
  H58      1.0000 0.31200  0.47790  0.63430  Biso   1.000  H
  H59      1.0000 0.25760  0.49310  0.67100  Biso   1.000  H
  H60      1.0000 0.30850  0.52980  0.60030  Biso   1.000  H
  H61      1.0000 0.29290  0.60510  0.64340  Biso   1.000  H
  H62      1.0000 0.30060  0.57030  0.68510  Biso   1.000  H
  H63      1.0000 0.32820  0.58810  0.45810  Biso   1.000  H
  H64      1.0000 0.35410  0.66240  0.33890  Biso   1.000  H
  H65      1.0000 0.24150  0.71540  0.44110  Biso   1.000  H
  H66      1.0000 0.35600  0.73250  0.30950  Biso   1.000  H
  H67      1.0000 0.32080  0.79420  0.26030  Biso   1.000  H
  H68      1.0000 0.19490  0.75070  0.38650  Biso   1.000  H
  H69      1.0000 0.38600  0.53620  0.43490  Biso   1.000  H
  H70      1.0000 0.44200  0.47700  0.40780  Biso   1.000  H
  H71      1.0000 0.41490  0.60780  0.31440  Biso   1.000  H
  H72      1.0000 0.19290  0.70410  0.50560  Biso   1.000  H
  H73      1.0000 0.14860  0.69460  0.57740  Biso   1.000  H
  H74      1.0000 0.28560  0.58360  0.51830  Biso   1.000  H
  H75      1.0000 0.78890  0.83880  0.61050  Biso   1.000  H
  H76      1.0000 0.78960  0.89160  0.62670  Biso   1.000  H
  H77      1.0000 0.89550  0.83730  0.61130  Biso   1.000  H
  H78      1.0000 0.96070  0.90530  0.63390  Biso   1.000  H
  H79      1.0000 0.89720  0.93070  0.65240  Biso   1.000  H
  H80      1.0000 0.95530  0.88030  0.54530  Biso   1.000  H
  H81      1.0000 0.94720  0.90960  0.47340  Biso   1.000  H
  H82      1.0000 0.88800  0.97470  0.45970  Biso   1.000  H
  H83      1.0000 0.81560  0.00170  0.52210  Biso   1.000  H
  H84      1.0000 0.84360  0.97740  0.59810  Biso   1.000  H
  H85      1.0000 0.32440  0.69980  0.98260  Biso   1.000  H
  H86      1.0000 0.31970  0.68600  0.92910  Biso   1.000  H
  H87      1.0000 0.33290  0.77780  0.96040  Biso   1.000  H
  H88      1.0000 0.28160  0.76240  0.86920  Biso   1.000  H
  H89      1.0000 0.31990  0.80720  0.88590  Biso   1.000  H
  H90      1.0000 0.40650  0.69390  0.82930  Biso   1.000  H
  H91      1.0000 0.51800  0.70900  0.82260  Biso   1.000  H
  H92      1.0000 0.56280  0.77540  0.85770  Biso   1.000  H
  H93      1.0000 0.49600  0.82680  0.89940  Biso   1.000  H
  H94      1.0000 0.38450  0.81170  0.90610  Biso   1.000  H
  H95      1.0000 0.06200  0.13430  0.02210  Biso   1.000  H
  H96      1.0000 0.00760  0.17100  0.00690  Biso   1.000  H
  H97      1.0000 0.05850  0.10030  0.97020  Biso   1.000  H
  H98      1.0000 0.04290  0.14340  0.89490  Biso   1.000  H
  H99      1.0000 0.05060  0.18510  0.92970  Biso   1.000  H
  H100     1.0000 0.07820  0.95810  0.91190  Biso   1.000  H
  H101     1.0000 0.10410  0.83890  0.83760  Biso   1.000  H
  H102     1.0000 0.99150  0.94110  0.78460  Biso   1.000  H
  H103     1.0000 0.10600  0.80950  0.76750  Biso   1.000  H
  H104     1.0000 0.07080  0.76030  0.70580  Biso   1.000  H
  H105     1.0000 0.94490  0.88650  0.74930  Biso   1.000  H
  H106     1.0000 0.13600  0.93490  0.96380  Biso   1.000  H
  H107     1.0000 0.19200  0.90780  0.02300  Biso   1.000  H
  H108     1.0000 0.16490  0.81440  0.89220  Biso   1.000  H
  H109     1.0000 0.94290  0.00560  0.79590  Biso   1.000  H
  H110     1.0000 0.89860  0.07740  0.80540  Biso   1.000  H
  H111     1.0000 0.03560  0.01830  0.91640  Biso   1.000  H
  H112     1.0000 0.28890  0.16120  0.38950  Biso   1.000  H
  H113     1.0000 0.28960  0.10840  0.37330  Biso   1.000  H
  H114     1.0000 0.39550  0.16270  0.38870  Biso   1.000  H
  H115     1.0000 0.46070  0.09470  0.36610  Biso   1.000  H
  H116     1.0000 0.39720  0.06930  0.34760  Biso   1.000  H
  H117     1.0000 0.45530  0.11970  0.45470  Biso   1.000  H
  H118     1.0000 0.44720  0.09040  0.52660  Biso   1.000  H
  H119     1.0000 0.38800  0.02530  0.54030  Biso   1.000  H
  H120     1.0000 0.31560  0.99830  0.47790  Biso   1.000  H
  H121     1.0000 0.34360  0.02260  0.40190  Biso   1.000  H
  H122     1.0000 0.82440  0.30020  0.01740  Biso   1.000  H
  H123     1.0000 0.81970  0.31400  0.07090  Biso   1.000  H
  H124     1.0000 0.83290  0.22220  0.03960  Biso   1.000  H
  H125     1.0000 0.78160  0.23760  0.13080  Biso   1.000  H
  H126     1.0000 0.81990  0.19280  0.11410  Biso   1.000  H
  H127     1.0000 0.90650  0.30610  0.17070  Biso   1.000  H
  H128     1.0000 0.01800  0.29100  0.17740  Biso   1.000  H
  H129     1.0000 0.06280  0.22460  0.14230  Biso   1.000  H
  H130     1.0000 0.99600  0.17320  0.10060  Biso   1.000  H
  H131     1.0000 0.88450  0.18830  0.09390  Biso   1.000  H
  H132     1.0000 0.56200  0.86570  0.97790  Biso   1.000  H
  H133     1.0000 0.50760  0.82900  0.99310  Biso   1.000  H
  H134     1.0000 0.55850  0.89970  0.02980  Biso   1.000  H
  H135     1.0000 0.54290  0.85660  0.10510  Biso   1.000  H
  H136     1.0000 0.55060  0.81490  0.07030  Biso   1.000  H
  H137     1.0000 0.57820  0.04190  0.08810  Biso   1.000  H
  H138     1.0000 0.60410  0.16110  0.16240  Biso   1.000  H
  H139     1.0000 0.49150  0.05890  0.21540  Biso   1.000  H
  H140     1.0000 0.60600  0.19050  0.23250  Biso   1.000  H
  H141     1.0000 0.57080  0.23970  0.29420  Biso   1.000  H
  H142     1.0000 0.44490  0.11350  0.25070  Biso   1.000  H
  H143     1.0000 0.63600  0.06510  0.03620  Biso   1.000  H
  H144     1.0000 0.69200  0.09220  0.97700  Biso   1.000  H
  H145     1.0000 0.66490  0.18560  0.10780  Biso   1.000  H
  H146     1.0000 0.44290  0.99440  0.20410  Biso   1.000  H
  H147     1.0000 0.39860  0.92260  0.19460  Biso   1.000  H
  H148     1.0000 0.53560  0.98170  0.08360  Biso   1.000  H
  H149     1.0000 0.71110  0.38950  0.16120  Biso   1.000  H
  H150     1.0000 0.71040  0.37330  0.10840  Biso   1.000  H
  H151     1.0000 0.60450  0.38870  0.16270  Biso   1.000  H
  H152     1.0000 0.53930  0.36610  0.09470  Biso   1.000  H
  H153     1.0000 0.60280  0.34760  0.06930  Biso   1.000  H
  H154     1.0000 0.54470  0.45470  0.11970  Biso   1.000  H
  H155     1.0000 0.55280  0.52660  0.09040  Biso   1.000  H
  H156     1.0000 0.61200  0.54030  0.02530  Biso   1.000  H
  H157     1.0000 0.68440  0.47790  0.99830  Biso   1.000  H
  H158     1.0000 0.65640  0.40190  0.02260  Biso   1.000  H
  H159     1.0000 0.17560  0.01740  0.30020  Biso   1.000  H
  H160     1.0000 0.18030  0.07090  0.31400  Biso   1.000  H
  H161     1.0000 0.16710  0.03960  0.22220  Biso   1.000  H
  H162     1.0000 0.21840  0.13080  0.23760  Biso   1.000  H
  H163     1.0000 0.18010  0.11410  0.19280  Biso   1.000  H
  H164     1.0000 0.09350  0.17070  0.30610  Biso   1.000  H
  H165     1.0000 0.98200  0.17740  0.29100  Biso   1.000  H
  H166     1.0000 0.93720  0.14230  0.22460  Biso   1.000  H
  H167     1.0000 0.00400  0.10060  0.17320  Biso   1.000  H
  H168     1.0000 0.11550  0.09390  0.18830  Biso   1.000  H
  H169     1.0000 0.43800  0.97790  0.86570  Biso   1.000  H
  H170     1.0000 0.49240  0.99310  0.82900  Biso   1.000  H
  H171     1.0000 0.44150  0.02980  0.89970  Biso   1.000  H
  H172     1.0000 0.45710  0.10510  0.85660  Biso   1.000  H
  H173     1.0000 0.44940  0.07030  0.81490  Biso   1.000  H
  H174     1.0000 0.42180  0.08810  0.04190  Biso   1.000  H
  H175     1.0000 0.39590  0.16240  0.16110  Biso   1.000  H
  H176     1.0000 0.50850  0.21540  0.05890  Biso   1.000  H
  H177     1.0000 0.39400  0.23250  0.19050  Biso   1.000  H
  H178     1.0000 0.42920  0.29420  0.23970  Biso   1.000  H
  H179     1.0000 0.55510  0.25070  0.11350  Biso   1.000  H
  H180     1.0000 0.36400  0.03620  0.06510  Biso   1.000  H
  H181     1.0000 0.30800  0.97700  0.09220  Biso   1.000  H
  H182     1.0000 0.33510  0.10780  0.18560  Biso   1.000  H
  H183     1.0000 0.55710  0.20410  0.99440  Biso   1.000  H
  H184     1.0000 0.60140  0.19460  0.92260  Biso   1.000  H
  H185     1.0000 0.46440  0.08360  0.98170  Biso   1.000  H
  H186     1.0000 0.21110  0.61050  0.83880  Biso   1.000  H
  H187     1.0000 0.21040  0.62670  0.89160  Biso   1.000  H
  H188     1.0000 0.10450  0.61130  0.83730  Biso   1.000  H
  H189     1.0000 0.03930  0.63390  0.90530  Biso   1.000  H
  H190     1.0000 0.10280  0.65240  0.93070  Biso   1.000  H
  H191     1.0000 0.04470  0.54530  0.88030  Biso   1.000  H
  H192     1.0000 0.05280  0.47340  0.90960  Biso   1.000  H
  H193     1.0000 0.11200  0.45970  0.97470  Biso   1.000  H
  H194     1.0000 0.18440  0.52210  0.00170  Biso   1.000  H
  H195     1.0000 0.15640  0.59810  0.97740  Biso   1.000  H
  H196     1.0000 0.67560  0.98260  0.69980  Biso   1.000  H
  H197     1.0000 0.68030  0.92910  0.68600  Biso   1.000  H
  H198     1.0000 0.66710  0.96040  0.77780  Biso   1.000  H
  H199     1.0000 0.71840  0.86920  0.76240  Biso   1.000  H
  H200     1.0000 0.68010  0.88590  0.80720  Biso   1.000  H
  H201     1.0000 0.59350  0.82930  0.69390  Biso   1.000  H
  H202     1.0000 0.48200  0.82260  0.70900  Biso   1.000  H
  H203     1.0000 0.43720  0.85770  0.77540  Biso   1.000  H
  H204     1.0000 0.50400  0.89940  0.82680  Biso   1.000  H
  H205     1.0000 0.61550  0.90610  0.81170  Biso   1.000  H
  H206     1.0000 0.93800  0.02210  0.13430  Biso   1.000  H
  H207     1.0000 0.99240  0.00690  0.17100  Biso   1.000  H
  H208     1.0000 0.94150  0.97020  0.10030  Biso   1.000  H
  H209     1.0000 0.95710  0.89490  0.14340  Biso   1.000  H
  H210     1.0000 0.94940  0.92970  0.18510  Biso   1.000  H
  H211     1.0000 0.92180  0.91190  0.95810  Biso   1.000  H
  H212     1.0000 0.89590  0.83760  0.83890  Biso   1.000  H
  H213     1.0000 0.00850  0.78460  0.94110  Biso   1.000  H
  H214     1.0000 0.89400  0.76750  0.80950  Biso   1.000  H
  H215     1.0000 0.92920  0.70580  0.76030  Biso   1.000  H
  H216     1.0000 0.05510  0.74930  0.88650  Biso   1.000  H
  H217     1.0000 0.86400  0.96380  0.93490  Biso   1.000  H
  H218     1.0000 0.80800  0.02300  0.90780  Biso   1.000  H
  H219     1.0000 0.83510  0.89220  0.81440  Biso   1.000  H
  H220     1.0000 0.05710  0.79590  0.00560  Biso   1.000  H
  H221     1.0000 0.10140  0.80540  0.07740  Biso   1.000  H
  H222     1.0000 0.96440  0.91640  0.01830  Biso   1.000  H
  H223     1.0000 0.46110  0.66120  0.11050  Biso   1.000  H
  H224     1.0000 0.46040  0.60840  0.12670  Biso   1.000  H
  H225     1.0000 0.35450  0.66270  0.11130  Biso   1.000  H
  H226     1.0000 0.28930  0.59470  0.13390  Biso   1.000  H
  H227     1.0000 0.35280  0.56930  0.15240  Biso   1.000  H
  H228     1.0000 0.29470  0.61970  0.04530  Biso   1.000  H
  H229     1.0000 0.30280  0.59040  0.97340  Biso   1.000  H
  H230     1.0000 0.36200  0.52530  0.95970  Biso   1.000  H
  H231     1.0000 0.43440  0.49830  0.02210  Biso   1.000  H
  H232     1.0000 0.40640  0.52260  0.09810  Biso   1.000  H
  H233     1.0000 0.92560  0.80020  0.48260  Biso   1.000  H
  H234     1.0000 0.93030  0.81400  0.42910  Biso   1.000  H
  H235     1.0000 0.91710  0.72220  0.46040  Biso   1.000  H
  H236     1.0000 0.96840  0.73760  0.36920  Biso   1.000  H
  H237     1.0000 0.93010  0.69280  0.38590  Biso   1.000  H
  H238     1.0000 0.84350  0.80610  0.32930  Biso   1.000  H
  H239     1.0000 0.73200  0.79100  0.32260  Biso   1.000  H
  H240     1.0000 0.68720  0.72460  0.35770  Biso   1.000  H
  H241     1.0000 0.75400  0.67320  0.39940  Biso   1.000  H
  H242     1.0000 0.86550  0.68830  0.40610  Biso   1.000  H
  H243     1.0000 0.18800  0.36570  0.52210  Biso   1.000  H
  H244     1.0000 0.24240  0.32900  0.50690  Biso   1.000  H
  H245     1.0000 0.19150  0.39970  0.47020  Biso   1.000  H
  H246     1.0000 0.20710  0.35660  0.39490  Biso   1.000  H
  H247     1.0000 0.19940  0.31490  0.42970  Biso   1.000  H
  H248     1.0000 0.17180  0.54190  0.41190  Biso   1.000  H
  H249     1.0000 0.14590  0.66110  0.33760  Biso   1.000  H
  H250     1.0000 0.25850  0.55890  0.28460  Biso   1.000  H
  H251     1.0000 0.14400  0.69050  0.26750  Biso   1.000  H
  H252     1.0000 0.17920  0.73970  0.20580  Biso   1.000  H
  H253     1.0000 0.30510  0.61350  0.24930  Biso   1.000  H
  H254     1.0000 0.11400  0.56510  0.46380  Biso   1.000  H
  H255     1.0000 0.05800  0.59220  0.52300  Biso   1.000  H
  H256     1.0000 0.08510  0.68560  0.39220  Biso   1.000  H
  H257     1.0000 0.30710  0.49440  0.29590  Biso   1.000  H
  H258     1.0000 0.35140  0.42260  0.30540  Biso   1.000  H
  H259     1.0000 0.21440  0.48170  0.41640  Biso   1.000  H
  H260     1.0000 0.96110  0.33880  0.88950  Biso   1.000  H
  H261     1.0000 0.96040  0.39160  0.87330  Biso   1.000  H
  H262     1.0000 0.85450  0.33730  0.88870  Biso   1.000  H
  H263     1.0000 0.78930  0.40530  0.86610  Biso   1.000  H
  H264     1.0000 0.85280  0.43070  0.84760  Biso   1.000  H
  H265     1.0000 0.79470  0.38030  0.95470  Biso   1.000  H
  H266     1.0000 0.80280  0.40960  0.02660  Biso   1.000  H
  H267     1.0000 0.86200  0.47470  0.04030  Biso   1.000  H
  H268     1.0000 0.93440  0.50170  0.97790  Biso   1.000  H
  H269     1.0000 0.90640  0.47740  0.90190  Biso   1.000  H
  H270     1.0000 0.42560  0.19980  0.51740  Biso   1.000  H
  H271     1.0000 0.43030  0.18600  0.57090  Biso   1.000  H
  H272     1.0000 0.41710  0.27780  0.53960  Biso   1.000  H
  H273     1.0000 0.46840  0.26240  0.63080  Biso   1.000  H
  H274     1.0000 0.43010  0.30720  0.61410  Biso   1.000  H
  H275     1.0000 0.34350  0.19390  0.67070  Biso   1.000  H
  H276     1.0000 0.23200  0.20900  0.67740  Biso   1.000  H
  H277     1.0000 0.18720  0.27540  0.64230  Biso   1.000  H
  H278     1.0000 0.25400  0.32680  0.60060  Biso   1.000  H
  H279     1.0000 0.36550  0.31170  0.59390  Biso   1.000  H
  H280     1.0000 0.68800  0.63430  0.47790  Biso   1.000  H
  H281     1.0000 0.74240  0.67100  0.49310  Biso   1.000  H
  H282     1.0000 0.69150  0.60030  0.52980  Biso   1.000  H
  H283     1.0000 0.70710  0.64340  0.60510  Biso   1.000  H
  H284     1.0000 0.69940  0.68510  0.57030  Biso   1.000  H
  H285     1.0000 0.67180  0.45810  0.58810  Biso   1.000  H
  H286     1.0000 0.64590  0.33890  0.66240  Biso   1.000  H
  H287     1.0000 0.75850  0.44110  0.71540  Biso   1.000  H
  H288     1.0000 0.64400  0.30950  0.73250  Biso   1.000  H
  H289     1.0000 0.67920  0.26030  0.79420  Biso   1.000  H
  H290     1.0000 0.80510  0.38650  0.75070  Biso   1.000  H
  H291     1.0000 0.61400  0.43490  0.53620  Biso   1.000  H
  H292     1.0000 0.55800  0.40780  0.47700  Biso   1.000  H
  H293     1.0000 0.58510  0.31440  0.60780  Biso   1.000  H
  H294     1.0000 0.80710  0.50560  0.70410  Biso   1.000  H
  H295     1.0000 0.85140  0.57740  0.69460  Biso   1.000  H
  H296     1.0000 0.71440  0.51830  0.58360  Biso   1.000  H
  C1       1.0000 0.58150  0.20540  0.66620  Biso   1.000  C
  C2       1.0000 0.55490  0.13440  0.63980  Biso   1.000  C
  C3       1.0000 0.62890  0.13480  0.64040  Biso   1.000  C
  C4       1.0000 0.66380  0.12910  0.59120  Biso   1.000  C
  C5       1.0000 0.65050  0.07990  0.57250  Biso   1.000  C
  C6       1.0000 0.68020  0.04090  0.59280  Biso   1.000  C
  C7       1.0000 0.67480  0.99800  0.57590  Biso   1.000  C
  C8       1.0000 0.63840  0.98940  0.53910  Biso   1.000  C
  C9       1.0000 0.59850  0.02740  0.52040  Biso   1.000  C
  C10      1.0000 0.61270  0.07230  0.53750  Biso   1.000  C
  C11      1.0000 0.94790  0.46100  0.76720  Biso   1.000  C
  C12      1.0000 0.05030  0.45370  0.79490  Biso   1.000  C
  C13      1.0000 0.05320  0.43920  0.73930  Biso   1.000  C
  C14      1.0000 0.06777  0.38862  0.72683  Biso   1.000  C
  C15      1.0000 0.13443  0.36832  0.74867  Biso   1.000  C
  C16      1.0000 0.17443  0.34332  0.77945  Biso   1.000  C
  C17      1.0000 0.24124  0.33933  0.77043  Biso   1.000  C
  C18      1.0000 0.26806  0.36034  0.73062  Biso   1.000  C
  C19      1.0000 0.22806  0.38534  0.69983  Biso   1.000  C
  C20      1.0000 0.16125  0.38934  0.70886  Biso   1.000  C
  C21      1.0000 0.69654  0.48662  0.41560  Biso   1.000  C
  C22      1.0000 0.77020  0.50608  0.36197  Biso   1.000  C
  C23      1.0000 0.77340  0.46424  0.37687  Biso   1.000  C
  C24      1.0000 0.81287  0.42462  0.34756  Biso   1.000  C
  C25      1.0000 0.82170  0.38475  0.55961  Biso   1.000  C
  C26      1.0000 0.85120  0.38020  0.60400  Biso   1.000  C
  C27      1.0000 0.83610  0.34020  0.63110  Biso   1.000  C
  C28      1.0000 0.79560  0.30490  0.61520  Biso   1.000  C
  C29      1.0000 0.76860  0.30840  0.57020  Biso   1.000  C
  C30      1.0000 0.78180  0.34770  0.54180  Biso   1.000  C
  C31      1.0000 0.77680  0.26560  0.64690  Biso   1.000  C
  C32      1.0000 0.81630  0.25240  0.68480  Biso   1.000  C
  C33      1.0000 0.79420  0.21490  0.71480  Biso   1.000  C
  C34      1.0000 0.73630  0.19230  0.70830  Biso   1.000  C
  C35      1.0000 0.69880  0.20370  0.66980  Biso   1.000  C
  C36      1.0000 0.72060  0.24140  0.63940  Biso   1.000  C
  C37      1.0000 0.89230  0.41840  0.62180  Biso   1.000  C
  C38      1.0000 0.90380  0.46140  0.59510  Biso   1.000  C
  C39      1.0000 0.93760  0.49640  0.61100  Biso   1.000  C
  C40      1.0000 0.96840  0.49630  0.65620  Biso   1.000  C
  C41      1.0000 0.95850  0.45650  0.68240  Biso   1.000  C
  C42      1.0000 0.92080  0.41820  0.66620  Biso   1.000  C
  C43      1.0000 0.74870  0.35350  0.49450  Biso   1.000  C
  C44      1.0000 0.70410  0.32230  0.47680  Biso   1.000  C
  C45      1.0000 0.67580  0.32900  0.43440  Biso   1.000  C
  C46      1.0000 0.68520  0.36870  0.40760  Biso   1.000  C
  C47      1.0000 0.72700  0.40310  0.42800  Biso   1.000  C
  C48      1.0000 0.75730  0.39380  0.46950  Biso   1.000  C
  C49      1.0000 0.71790  0.15700  0.74580  Biso   1.000  C
  C50      1.0000 0.00540  0.53910  0.67160  Biso   1.000  C
  C51      1.0000 0.64640  0.37640  0.36390  Biso   1.000  C
  C52      1.0000 0.52770  0.05140  0.73740  Biso   1.000  C
  C53      1.0000 0.51380  0.00490  0.67050  Biso   1.000  C
  C54      1.0000 0.41000  0.03300  0.72200  Biso   1.000  C
  C55      1.0000 0.51100  0.95600  0.65900  Biso   1.000  C
  C56      1.0000 0.08150  0.79460  0.33380  Biso   1.000  C
  C57      1.0000 0.05490  0.86560  0.36020  Biso   1.000  C
  C58      1.0000 0.12890  0.86520  0.35960  Biso   1.000  C
  C59      1.0000 0.16380  0.87090  0.40880  Biso   1.000  C
  C60      1.0000 0.15050  0.92010  0.42750  Biso   1.000  C
  C61      1.0000 0.18020  0.95910  0.40720  Biso   1.000  C
  C62      1.0000 0.17480  0.00200  0.42410  Biso   1.000  C
  C63      1.0000 0.13840  0.01060  0.46090  Biso   1.000  C
  C64      1.0000 0.09850  0.97260  0.47960  Biso   1.000  C
  C65      1.0000 0.11270  0.92770  0.46250  Biso   1.000  C
  C66      1.0000 0.44790  0.53900  0.23280  Biso   1.000  C
  C67      1.0000 0.55030  0.54630  0.20510  Biso   1.000  C
  C68      1.0000 0.55320  0.56080  0.26070  Biso   1.000  C
  C69      1.0000 0.56777  0.61138  0.27317  Biso   1.000  C
  C70      1.0000 0.63443  0.63168  0.25133  Biso   1.000  C
  C71      1.0000 0.67443  0.65668  0.22055  Biso   1.000  C
  C72      1.0000 0.74124  0.66067  0.22957  Biso   1.000  C
  C73      1.0000 0.76806  0.63966  0.26938  Biso   1.000  C
  C74      1.0000 0.72806  0.61466  0.30017  Biso   1.000  C
  C75      1.0000 0.66125  0.61066  0.29114  Biso   1.000  C
  C76      1.0000 0.19654  0.51338  0.58440  Biso   1.000  C
  C77      1.0000 0.27020  0.49392  0.63803  Biso   1.000  C
  C78      1.0000 0.27340  0.53576  0.62313  Biso   1.000  C
  C79      1.0000 0.31287  0.57538  0.65244  Biso   1.000  C
  C80      1.0000 0.32170  0.61525  0.44039  Biso   1.000  C
  C81      1.0000 0.35120  0.61980  0.39600  Biso   1.000  C
  C82      1.0000 0.33610  0.65980  0.36890  Biso   1.000  C
  C83      1.0000 0.29560  0.69510  0.38480  Biso   1.000  C
  C84      1.0000 0.26860  0.69160  0.42980  Biso   1.000  C
  C85      1.0000 0.28180  0.65230  0.45820  Biso   1.000  C
  C86      1.0000 0.27680  0.73440  0.35310  Biso   1.000  C
  C87      1.0000 0.31630  0.74760  0.31520  Biso   1.000  C
  C88      1.0000 0.29420  0.78510  0.28520  Biso   1.000  C
  C89      1.0000 0.23630  0.80770  0.29170  Biso   1.000  C
  C90      1.0000 0.19880  0.79630  0.33020  Biso   1.000  C
  C91      1.0000 0.22060  0.75860  0.36060  Biso   1.000  C
  C92      1.0000 0.39230  0.58160  0.37820  Biso   1.000  C
  C93      1.0000 0.40380  0.53860  0.40490  Biso   1.000  C
  C94      1.0000 0.43760  0.50360  0.38900  Biso   1.000  C
  C95      1.0000 0.46840  0.50370  0.34380  Biso   1.000  C
  C96      1.0000 0.45850  0.54350  0.31760  Biso   1.000  C
  C97      1.0000 0.42080  0.58180  0.33380  Biso   1.000  C
  C98      1.0000 0.24870  0.64650  0.50550  Biso   1.000  C
  C99      1.0000 0.20410  0.67770  0.52320  Biso   1.000  C
  C100     1.0000 0.17580  0.67100  0.56560  Biso   1.000  C
  C101     1.0000 0.18520  0.63130  0.59240  Biso   1.000  C
  C102     1.0000 0.22700  0.59690  0.57200  Biso   1.000  C
  C103     1.0000 0.25730  0.60620  0.53050  Biso   1.000  C
  C104     1.0000 0.21790  0.84300  0.25420  Biso   1.000  C
  C105     1.0000 0.50540  0.46090  0.32840  Biso   1.000  C
  C106     1.0000 0.14640  0.62360  0.63610  Biso   1.000  C
  C107     1.0000 0.02770  0.94860  0.26260  Biso   1.000  C
  C108     1.0000 0.01380  0.99510  0.32950  Biso   1.000  C
  C109     1.0000 0.91000  0.96700  0.27800  Biso   1.000  C
  C110     1.0000 0.01100  0.04400  0.34100  Biso   1.000  C
  C111     1.0000 0.83150  0.83380  0.70540  Biso   1.000  C
  C112     1.0000 0.80490  0.86020  0.63440  Biso   1.000  C
  C113     1.0000 0.87890  0.85960  0.63480  Biso   1.000  C
  C114     1.0000 0.91380  0.90880  0.62910  Biso   1.000  C
  C115     1.0000 0.90050  0.92750  0.57990  Biso   1.000  C
  C116     1.0000 0.93020  0.90720  0.54090  Biso   1.000  C
  C117     1.0000 0.92480  0.92410  0.49800  Biso   1.000  C
  C118     1.0000 0.88840  0.96090  0.48940  Biso   1.000  C
  C119     1.0000 0.84850  0.97960  0.52740  Biso   1.000  C
  C120     1.0000 0.86270  0.96250  0.57230  Biso   1.000  C
  C121     1.0000 0.19790  0.73280  0.96100  Biso   1.000  C
  C122     1.0000 0.30030  0.70510  0.95370  Biso   1.000  C
  C123     1.0000 0.30320  0.76070  0.93920  Biso   1.000  C
  C124     1.0000 0.31777  0.77317  0.88862  Biso   1.000  C
  C125     1.0000 0.38443  0.75133  0.86832  Biso   1.000  C
  C126     1.0000 0.42443  0.72055  0.84332  Biso   1.000  C
  C127     1.0000 0.49124  0.72957  0.83933  Biso   1.000  C
  C128     1.0000 0.51806  0.76938  0.86034  Biso   1.000  C
  C129     1.0000 0.47806  0.80017  0.88534  Biso   1.000  C
  C130     1.0000 0.41125  0.79114  0.88934  Biso   1.000  C
  C131     1.0000 0.94654  0.08440  0.98662  Biso   1.000  C
  C132     1.0000 0.02020  0.13803  0.00608  Biso   1.000  C
  C133     1.0000 0.02340  0.12313  0.96424  Biso   1.000  C
  C134     1.0000 0.06287  0.15244  0.92462  Biso   1.000  C
  C135     1.0000 0.07170  0.94039  0.88475  Biso   1.000  C
  C136     1.0000 0.10120  0.89600  0.88020  Biso   1.000  C
  C137     1.0000 0.08610  0.86890  0.84020  Biso   1.000  C
  C138     1.0000 0.04560  0.88480  0.80490  Biso   1.000  C
  C139     1.0000 0.01860  0.92980  0.80840  Biso   1.000  C
  C140     1.0000 0.03180  0.95820  0.84770  Biso   1.000  C
  C141     1.0000 0.02680  0.85310  0.76560  Biso   1.000  C
  C142     1.0000 0.06630  0.81520  0.75240  Biso   1.000  C
  C143     1.0000 0.04420  0.78520  0.71490  Biso   1.000  C
  C144     1.0000 0.98630  0.79170  0.69230  Biso   1.000  C
  C145     1.0000 0.94880  0.83020  0.70370  Biso   1.000  C
  C146     1.0000 0.97060  0.86060  0.74140  Biso   1.000  C
  C147     1.0000 0.14230  0.87820  0.91840  Biso   1.000  C
  C148     1.0000 0.15380  0.90490  0.96140  Biso   1.000  C
  C149     1.0000 0.18760  0.88900  0.99640  Biso   1.000  C
  C150     1.0000 0.21840  0.84380  0.99630  Biso   1.000  C
  C151     1.0000 0.20850  0.81760  0.95650  Biso   1.000  C
  C152     1.0000 0.17080  0.83380  0.91820  Biso   1.000  C
  C153     1.0000 0.99870  0.00550  0.85350  Biso   1.000  C
  C154     1.0000 0.95410  0.02320  0.82230  Biso   1.000  C
  C155     1.0000 0.92580  0.06560  0.82900  Biso   1.000  C
  C156     1.0000 0.93520  0.09240  0.86870  Biso   1.000  C
  C157     1.0000 0.97700  0.07200  0.90310  Biso   1.000  C
  C158     1.0000 0.00730  0.03050  0.89380  Biso   1.000  C
  C159     1.0000 0.96790  0.75420  0.65700  Biso   1.000  C
  C160     1.0000 0.25540  0.82840  0.03910  Biso   1.000  C
  C161     1.0000 0.89640  0.13610  0.87640  Biso   1.000  C
  C162     1.0000 0.77770  0.76260  0.55140  Biso   1.000  C
  C163     1.0000 0.76380  0.82950  0.50490  Biso   1.000  C
  C164     1.0000 0.66000  0.77800  0.53300  Biso   1.000  C
  C165     1.0000 0.76100  0.84100  0.45600  Biso   1.000  C
  C166     1.0000 0.33150  0.16620  0.29460  Biso   1.000  C
  C167     1.0000 0.30490  0.13980  0.36560  Biso   1.000  C
  C168     1.0000 0.37890  0.14040  0.36520  Biso   1.000  C
  C169     1.0000 0.41380  0.09120  0.37090  Biso   1.000  C
  C170     1.0000 0.40050  0.07250  0.42010  Biso   1.000  C
  C171     1.0000 0.43020  0.09280  0.45910  Biso   1.000  C
  C172     1.0000 0.42480  0.07590  0.50200  Biso   1.000  C
  C173     1.0000 0.38840  0.03910  0.51060  Biso   1.000  C
  C174     1.0000 0.34850  0.02040  0.47260  Biso   1.000  C
  C175     1.0000 0.36270  0.03750  0.42770  Biso   1.000  C
  C176     1.0000 0.69790  0.26720  0.03900  Biso   1.000  C
  C177     1.0000 0.80030  0.29490  0.04630  Biso   1.000  C
  C178     1.0000 0.80320  0.23930  0.06080  Biso   1.000  C
  C179     1.0000 0.81777  0.22683  0.11138  Biso   1.000  C
  C180     1.0000 0.88443  0.24867  0.13168  Biso   1.000  C
  C181     1.0000 0.92443  0.27945  0.15668  Biso   1.000  C
  C182     1.0000 0.99124  0.27043  0.16067  Biso   1.000  C
  C183     1.0000 0.01806  0.23062  0.13966  Biso   1.000  C
  C184     1.0000 0.97806  0.19983  0.11466  Biso   1.000  C
  C185     1.0000 0.91125  0.20886  0.11066  Biso   1.000  C
  C186     1.0000 0.44654  0.91560  0.01338  Biso   1.000  C
  C187     1.0000 0.52020  0.86197  0.99392  Biso   1.000  C
  C188     1.0000 0.52340  0.87687  0.03576  Biso   1.000  C
  C189     1.0000 0.56287  0.84756  0.07538  Biso   1.000  C
  C190     1.0000 0.57170  0.05961  0.11525  Biso   1.000  C
  C191     1.0000 0.60120  0.10400  0.11980  Biso   1.000  C
  C192     1.0000 0.58610  0.13110  0.15980  Biso   1.000  C
  C193     1.0000 0.54560  0.11520  0.19510  Biso   1.000  C
  C194     1.0000 0.51860  0.07020  0.19160  Biso   1.000  C
  C195     1.0000 0.53180  0.04180  0.15230  Biso   1.000  C
  C196     1.0000 0.52680  0.14690  0.23440  Biso   1.000  C
  C197     1.0000 0.56630  0.18480  0.24760  Biso   1.000  C
  C198     1.0000 0.54420  0.21480  0.28510  Biso   1.000  C
  C199     1.0000 0.48630  0.20830  0.30770  Biso   1.000  C
  C200     1.0000 0.44880  0.16980  0.29630  Biso   1.000  C
  C201     1.0000 0.47060  0.13940  0.25860  Biso   1.000  C
  C202     1.0000 0.64230  0.12180  0.08160  Biso   1.000  C
  C203     1.0000 0.65380  0.09510  0.03860  Biso   1.000  C
  C204     1.0000 0.68760  0.11100  0.00360  Biso   1.000  C
  C205     1.0000 0.71840  0.15620  0.00370  Biso   1.000  C
  C206     1.0000 0.70850  0.18240  0.04350  Biso   1.000  C
  C207     1.0000 0.67080  0.16620  0.08180  Biso   1.000  C
  C208     1.0000 0.49870  0.99450  0.14650  Biso   1.000  C
  C209     1.0000 0.45410  0.97680  0.17770  Biso   1.000  C
  C210     1.0000 0.42580  0.93440  0.17100  Biso   1.000  C
  C211     1.0000 0.43520  0.90760  0.13130  Biso   1.000  C
  C212     1.0000 0.47700  0.92800  0.09690  Biso   1.000  C
  C213     1.0000 0.50730  0.96950  0.10620  Biso   1.000  C
  C214     1.0000 0.46790  0.24580  0.34300  Biso   1.000  C
  C215     1.0000 0.75540  0.17160  0.96090  Biso   1.000  C
  C216     1.0000 0.39640  0.86390  0.12360  Biso   1.000  C
  C217     1.0000 0.27770  0.23740  0.44860  Biso   1.000  C
  C218     1.0000 0.26380  0.17050  0.49510  Biso   1.000  C
  C219     1.0000 0.16000  0.22200  0.46700  Biso   1.000  C
  C220     1.0000 0.26100  0.15900  0.54400  Biso   1.000  C
  C221     1.0000 0.66850  0.29460  0.16620  Biso   1.000  C
  C222     1.0000 0.69510  0.36560  0.13980  Biso   1.000  C
  C223     1.0000 0.62110  0.36520  0.14040  Biso   1.000  C
  C224     1.0000 0.58620  0.37090  0.09120  Biso   1.000  C
  C225     1.0000 0.59950  0.42010  0.07250  Biso   1.000  C
  C226     1.0000 0.56980  0.45910  0.09280  Biso   1.000  C
  C227     1.0000 0.57520  0.50200  0.07590  Biso   1.000  C
  C228     1.0000 0.61160  0.51060  0.03910  Biso   1.000  C
  C229     1.0000 0.65150  0.47260  0.02040  Biso   1.000  C
  C230     1.0000 0.63730  0.42770  0.03750  Biso   1.000  C
  C231     1.0000 0.30210  0.03900  0.26720  Biso   1.000  C
  C232     1.0000 0.19970  0.04630  0.29490  Biso   1.000  C
  C233     1.0000 0.19680  0.06080  0.23930  Biso   1.000  C
  C234     1.0000 0.18223  0.11138  0.22683  Biso   1.000  C
  C235     1.0000 0.11557  0.13168  0.24867  Biso   1.000  C
  C236     1.0000 0.07557  0.15668  0.27945  Biso   1.000  C
  C237     1.0000 0.00876  0.16067  0.27043  Biso   1.000  C
  C238     1.0000 0.98194  0.13966  0.23062  Biso   1.000  C
  C239     1.0000 0.02194  0.11466  0.19983  Biso   1.000  C
  C240     1.0000 0.08875  0.11066  0.20886  Biso   1.000  C
  C241     1.0000 0.55346  0.01338  0.91560  Biso   1.000  C
  C242     1.0000 0.47980  0.99392  0.86197  Biso   1.000  C
  C243     1.0000 0.47660  0.03576  0.87687  Biso   1.000  C
  C244     1.0000 0.43713  0.07538  0.84756  Biso   1.000  C
  C245     1.0000 0.42830  0.11525  0.05961  Biso   1.000  C
  C246     1.0000 0.39880  0.11980  0.10400  Biso   1.000  C
  C247     1.0000 0.41390  0.15980  0.13110  Biso   1.000  C
  C248     1.0000 0.45440  0.19510  0.11520  Biso   1.000  C
  C249     1.0000 0.48140  0.19160  0.07020  Biso   1.000  C
  C250     1.0000 0.46820  0.15230  0.04180  Biso   1.000  C
  C251     1.0000 0.47320  0.23440  0.14690  Biso   1.000  C
  C252     1.0000 0.43370  0.24760  0.18480  Biso   1.000  C
  C253     1.0000 0.45580  0.28510  0.21480  Biso   1.000  C
  C254     1.0000 0.51370  0.30770  0.20830  Biso   1.000  C
  C255     1.0000 0.55120  0.29630  0.16980  Biso   1.000  C
  C256     1.0000 0.52940  0.25860  0.13940  Biso   1.000  C
  C257     1.0000 0.35770  0.08160  0.12180  Biso   1.000  C
  C258     1.0000 0.34620  0.03860  0.09510  Biso   1.000  C
  C259     1.0000 0.31240  0.00360  0.11100  Biso   1.000  C
  C260     1.0000 0.28160  0.00370  0.15620  Biso   1.000  C
  C261     1.0000 0.29150  0.04350  0.18240  Biso   1.000  C
  C262     1.0000 0.32920  0.08180  0.16620  Biso   1.000  C
  C263     1.0000 0.50130  0.14650  0.99450  Biso   1.000  C
  C264     1.0000 0.54590  0.17770  0.97680  Biso   1.000  C
  C265     1.0000 0.57420  0.17100  0.93440  Biso   1.000  C
  C266     1.0000 0.56480  0.13130  0.90760  Biso   1.000  C
  C267     1.0000 0.52300  0.09690  0.92800  Biso   1.000  C
  C268     1.0000 0.49270  0.10620  0.96950  Biso   1.000  C
  C269     1.0000 0.53210  0.34300  0.24580  Biso   1.000  C
  C270     1.0000 0.24460  0.96090  0.17160  Biso   1.000  C
  C271     1.0000 0.60360  0.12360  0.86390  Biso   1.000  C
  C272     1.0000 0.72230  0.44860  0.23740  Biso   1.000  C
  C273     1.0000 0.73620  0.49510  0.17050  Biso   1.000  C
  C274     1.0000 0.84000  0.46700  0.22200  Biso   1.000  C
  C275     1.0000 0.73900  0.54400  0.15900  Biso   1.000  C
  C276     1.0000 0.16850  0.70540  0.83380  Biso   1.000  C
  C277     1.0000 0.19510  0.63440  0.86020  Biso   1.000  C
  C278     1.0000 0.12110  0.63480  0.85960  Biso   1.000  C
  C279     1.0000 0.08620  0.62910  0.90880  Biso   1.000  C
  C280     1.0000 0.09950  0.57990  0.92750  Biso   1.000  C
  C281     1.0000 0.06980  0.54090  0.90720  Biso   1.000  C
  C282     1.0000 0.07520  0.49800  0.92410  Biso   1.000  C
  C283     1.0000 0.11160  0.48940  0.96090  Biso   1.000  C
  C284     1.0000 0.15150  0.52740  0.97960  Biso   1.000  C
  C285     1.0000 0.13730  0.57230  0.96250  Biso   1.000  C
  C286     1.0000 0.80210  0.96100  0.73280  Biso   1.000  C
  C287     1.0000 0.69970  0.95370  0.70510  Biso   1.000  C
  C288     1.0000 0.69680  0.93920  0.76070  Biso   1.000  C
  C289     1.0000 0.68223  0.88862  0.77317  Biso   1.000  C
  C290     1.0000 0.61557  0.86832  0.75133  Biso   1.000  C
  C291     1.0000 0.57557  0.84332  0.72055  Biso   1.000  C
  C292     1.0000 0.50876  0.83933  0.72957  Biso   1.000  C
  C293     1.0000 0.48194  0.86034  0.76938  Biso   1.000  C
  C294     1.0000 0.52194  0.88534  0.80017  Biso   1.000  C
  C295     1.0000 0.58875  0.88934  0.79114  Biso   1.000  C
  C296     1.0000 0.05346  0.98662  0.08440  Biso   1.000  C
  C297     1.0000 0.97980  0.00608  0.13803  Biso   1.000  C
  C298     1.0000 0.97660  0.96424  0.12313  Biso   1.000  C
  C299     1.0000 0.93713  0.92462  0.15244  Biso   1.000  C
  C300     1.0000 0.92830  0.88475  0.94039  Biso   1.000  C
  C301     1.0000 0.89880  0.88020  0.89600  Biso   1.000  C
  C302     1.0000 0.91390  0.84020  0.86890  Biso   1.000  C
  C303     1.0000 0.95440  0.80490  0.88480  Biso   1.000  C
  C304     1.0000 0.98140  0.80840  0.92980  Biso   1.000  C
  C305     1.0000 0.96820  0.84770  0.95820  Biso   1.000  C
  C306     1.0000 0.97320  0.76560  0.85310  Biso   1.000  C
  C307     1.0000 0.93370  0.75240  0.81520  Biso   1.000  C
  C308     1.0000 0.95580  0.71490  0.78520  Biso   1.000  C
  C309     1.0000 0.01370  0.69230  0.79170  Biso   1.000  C
  C310     1.0000 0.05120  0.70370  0.83020  Biso   1.000  C
  C311     1.0000 0.02940  0.74140  0.86060  Biso   1.000  C
  C312     1.0000 0.85770  0.91840  0.87820  Biso   1.000  C
  C313     1.0000 0.84620  0.96140  0.90490  Biso   1.000  C
  C314     1.0000 0.81240  0.99640  0.88900  Biso   1.000  C
  C315     1.0000 0.78160  0.99630  0.84380  Biso   1.000  C
  C316     1.0000 0.79150  0.95650  0.81760  Biso   1.000  C
  C317     1.0000 0.82920  0.91820  0.83380  Biso   1.000  C
  C318     1.0000 0.00130  0.85350  0.00550  Biso   1.000  C
  C319     1.0000 0.04590  0.82230  0.02320  Biso   1.000  C
  C320     1.0000 0.07420  0.82900  0.06560  Biso   1.000  C
  C321     1.0000 0.06480  0.86870  0.09240  Biso   1.000  C
  C322     1.0000 0.02300  0.90310  0.07200  Biso   1.000  C
  C323     1.0000 0.99270  0.89380  0.03050  Biso   1.000  C
  C324     1.0000 0.03210  0.65700  0.75420  Biso   1.000  C
  C325     1.0000 0.74460  0.03910  0.82840  Biso   1.000  C
  C326     1.0000 0.10360  0.87640  0.13610  Biso   1.000  C
  C327     1.0000 0.22230  0.55140  0.76260  Biso   1.000  C
  C328     1.0000 0.23620  0.50490  0.82950  Biso   1.000  C
  C329     1.0000 0.34000  0.53300  0.77800  Biso   1.000  C
  C330     1.0000 0.23900  0.45600  0.84100  Biso   1.000  C
  C331     1.0000 0.41850  0.66620  0.20540  Biso   1.000  C
  C332     1.0000 0.44510  0.63980  0.13440  Biso   1.000  C
  C333     1.0000 0.37110  0.64040  0.13480  Biso   1.000  C
  C334     1.0000 0.33620  0.59120  0.12910  Biso   1.000  C
  C335     1.0000 0.34950  0.57250  0.07990  Biso   1.000  C
  C336     1.0000 0.31980  0.59280  0.04090  Biso   1.000  C
  C337     1.0000 0.32520  0.57590  0.99800  Biso   1.000  C
  C338     1.0000 0.36160  0.53910  0.98940  Biso   1.000  C
  C339     1.0000 0.40150  0.52040  0.02740  Biso   1.000  C
  C340     1.0000 0.38730  0.53750  0.07230  Biso   1.000  C
  C341     1.0000 0.05210  0.76720  0.46100  Biso   1.000  C
  C342     1.0000 0.94970  0.79490  0.45370  Biso   1.000  C
  C343     1.0000 0.94680  0.73930  0.43920  Biso   1.000  C
  C344     1.0000 0.93223  0.72683  0.38862  Biso   1.000  C
  C345     1.0000 0.86557  0.74867  0.36832  Biso   1.000  C
  C346     1.0000 0.82557  0.77945  0.34332  Biso   1.000  C
  C347     1.0000 0.75876  0.77043  0.33933  Biso   1.000  C
  C348     1.0000 0.73194  0.73062  0.36034  Biso   1.000  C
  C349     1.0000 0.77194  0.69983  0.38534  Biso   1.000  C
  C350     1.0000 0.83875  0.70886  0.38934  Biso   1.000  C
  C351     1.0000 0.30346  0.41560  0.48662  Biso   1.000  C
  C352     1.0000 0.22980  0.36197  0.50608  Biso   1.000  C
  C353     1.0000 0.22660  0.37687  0.46424  Biso   1.000  C
  C354     1.0000 0.18713  0.34756  0.42462  Biso   1.000  C
  C355     1.0000 0.17830  0.55961  0.38475  Biso   1.000  C
  C356     1.0000 0.14880  0.60400  0.38020  Biso   1.000  C
  C357     1.0000 0.16390  0.63110  0.34020  Biso   1.000  C
  C358     1.0000 0.20440  0.61520  0.30490  Biso   1.000  C
  C359     1.0000 0.23140  0.57020  0.30840  Biso   1.000  C
  C360     1.0000 0.21820  0.54180  0.34770  Biso   1.000  C
  C361     1.0000 0.22320  0.64690  0.26560  Biso   1.000  C
  C362     1.0000 0.18370  0.68480  0.25240  Biso   1.000  C
  C363     1.0000 0.20580  0.71480  0.21490  Biso   1.000  C
  C364     1.0000 0.26370  0.70830  0.19230  Biso   1.000  C
  C365     1.0000 0.30120  0.66980  0.20370  Biso   1.000  C
  C366     1.0000 0.27940  0.63940  0.24140  Biso   1.000  C
  C367     1.0000 0.10770  0.62180  0.41840  Biso   1.000  C
  C368     1.0000 0.09620  0.59510  0.46140  Biso   1.000  C
  C369     1.0000 0.06240  0.61100  0.49640  Biso   1.000  C
  C370     1.0000 0.03160  0.65620  0.49630  Biso   1.000  C
  C371     1.0000 0.04150  0.68240  0.45650  Biso   1.000  C
  C372     1.0000 0.07920  0.66620  0.41820  Biso   1.000  C
  C373     1.0000 0.25130  0.49450  0.35350  Biso   1.000  C
  C374     1.0000 0.29590  0.47680  0.32230  Biso   1.000  C
  C375     1.0000 0.32420  0.43440  0.32900  Biso   1.000  C
  C376     1.0000 0.31480  0.40760  0.36870  Biso   1.000  C
  C377     1.0000 0.27300  0.42800  0.40310  Biso   1.000  C
  C378     1.0000 0.24270  0.46950  0.39380  Biso   1.000  C
  C379     1.0000 0.28210  0.74580  0.15700  Biso   1.000  C
  C380     1.0000 0.99460  0.67160  0.53910  Biso   1.000  C
  C381     1.0000 0.35360  0.36390  0.37640  Biso   1.000  C
  C382     1.0000 0.47230  0.73740  0.05140  Biso   1.000  C
  C383     1.0000 0.48620  0.67050  0.00490  Biso   1.000  C
  C384     1.0000 0.59000  0.72200  0.03300  Biso   1.000  C
  C385     1.0000 0.48900  0.65900  0.95600  Biso   1.000  C
  C386     1.0000 0.91850  0.33380  0.79460  Biso   1.000  C
  C387     1.0000 0.94510  0.36020  0.86560  Biso   1.000  C
  C388     1.0000 0.87110  0.35960  0.86520  Biso   1.000  C
  C389     1.0000 0.83620  0.40880  0.87090  Biso   1.000  C
  C390     1.0000 0.84950  0.42750  0.92010  Biso   1.000  C
  C391     1.0000 0.81980  0.40720  0.95910  Biso   1.000  C
  C392     1.0000 0.82520  0.42410  0.00200  Biso   1.000  C
  C393     1.0000 0.86160  0.46090  0.01060  Biso   1.000  C
  C394     1.0000 0.90150  0.47960  0.97260  Biso   1.000  C
  C395     1.0000 0.88730  0.46250  0.92770  Biso   1.000  C
  C396     1.0000 0.55210  0.23280  0.53900  Biso   1.000  C
  C397     1.0000 0.44970  0.20510  0.54630  Biso   1.000  C
  C398     1.0000 0.44680  0.26070  0.56080  Biso   1.000  C
  C399     1.0000 0.43223  0.27317  0.61138  Biso   1.000  C
  C400     1.0000 0.36557  0.25133  0.63168  Biso   1.000  C
  C401     1.0000 0.32557  0.22055  0.65668  Biso   1.000  C
  C402     1.0000 0.25876  0.22957  0.66067  Biso   1.000  C
  C403     1.0000 0.23194  0.26938  0.63966  Biso   1.000  C
  C404     1.0000 0.27194  0.30017  0.61466  Biso   1.000  C
  C405     1.0000 0.33875  0.29114  0.61066  Biso   1.000  C
  C406     1.0000 0.80346  0.58440  0.51338  Biso   1.000  C
  C407     1.0000 0.72980  0.63803  0.49392  Biso   1.000  C
  C408     1.0000 0.72660  0.62313  0.53576  Biso   1.000  C
  C409     1.0000 0.68713  0.65244  0.57538  Biso   1.000  C
  C410     1.0000 0.67830  0.44039  0.61525  Biso   1.000  C
  C411     1.0000 0.64880  0.39600  0.61980  Biso   1.000  C
  C412     1.0000 0.66390  0.36890  0.65980  Biso   1.000  C
  C413     1.0000 0.70440  0.38480  0.69510  Biso   1.000  C
  C414     1.0000 0.73140  0.42980  0.69160  Biso   1.000  C
  C415     1.0000 0.71820  0.45820  0.65230  Biso   1.000  C
  C416     1.0000 0.72320  0.35310  0.73440  Biso   1.000  C
  C417     1.0000 0.68370  0.31520  0.74760  Biso   1.000  C
  C418     1.0000 0.70580  0.28520  0.78510  Biso   1.000  C
  C419     1.0000 0.76370  0.29170  0.80770  Biso   1.000  C
  C420     1.0000 0.80120  0.33020  0.79630  Biso   1.000  C
  C421     1.0000 0.77940  0.36060  0.75860  Biso   1.000  C
  C422     1.0000 0.60770  0.37820  0.58160  Biso   1.000  C
  C423     1.0000 0.59620  0.40490  0.53860  Biso   1.000  C
  C424     1.0000 0.56240  0.38900  0.50360  Biso   1.000  C
  C425     1.0000 0.53160  0.34380  0.50370  Biso   1.000  C
  C426     1.0000 0.54150  0.31760  0.54350  Biso   1.000  C
  C427     1.0000 0.57920  0.33380  0.58180  Biso   1.000  C
  C428     1.0000 0.75130  0.50550  0.64650  Biso   1.000  C
  C429     1.0000 0.79590  0.52320  0.67770  Biso   1.000  C
  C430     1.0000 0.82420  0.56560  0.67100  Biso   1.000  C
  C431     1.0000 0.81480  0.59240  0.63130  Biso   1.000  C
  C432     1.0000 0.77300  0.57200  0.59690  Biso   1.000  C
  C433     1.0000 0.74270  0.53050  0.60620  Biso   1.000  C
  C434     1.0000 0.78210  0.25420  0.84300  Biso   1.000  C
  C435     1.0000 0.49460  0.32840  0.46090  Biso   1.000  C
  C436     1.0000 0.85360  0.63610  0.62360  Biso   1.000  C
  C437     1.0000 0.97230  0.26260  0.94860  Biso   1.000  C
  C438     1.0000 0.98620  0.32950  0.99510  Biso   1.000  C
  C439     1.0000 0.09000  0.27800  0.96700  Biso   1.000  C
  C440     1.0000 0.98900  0.34100  0.04400  Biso   1.000  C
  N1       1.0000 0.63890  0.18300  0.65920  Biso   1.000  N
  N2       1.0000 0.98530  0.45130  0.72930  Biso   1.000  N
  N3       1.0000 0.73399  0.45003  0.40542  Biso   1.000  N
  N4       1.0000 0.48620  0.02400  0.71030  Biso   1.000  N
  N5       1.0000 0.13890  0.81700  0.34080  Biso   1.000  N
  N6       1.0000 0.48530  0.54870  0.27070  Biso   1.000  N
  N7       1.0000 0.23399  0.54997  0.59458  Biso   1.000  N
  N8       1.0000 0.98620  0.97600  0.28970  Biso   1.000  N
  N9       1.0000 0.88890  0.84080  0.68300  Biso   1.000  N
  N10      1.0000 0.23530  0.77070  0.95130  Biso   1.000  N
  N11      1.0000 0.98399  0.09458  0.95003  Biso   1.000  N
  N12      1.0000 0.73620  0.78970  0.52400  Biso   1.000  N
  N13      1.0000 0.38890  0.15920  0.31700  Biso   1.000  N
  N14      1.0000 0.73530  0.22930  0.04870  Biso   1.000  N
  N15      1.0000 0.48399  0.90542  0.04997  Biso   1.000  N
  N16      1.0000 0.23620  0.21030  0.47600  Biso   1.000  N
  N17      1.0000 0.61110  0.31700  0.15920  Biso   1.000  N
  N18      1.0000 0.26470  0.04870  0.22930  Biso   1.000  N
  N19      1.0000 0.51601  0.04997  0.90542  Biso   1.000  N
  N20      1.0000 0.76380  0.47600  0.21030  Biso   1.000  N
  N21      1.0000 0.11110  0.68300  0.84080  Biso   1.000  N
  N22      1.0000 0.76470  0.95130  0.77070  Biso   1.000  N
  N23      1.0000 0.01601  0.95003  0.09458  Biso   1.000  N
  N24      1.0000 0.26380  0.52400  0.78970  Biso   1.000  N
  N25      1.0000 0.36110  0.65920  0.18300  Biso   1.000  N
  N26      1.0000 0.01470  0.72930  0.45130  Biso   1.000  N
  N27      1.0000 0.26601  0.40542  0.45003  Biso   1.000  N
  N28      1.0000 0.51380  0.71030  0.02400  Biso   1.000  N
  N29      1.0000 0.86110  0.34080  0.81700  Biso   1.000  N
  N30      1.0000 0.51470  0.27070  0.54870  Biso   1.000  N
  N31      1.0000 0.76601  0.59458  0.54997  Biso   1.000  N
  N32      1.0000 0.01380  0.28970  0.97600  Biso   1.000  N
  O1       1.0000 0.57430  0.24730  0.67690  Biso   1.000  O
  O2       1.0000 0.53000  0.17860  0.65320  Biso   1.000  O
  O3       1.0000 0.89050  0.46860  0.76970  Biso   1.000  O
  O4       1.0000 0.98930  0.45930  0.80590  Biso   1.000  O
  O5       1.0000 0.63690  0.49129  0.42310  Biso   1.000  O
  O6       1.0000 0.72549  0.52511  0.38825  Biso   1.000  O
  O7       1.0000 0.66345  0.13619  0.74106  Biso   1.000  O
  O8       1.0000 0.75449  0.15090  0.77869  Biso   1.000  O
  O9       1.0000 0.00209  0.57459  0.64475  Biso   1.000  O
  O10      1.0000 0.57801  0.04403  0.73785  Biso   1.000  O
  O11      1.0000 0.04168  0.53718  0.70768  Biso   1.000  O
  O12      1.0000 0.60309  0.34874  0.35436  Biso   1.000  O
  O13      1.0000 0.66323  0.41034  0.33718  Biso   1.000  O
  O14      1.0000 0.07430  0.75270  0.32310  Biso   1.000  O
  O15      1.0000 0.03000  0.82140  0.34680  Biso   1.000  O
  O16      1.0000 0.39050  0.53140  0.23030  Biso   1.000  O
  O17      1.0000 0.48930  0.54070  0.19410  Biso   1.000  O
  O18      1.0000 0.13690  0.50871  0.57690  Biso   1.000  O
  O19      1.0000 0.22549  0.47489  0.61175  Biso   1.000  O
  O20      1.0000 0.16345  0.86381  0.25894  Biso   1.000  O
  O21      1.0000 0.25449  0.84910  0.22131  Biso   1.000  O
  O22      1.0000 0.50209  0.42541  0.35525  Biso   1.000  O
  O23      1.0000 0.07801  0.95597  0.26215  Biso   1.000  O
  O24      1.0000 0.54168  0.46282  0.29232  Biso   1.000  O
  O25      1.0000 0.10309  0.65126  0.64564  Biso   1.000  O
  O26      1.0000 0.16323  0.58966  0.66282  Biso   1.000  O
  O27      1.0000 0.82430  0.82310  0.74730  Biso   1.000  O
  O28      1.0000 0.78000  0.84680  0.67860  Biso   1.000  O
  O29      1.0000 0.14050  0.73030  0.96860  Biso   1.000  O
  O30      1.0000 0.23930  0.69410  0.95930  Biso   1.000  O
  O31      1.0000 0.88690  0.07690  0.99129  Biso   1.000  O
  O32      1.0000 0.97549  0.11175  0.02511  Biso   1.000  O
  O33      1.0000 0.91345  0.75894  0.63619  Biso   1.000  O
  O34      1.0000 0.00449  0.72131  0.65090  Biso   1.000  O
  O35      1.0000 0.25209  0.85525  0.07459  Biso   1.000  O
  O36      1.0000 0.82801  0.76215  0.54403  Biso   1.000  O
  O37      1.0000 0.29168  0.79232  0.03718  Biso   1.000  O
  O38      1.0000 0.85309  0.14564  0.84874  Biso   1.000  O
  O39      1.0000 0.91323  0.16282  0.91034  Biso   1.000  O
  O40      1.0000 0.32430  0.17690  0.25270  Biso   1.000  O
  O41      1.0000 0.28000  0.15320  0.32140  Biso   1.000  O
  O42      1.0000 0.64050  0.26970  0.03140  Biso   1.000  O
  O43      1.0000 0.73930  0.30590  0.04070  Biso   1.000  O
  O44      1.0000 0.38690  0.92310  0.00871  Biso   1.000  O
  O45      1.0000 0.47549  0.88825  0.97489  Biso   1.000  O
  O46      1.0000 0.41345  0.24106  0.36381  Biso   1.000  O
  O47      1.0000 0.50449  0.27869  0.34910  Biso   1.000  O
  O48      1.0000 0.75209  0.14475  0.92541  Biso   1.000  O
  O49      1.0000 0.32801  0.23785  0.45597  Biso   1.000  O
  O50      1.0000 0.79168  0.20768  0.96282  Biso   1.000  O
  O51      1.0000 0.35309  0.85436  0.15126  Biso   1.000  O
  O52      1.0000 0.41323  0.83718  0.08966  Biso   1.000  O
  O53      1.0000 0.67570  0.25270  0.17690  Biso   1.000  O
  O54      1.0000 0.72000  0.32140  0.15320  Biso   1.000  O
  O55      1.0000 0.35950  0.03140  0.26970  Biso   1.000  O
  O56      1.0000 0.26070  0.04070  0.30590  Biso   1.000  O
  O57      1.0000 0.61310  0.00871  0.92310  Biso   1.000  O
  O58      1.0000 0.52451  0.97489  0.88825  Biso   1.000  O
  O59      1.0000 0.58655  0.36381  0.24106  Biso   1.000  O
  O60      1.0000 0.49551  0.34910  0.27869  Biso   1.000  O
  O61      1.0000 0.24791  0.92541  0.14475  Biso   1.000  O
  O62      1.0000 0.67199  0.45597  0.23785  Biso   1.000  O
  O63      1.0000 0.20832  0.96282  0.20768  Biso   1.000  O
  O64      1.0000 0.64691  0.15126  0.85436  Biso   1.000  O
  O65      1.0000 0.58677  0.08966  0.83718  Biso   1.000  O
  O66      1.0000 0.17570  0.74730  0.82310  Biso   1.000  O
  O67      1.0000 0.22000  0.67860  0.84680  Biso   1.000  O
  O68      1.0000 0.85950  0.96860  0.73030  Biso   1.000  O
  O69      1.0000 0.76070  0.95930  0.69410  Biso   1.000  O
  O70      1.0000 0.11310  0.99129  0.07690  Biso   1.000  O
  O71      1.0000 0.02451  0.02511  0.11175  Biso   1.000  O
  O72      1.0000 0.08655  0.63619  0.75894  Biso   1.000  O
  O73      1.0000 0.99551  0.65090  0.72131  Biso   1.000  O
  O74      1.0000 0.74791  0.07459  0.85525  Biso   1.000  O
  O75      1.0000 0.17199  0.54403  0.76215  Biso   1.000  O
  O76      1.0000 0.70832  0.03718  0.79232  Biso   1.000  O
  O77      1.0000 0.14691  0.84874  0.14564  Biso   1.000  O
  O78      1.0000 0.08677  0.91034  0.16282  Biso   1.000  O
  O79      1.0000 0.42570  0.67690  0.24730  Biso   1.000  O
  O80      1.0000 0.47000  0.65320  0.17860  Biso   1.000  O
  O81      1.0000 0.10950  0.76970  0.46860  Biso   1.000  O
  O82      1.0000 0.01070  0.80590  0.45930  Biso   1.000  O
  O83      1.0000 0.36310  0.42310  0.49129  Biso   1.000  O
  O84      1.0000 0.27451  0.38825  0.52511  Biso   1.000  O
  O85      1.0000 0.33655  0.74106  0.13619  Biso   1.000  O
  O86      1.0000 0.24551  0.77869  0.15090  Biso   1.000  O
  O87      1.0000 0.99791  0.64475  0.57459  Biso   1.000  O
  O88      1.0000 0.42199  0.73785  0.04403  Biso   1.000  O
  O89      1.0000 0.95832  0.70768  0.53718  Biso   1.000  O
  O90      1.0000 0.39691  0.35436  0.34874  Biso   1.000  O
  O91      1.0000 0.33677  0.33718  0.41034  Biso   1.000  O
  O92      1.0000 0.92570  0.32310  0.75270  Biso   1.000  O
  O93      1.0000 0.97000  0.34680  0.82140  Biso   1.000  O
  O94      1.0000 0.60950  0.23030  0.53140  Biso   1.000  O
  O95      1.0000 0.51070  0.19410  0.54070  Biso   1.000  O
  O96      1.0000 0.86310  0.57690  0.50871  Biso   1.000  O
  O97      1.0000 0.77451  0.61175  0.47489  Biso   1.000  O
  O98      1.0000 0.83655  0.25894  0.86381  Biso   1.000  O
  O99      1.0000 0.74551  0.22131  0.84910  Biso   1.000  O
  O100     1.0000 0.49791  0.35525  0.42541  Biso   1.000  O
  O101     1.0000 0.92199  0.26215  0.95597  Biso   1.000  O
  O102     1.0000 0.45832  0.29232  0.46282  Biso   1.000  O
  O103     1.0000 0.89691  0.64564  0.65126  Biso   1.000  O
  O104     1.0000 0.83677  0.66282  0.58966  Biso   1.000  O
