data_image0
_cell_length_a       13.6888
_cell_length_b       27.469
_cell_length_c       45.9961
_cell_angle_alpha    90
_cell_angle_beta     90
_cell_angle_gamma    90

_symmetry_space_group_name_H-M    P 1
_symmetry_int_tables_number       1

loop_
  _symmetry_equiv_pos_as_xyz
  'x, y, z'

loop_
  _atom_site_label
  _atom_site_occupancy
  _atom_site_fract_x
  _atom_site_fract_y
  _atom_site_fract_z
  _atom_site_thermal_displace_type
  _atom_site_B_iso_or_equiv
  _atom_site_type_symbol
  Zn1      1.0000 0.14630  0.46958  0.90997  Biso   1.000  Zn
  Zn2      1.0000 0.35010  0.25407  0.81182  Biso   1.000  Zn
  Zn3      1.0000 0.65263  0.05421  0.57196  Biso   1.000  Zn
  Zn4      1.0000 0.85370  0.03042  0.40997  Biso   1.000  Zn
  Zn5      1.0000 0.64990  0.24593  0.31182  Biso   1.000  Zn
  Zn6      1.0000 0.34737  0.44579  0.07196  Biso   1.000  Zn
  Zn7      1.0000 0.64630  0.53042  0.59003  Biso   1.000  Zn
  Zn8      1.0000 0.85010  0.74593  0.68818  Biso   1.000  Zn
  Zn9      1.0000 0.15263  0.94579  0.92804  Biso   1.000  Zn
  Zn10     1.0000 0.35370  0.96958  0.09003  Biso   1.000  Zn
  Zn11     1.0000 0.14990  0.75407  0.18818  Biso   1.000  Zn
  Zn12     1.0000 0.84737  0.55421  0.42804  Biso   1.000  Zn
  H1       1.0000 0.99120  0.41410  0.87840  Biso   1.000  H
  H2       1.0000 0.83570  0.38300  0.88540  Biso   1.000  H
  H3       1.0000 0.84600  0.43200  0.96850  Biso   1.000  H
  H4       1.0000 0.00290  0.45960  0.95940  Biso   1.000  H
  H5       1.0000 0.63480  0.44330  0.00390  Biso   1.000  H
  H6       1.0000 0.54360  0.46600  0.04450  Biso   1.000  H
  H7       1.0000 0.31250  0.39720  0.01440  Biso   1.000  H
  H8       1.0000 0.39670  0.37280  0.97280  Biso   1.000  H
  H9       1.0000 0.39390  0.34370  0.90470  Biso   1.000  H
  H10      1.0000 0.31280  0.30720  0.86620  Biso   1.000  H
  H11      1.0000 0.56130  0.27370  0.82860  Biso   1.000  H
  H12      1.0000 0.64940  0.31170  0.86540  Biso   1.000  H
  H13      1.0000 0.49090  0.34690  0.72870  Biso   1.000  H
  H14      1.0000 0.42560  0.33470  0.77510  Biso   1.000  H
  H15      1.0000 0.46460  0.19310  0.76900  Biso   1.000  H
  H16      1.0000 0.52800  0.20050  0.72230  Biso   1.000  H
  H17      1.0000 0.59200  0.35100  0.59460  Biso   1.000  H
  H18      1.0000 0.61360  0.42650  0.57340  Biso   1.000  H
  H19      1.0000 0.59770  0.49100  0.64990  Biso   1.000  H
  H20      1.0000 0.57310  0.41610  0.67310  Biso   1.000  H
  H21      1.0000 0.55410  0.15080  0.65980  Biso   1.000  H
  H22      1.0000 0.57600  0.08250  0.63100  Biso   1.000  H
  H23      1.0000 0.64850  0.16370  0.56360  Biso   1.000  H
  H24      1.0000 0.62080  0.23440  0.58950  Biso   1.000  H
  H25      1.0000 0.00880  0.08590  0.37840  Biso   1.000  H
  H26      1.0000 0.16430  0.11700  0.38540  Biso   1.000  H
  H27      1.0000 0.15400  0.06800  0.46850  Biso   1.000  H
  H28      1.0000 0.99710  0.04040  0.45940  Biso   1.000  H
  H29      1.0000 0.36520  0.05670  0.50390  Biso   1.000  H
  H30      1.0000 0.45640  0.03400  0.54450  Biso   1.000  H
  H31      1.0000 0.68750  0.10280  0.51440  Biso   1.000  H
  H32      1.0000 0.60330  0.12720  0.47280  Biso   1.000  H
  H33      1.0000 0.60610  0.15630  0.40470  Biso   1.000  H
  H34      1.0000 0.68720  0.19280  0.36620  Biso   1.000  H
  H35      1.0000 0.43870  0.22630  0.32860  Biso   1.000  H
  H36      1.0000 0.35060  0.18830  0.36540  Biso   1.000  H
  H37      1.0000 0.50910  0.15310  0.22870  Biso   1.000  H
  H38      1.0000 0.57440  0.16530  0.27510  Biso   1.000  H
  H39      1.0000 0.53540  0.30690  0.26900  Biso   1.000  H
  H40      1.0000 0.47200  0.29950  0.22230  Biso   1.000  H
  H41      1.0000 0.40800  0.14900  0.09460  Biso   1.000  H
  H42      1.0000 0.38640  0.07350  0.07340  Biso   1.000  H
  H43      1.0000 0.40230  0.00900  0.14990  Biso   1.000  H
  H44      1.0000 0.42690  0.08390  0.17310  Biso   1.000  H
  H45      1.0000 0.44590  0.34920  0.15980  Biso   1.000  H
  H46      1.0000 0.42400  0.41750  0.13100  Biso   1.000  H
  H47      1.0000 0.35150  0.33630  0.06360  Biso   1.000  H
  H48      1.0000 0.37920  0.26560  0.08950  Biso   1.000  H
  H49      1.0000 0.49120  0.58590  0.62160  Biso   1.000  H
  H50      1.0000 0.33570  0.61700  0.61460  Biso   1.000  H
  H51      1.0000 0.34600  0.56800  0.53150  Biso   1.000  H
  H52      1.0000 0.50290  0.54040  0.54060  Biso   1.000  H
  H53      1.0000 0.13480  0.55670  0.49610  Biso   1.000  H
  H54      1.0000 0.04360  0.53400  0.45550  Biso   1.000  H
  H55      1.0000 0.81250  0.60280  0.48560  Biso   1.000  H
  H56      1.0000 0.89670  0.62720  0.52720  Biso   1.000  H
  H57      1.0000 0.89390  0.65630  0.59530  Biso   1.000  H
  H58      1.0000 0.81280  0.69280  0.63380  Biso   1.000  H
  H59      1.0000 0.06130  0.72630  0.67140  Biso   1.000  H
  H60      1.0000 0.14940  0.68830  0.63460  Biso   1.000  H
  H61      1.0000 0.99090  0.65310  0.77130  Biso   1.000  H
  H62      1.0000 0.92560  0.66530  0.72490  Biso   1.000  H
  H63      1.0000 0.96460  0.80690  0.73100  Biso   1.000  H
  H64      1.0000 0.02800  0.79950  0.77770  Biso   1.000  H
  H65      1.0000 0.09200  0.64900  0.90540  Biso   1.000  H
  H66      1.0000 0.11360  0.57350  0.92660  Biso   1.000  H
  H67      1.0000 0.09770  0.50900  0.85010  Biso   1.000  H
  H68      1.0000 0.07310  0.58390  0.82690  Biso   1.000  H
  H69      1.0000 0.05410  0.84920  0.84020  Biso   1.000  H
  H70      1.0000 0.07600  0.91750  0.86900  Biso   1.000  H
  H71      1.0000 0.14850  0.83630  0.93640  Biso   1.000  H
  H72      1.0000 0.12080  0.76560  0.91050  Biso   1.000  H
  H73      1.0000 0.50880  0.91410  0.12160  Biso   1.000  H
  H74      1.0000 0.66430  0.88300  0.11460  Biso   1.000  H
  H75      1.0000 0.65400  0.93200  0.03150  Biso   1.000  H
  H76      1.0000 0.49710  0.95960  0.04060  Biso   1.000  H
  H77      1.0000 0.86520  0.94330  0.99610  Biso   1.000  H
  H78      1.0000 0.95640  0.96600  0.95550  Biso   1.000  H
  H79      1.0000 0.18750  0.89720  0.98560  Biso   1.000  H
  H80      1.0000 0.10330  0.87280  0.02720  Biso   1.000  H
  H81      1.0000 0.10610  0.84370  0.09530  Biso   1.000  H
  H82      1.0000 0.18720  0.80720  0.13380  Biso   1.000  H
  H83      1.0000 0.93870  0.77370  0.17140  Biso   1.000  H
  H84      1.0000 0.85060  0.81170  0.13460  Biso   1.000  H
  H85      1.0000 0.00910  0.84690  0.27130  Biso   1.000  H
  H86      1.0000 0.07440  0.83470  0.22490  Biso   1.000  H
  H87      1.0000 0.03540  0.69310  0.23100  Biso   1.000  H
  H88      1.0000 0.97200  0.70050  0.27770  Biso   1.000  H
  H89      1.0000 0.90800  0.85100  0.40540  Biso   1.000  H
  H90      1.0000 0.88640  0.92650  0.42660  Biso   1.000  H
  H91      1.0000 0.90230  0.99100  0.35010  Biso   1.000  H
  H92      1.0000 0.92690  0.91610  0.32690  Biso   1.000  H
  H93      1.0000 0.94590  0.65080  0.34020  Biso   1.000  H
  H94      1.0000 0.92400  0.58250  0.36900  Biso   1.000  H
  H95      1.0000 0.85150  0.66370  0.43640  Biso   1.000  H
  H96      1.0000 0.87920  0.73440  0.41050  Biso   1.000  H
  C1       1.0000 0.96110  0.41745  0.89689  Biso   1.000  C
  C2       1.0000 0.86820  0.39910  0.90085  Biso   1.000  C
  C3       1.0000 0.82250  0.40441  0.92774  Biso   1.000  C
  C4       1.0000 0.87440  0.42766  0.94984  Biso   1.000  C
  C5       1.0000 0.96760  0.44431  0.94413  Biso   1.000  C
  C6       1.0000 0.56880  0.43300  0.00566  Biso   1.000  C
  C7       1.0000 0.51390  0.44653  0.02990  Biso   1.000  C
  C8       1.0000 0.37900  0.40637  0.01225  Biso   1.000  C
  C9       1.0000 0.42870  0.39143  0.98736  Biso   1.000  C
  C10      1.0000 0.52670  0.40456  0.98426  Biso   1.000  C
  C11      1.0000 0.72060  0.38855  0.93173  Biso   1.000  C
  C12      1.0000 0.58220  0.38907  0.95814  Biso   1.000  C
  C13      1.0000 0.58360  0.35469  0.91378  Biso   1.000  C
  C14      1.0000 0.53100  0.33075  0.88932  Biso   1.000  C
  C15      1.0000 0.42990  0.32958  0.88920  Biso   1.000  C
  C16      1.0000 0.38220  0.30759  0.86628  Biso   1.000  C
  C17      1.0000 0.52700  0.28841  0.84429  Biso   1.000  C
  C18      1.0000 0.58010  0.31053  0.86626  Biso   1.000  C
  C19      1.0000 0.48360  0.31489  0.73624  Biso   1.000  C
  C20      1.0000 0.44570  0.30726  0.76399  Biso   1.000  C
  C21      1.0000 0.46820  0.22440  0.76036  Biso   1.000  C
  C22      1.0000 0.50570  0.22840  0.73256  Biso   1.000  C
  C23      1.0000 0.51020  0.27460  0.71984  Biso   1.000  C
  C24      1.0000 0.59310  0.37934  0.60644  Biso   1.000  C
  C25      1.0000 0.60640  0.42442  0.59389  Biso   1.000  C
  C26      1.0000 0.59670  0.46202  0.63866  Biso   1.000  C
  C27      1.0000 0.58230  0.41749  0.65265  Biso   1.000  C
  C28      1.0000 0.58160  0.37528  0.63612  Biso   1.000  C
  C29      1.0000 0.57160  0.32675  0.64994  Biso   1.000  C
  C30      1.0000 0.54060  0.27983  0.68893  Biso   1.000  C
  C31      1.0000 0.57380  0.24481  0.64582  Biso   1.000  C
  C32      1.0000 0.58650  0.20052  0.62793  Biso   1.000  C
  C33      1.0000 0.57280  0.15422  0.64006  Biso   1.000  C
  C34      1.0000 0.58690  0.11377  0.62278  Biso   1.000  C
  C35      1.0000 0.62810  0.16125  0.58333  Biso   1.000  C
  C36      1.0000 0.61320  0.20361  0.59863  Biso   1.000  C
  C37      1.0000 0.03890  0.08255  0.39689  Biso   1.000  C
  C38      1.0000 0.13180  0.10090  0.40085  Biso   1.000  C
  C39      1.0000 0.17750  0.09559  0.42774  Biso   1.000  C
  C40      1.0000 0.12560  0.07234  0.44984  Biso   1.000  C
  C41      1.0000 0.03240  0.05569  0.44413  Biso   1.000  C
  C42      1.0000 0.43120  0.06700  0.50566  Biso   1.000  C
  C43      1.0000 0.48610  0.05347  0.52990  Biso   1.000  C
  C44      1.0000 0.62100  0.09363  0.51225  Biso   1.000  C
  C45      1.0000 0.57130  0.10857  0.48736  Biso   1.000  C
  C46      1.0000 0.47330  0.09544  0.48426  Biso   1.000  C
  C47      1.0000 0.27940  0.11145  0.43173  Biso   1.000  C
  C48      1.0000 0.41780  0.11093  0.45814  Biso   1.000  C
  C49      1.0000 0.41640  0.14531  0.41378  Biso   1.000  C
  C50      1.0000 0.46900  0.16925  0.38932  Biso   1.000  C
  C51      1.0000 0.57010  0.17042  0.38920  Biso   1.000  C
  C52      1.0000 0.61780  0.19241  0.36628  Biso   1.000  C
  C53      1.0000 0.47300  0.21159  0.34429  Biso   1.000  C
  C54      1.0000 0.41990  0.18947  0.36626  Biso   1.000  C
  C55      1.0000 0.51640  0.18511  0.23624  Biso   1.000  C
  C56      1.0000 0.55430  0.19274  0.26399  Biso   1.000  C
  C57      1.0000 0.53180  0.27560  0.26036  Biso   1.000  C
  C58      1.0000 0.49430  0.27160  0.23256  Biso   1.000  C
  C59      1.0000 0.48980  0.22540  0.21984  Biso   1.000  C
  C60      1.0000 0.40690  0.12066  0.10644  Biso   1.000  C
  C61      1.0000 0.39360  0.07558  0.09389  Biso   1.000  C
  C62      1.0000 0.40330  0.03798  0.13866  Biso   1.000  C
  C63      1.0000 0.41770  0.08251  0.15265  Biso   1.000  C
  C64      1.0000 0.41840  0.12472  0.13612  Biso   1.000  C
  C65      1.0000 0.42840  0.17325  0.14994  Biso   1.000  C
  C66      1.0000 0.45940  0.22017  0.18893  Biso   1.000  C
  C67      1.0000 0.42620  0.25519  0.14582  Biso   1.000  C
  C68      1.0000 0.41350  0.29948  0.12793  Biso   1.000  C
  C69      1.0000 0.42720  0.34578  0.14006  Biso   1.000  C
  C70      1.0000 0.41310  0.38623  0.12278  Biso   1.000  C
  C71      1.0000 0.37190  0.33875  0.08333  Biso   1.000  C
  C72      1.0000 0.38680  0.29639  0.09863  Biso   1.000  C
  C73      1.0000 0.46110  0.58255  0.60311  Biso   1.000  C
  C74      1.0000 0.36820  0.60090  0.59915  Biso   1.000  C
  C75      1.0000 0.32250  0.59559  0.57226  Biso   1.000  C
  C76      1.0000 0.37440  0.57234  0.55016  Biso   1.000  C
  C77      1.0000 0.46760  0.55569  0.55587  Biso   1.000  C
  C78      1.0000 0.06880  0.56700  0.49434  Biso   1.000  C
  C79      1.0000 0.01390  0.55347  0.47010  Biso   1.000  C
  C80      1.0000 0.87900  0.59363  0.48775  Biso   1.000  C
  C81      1.0000 0.92870  0.60857  0.51264  Biso   1.000  C
  C82      1.0000 0.02670  0.59544  0.51574  Biso   1.000  C
  C83      1.0000 0.22060  0.61145  0.56827  Biso   1.000  C
  C84      1.0000 0.08220  0.61093  0.54186  Biso   1.000  C
  C85      1.0000 0.08360  0.64531  0.58622  Biso   1.000  C
  C86      1.0000 0.03100  0.66925  0.61068  Biso   1.000  C
  C87      1.0000 0.92990  0.67042  0.61080  Biso   1.000  C
  C88      1.0000 0.88220  0.69241  0.63372  Biso   1.000  C
  C89      1.0000 0.02700  0.71159  0.65571  Biso   1.000  C
  C90      1.0000 0.08010  0.68947  0.63374  Biso   1.000  C
  C91      1.0000 0.98360  0.68511  0.76376  Biso   1.000  C
  C92      1.0000 0.94570  0.69274  0.73601  Biso   1.000  C
  C93      1.0000 0.96820  0.77560  0.73964  Biso   1.000  C
  C94      1.0000 0.00570  0.77160  0.76744  Biso   1.000  C
  C95      1.0000 0.01020  0.72540  0.78016  Biso   1.000  C
  C96      1.0000 0.09310  0.62066  0.89356  Biso   1.000  C
  C97      1.0000 0.10640  0.57558  0.90611  Biso   1.000  C
  C98      1.0000 0.09670  0.53798  0.86134  Biso   1.000  C
  C99      1.0000 0.08230  0.58251  0.84735  Biso   1.000  C
  C100     1.0000 0.08160  0.62472  0.86388  Biso   1.000  C
  C101     1.0000 0.07160  0.67325  0.85006  Biso   1.000  C
  C102     1.0000 0.04060  0.72017  0.81107  Biso   1.000  C
  C103     1.0000 0.07380  0.75519  0.85418  Biso   1.000  C
  C104     1.0000 0.08650  0.79948  0.87207  Biso   1.000  C
  C105     1.0000 0.07280  0.84578  0.85994  Biso   1.000  C
  C106     1.0000 0.08690  0.88623  0.87722  Biso   1.000  C
  C107     1.0000 0.12810  0.83875  0.91667  Biso   1.000  C
  C108     1.0000 0.11320  0.79639  0.90137  Biso   1.000  C
  C109     1.0000 0.53890  0.91745  0.10311  Biso   1.000  C
  C110     1.0000 0.63180  0.89910  0.09915  Biso   1.000  C
  C111     1.0000 0.67750  0.90441  0.07226  Biso   1.000  C
  C112     1.0000 0.62560  0.92766  0.05016  Biso   1.000  C
  C113     1.0000 0.53240  0.94431  0.05587  Biso   1.000  C
  C114     1.0000 0.93120  0.93300  0.99434  Biso   1.000  C
  C115     1.0000 0.98610  0.94653  0.97010  Biso   1.000  C
  C116     1.0000 0.12100  0.90637  0.98775  Biso   1.000  C
  C117     1.0000 0.07130  0.89143  0.01264  Biso   1.000  C
  C118     1.0000 0.97330  0.90456  0.01574  Biso   1.000  C
  C119     1.0000 0.77940  0.88855  0.06827  Biso   1.000  C
  C120     1.0000 0.91780  0.88907  0.04186  Biso   1.000  C
  C121     1.0000 0.91640  0.85469  0.08622  Biso   1.000  C
  C122     1.0000 0.96900  0.83075  0.11068  Biso   1.000  C
  C123     1.0000 0.07010  0.82958  0.11080  Biso   1.000  C
  C124     1.0000 0.11780  0.80759  0.13372  Biso   1.000  C
  C125     1.0000 0.97300  0.78841  0.15571  Biso   1.000  C
  C126     1.0000 0.91990  0.81053  0.13374  Biso   1.000  C
  C127     1.0000 0.01640  0.81489  0.26376  Biso   1.000  C
  C128     1.0000 0.05430  0.80726  0.23601  Biso   1.000  C
  C129     1.0000 0.03180  0.72440  0.23964  Biso   1.000  C
  C130     1.0000 0.99430  0.72840  0.26744  Biso   1.000  C
  C131     1.0000 0.98980  0.77460  0.28016  Biso   1.000  C
  C132     1.0000 0.90690  0.87934  0.39356  Biso   1.000  C
  C133     1.0000 0.89360  0.92442  0.40611  Biso   1.000  C
  C134     1.0000 0.90330  0.96202  0.36134  Biso   1.000  C
  C135     1.0000 0.91770  0.91749  0.34735  Biso   1.000  C
  C136     1.0000 0.91840  0.87528  0.36388  Biso   1.000  C
  C137     1.0000 0.92840  0.82675  0.35006  Biso   1.000  C
  C138     1.0000 0.95940  0.77983  0.31107  Biso   1.000  C
  C139     1.0000 0.92620  0.74481  0.35418  Biso   1.000  C
  C140     1.0000 0.91350  0.70052  0.37207  Biso   1.000  C
  C141     1.0000 0.92720  0.65422  0.35994  Biso   1.000  C
  C142     1.0000 0.91310  0.61377  0.37722  Biso   1.000  C
  C143     1.0000 0.87190  0.66125  0.41667  Biso   1.000  C
  C144     1.0000 0.88680  0.70361  0.40137  Biso   1.000  C
  I1       1.0000 0.19809  0.30707  0.80372  Biso   1.000  I
  I2       1.0000 0.56690  0.98514  0.59842  Biso   1.000  I
  I3       1.0000 0.22674  0.48709  0.95896  Biso   1.000  I
  I4       1.0000 0.83523  0.06327  0.56213  Biso   1.000  I
  I5       1.0000 0.32880  0.16324  0.82170  Biso   1.000  I
  I6       1.0000 0.23019  0.41981  0.87076  Biso   1.000  I
  I7       1.0000 0.80191  0.19293  0.30372  Biso   1.000  I
  I8       1.0000 0.43310  0.51486  0.09842  Biso   1.000  I
  I9       1.0000 0.77326  0.01291  0.45896  Biso   1.000  I
  I10      1.0000 0.16477  0.43673  0.06213  Biso   1.000  I
  I11      1.0000 0.67120  0.33676  0.32170  Biso   1.000  I
  I12      1.0000 0.76981  0.08019  0.37076  Biso   1.000  I
  I13      1.0000 0.69809  0.69293  0.69628  Biso   1.000  I
  I14      1.0000 0.06690  0.01486  0.90158  Biso   1.000  I
  I15      1.0000 0.72674  0.51291  0.54104  Biso   1.000  I
  I16      1.0000 0.33523  0.93673  0.93787  Biso   1.000  I
  I17      1.0000 0.82880  0.83676  0.67830  Biso   1.000  I
  I18      1.0000 0.73019  0.58019  0.62924  Biso   1.000  I
  I19      1.0000 0.30191  0.80707  0.19628  Biso   1.000  I
  I20      1.0000 0.93310  0.48514  0.40158  Biso   1.000  I
  I21      1.0000 0.27326  0.98709  0.04104  Biso   1.000  I
  I22      1.0000 0.66477  0.56327  0.43787  Biso   1.000  I
  I23      1.0000 0.17120  0.66324  0.17830  Biso   1.000  I
  I24      1.0000 0.26981  0.91981  0.12924  Biso   1.000  I
  N1       1.0000 0.01060  0.43995  0.91835  Biso   1.000  N
  N2       1.0000 0.67610  0.40124  0.95683  Biso   1.000  N
  N3       1.0000 0.67860  0.36417  0.91002  Biso   1.000  N
  N4       1.0000 0.53200  0.36557  0.93743  Biso   1.000  N
  N5       1.0000 0.42990  0.28695  0.84429  Biso   1.000  N
  N6       1.0000 0.43670  0.26297  0.77557  Biso   1.000  N
  N7       1.0000 0.54990  0.32475  0.67832  Biso   1.000  N
  N8       1.0000 0.55190  0.23872  0.67389  Biso   1.000  N
  N9       1.0000 0.58430  0.28781  0.63254  Biso   1.000  N
  N10      1.0000 0.61540  0.11661  0.59466  Biso   1.000  N
  N11      1.0000 0.42040  0.43288  0.03327  Biso   1.000  N
  N12      1.0000 0.60940  0.46529  0.60964  Biso   1.000  N
  N13      1.0000 0.98940  0.06005  0.41835  Biso   1.000  N
  N14      1.0000 0.32390  0.09876  0.45683  Biso   1.000  N
  N15      1.0000 0.32140  0.13583  0.41002  Biso   1.000  N
  N16      1.0000 0.46800  0.13443  0.43743  Biso   1.000  N
  N17      1.0000 0.57010  0.21305  0.34429  Biso   1.000  N
  N18      1.0000 0.56330  0.23703  0.27557  Biso   1.000  N
  N19      1.0000 0.45010  0.17525  0.17832  Biso   1.000  N
  N20      1.0000 0.44810  0.26128  0.17389  Biso   1.000  N
  N21      1.0000 0.41570  0.21219  0.13254  Biso   1.000  N
  N22      1.0000 0.38460  0.38339  0.09466  Biso   1.000  N
  N23      1.0000 0.57960  0.06712  0.53327  Biso   1.000  N
  N24      1.0000 0.39060  0.03471  0.10964  Biso   1.000  N
  N25      1.0000 0.51060  0.56005  0.58165  Biso   1.000  N
  N26      1.0000 0.17610  0.59876  0.54317  Biso   1.000  N
  N27      1.0000 0.17860  0.63583  0.58998  Biso   1.000  N
  N28      1.0000 0.03200  0.63443  0.56257  Biso   1.000  N
  N29      1.0000 0.92990  0.71305  0.65571  Biso   1.000  N
  N30      1.0000 0.93670  0.73703  0.72443  Biso   1.000  N
  N31      1.0000 0.04990  0.67525  0.82168  Biso   1.000  N
  N32      1.0000 0.05190  0.76128  0.82611  Biso   1.000  N
  N33      1.0000 0.08430  0.71219  0.86746  Biso   1.000  N
  N34      1.0000 0.11540  0.88339  0.90534  Biso   1.000  N
  N35      1.0000 0.92040  0.56712  0.46673  Biso   1.000  N
  N36      1.0000 0.10940  0.53471  0.89036  Biso   1.000  N
  N37      1.0000 0.48940  0.93995  0.08165  Biso   1.000  N
  N38      1.0000 0.82390  0.90124  0.04317  Biso   1.000  N
  N39      1.0000 0.82140  0.86417  0.08998  Biso   1.000  N
  N40      1.0000 0.96800  0.86557  0.06257  Biso   1.000  N
  N41      1.0000 0.07010  0.78695  0.15571  Biso   1.000  N
  N42      1.0000 0.06330  0.76297  0.22443  Biso   1.000  N
  N43      1.0000 0.95010  0.82475  0.32168  Biso   1.000  N
  N44      1.0000 0.94810  0.73872  0.32611  Biso   1.000  N
  N45      1.0000 0.91570  0.78781  0.36746  Biso   1.000  N
  N46      1.0000 0.88460  0.61661  0.40534  Biso   1.000  N
  N47      1.0000 0.07960  0.93288  0.96673  Biso   1.000  N
  N48      1.0000 0.89060  0.96529  0.39036  Biso   1.000  N
  Zn13     1.0000 0.85370  0.53042  0.09003  Biso   1.000  Zn
  Zn14     1.0000 0.64990  0.74593  0.18818  Biso   1.000  Zn
  Zn15     1.0000 0.34737  0.94579  0.42804  Biso   1.000  Zn
  Zn16     1.0000 0.14630  0.96958  0.59003  Biso   1.000  Zn
  Zn17     1.0000 0.35010  0.75407  0.68818  Biso   1.000  Zn
  Zn18     1.0000 0.65263  0.55421  0.92804  Biso   1.000  Zn
  Zn19     1.0000 0.35370  0.46958  0.40997  Biso   1.000  Zn
  Zn20     1.0000 0.14990  0.25407  0.31182  Biso   1.000  Zn
  Zn21     1.0000 0.84737  0.05421  0.07196  Biso   1.000  Zn
  Zn22     1.0000 0.64630  0.03042  0.90997  Biso   1.000  Zn
  Zn23     1.0000 0.85010  0.24593  0.81182  Biso   1.000  Zn
  Zn24     1.0000 0.15263  0.44579  0.57196  Biso   1.000  Zn
  H97      1.0000 0.00880  0.58590  0.12160  Biso   1.000  H
  H98      1.0000 0.16430  0.61700  0.11460  Biso   1.000  H
  H99      1.0000 0.15400  0.56800  0.03150  Biso   1.000  H
  H100     1.0000 0.99710  0.54040  0.04060  Biso   1.000  H
  H101     1.0000 0.36520  0.55670  0.99610  Biso   1.000  H
  H102     1.0000 0.45640  0.53400  0.95550  Biso   1.000  H
  H103     1.0000 0.68750  0.60280  0.98560  Biso   1.000  H
  H104     1.0000 0.60330  0.62720  0.02720  Biso   1.000  H
  H105     1.0000 0.60610  0.65630  0.09530  Biso   1.000  H
  H106     1.0000 0.68720  0.69280  0.13380  Biso   1.000  H
  H107     1.0000 0.43870  0.72630  0.17140  Biso   1.000  H
  H108     1.0000 0.35060  0.68830  0.13460  Biso   1.000  H
  H109     1.0000 0.50910  0.65310  0.27130  Biso   1.000  H
  H110     1.0000 0.57440  0.66530  0.22490  Biso   1.000  H
  H111     1.0000 0.53540  0.80690  0.23100  Biso   1.000  H
  H112     1.0000 0.47200  0.79950  0.27770  Biso   1.000  H
  H113     1.0000 0.40800  0.64900  0.40540  Biso   1.000  H
  H114     1.0000 0.38640  0.57350  0.42660  Biso   1.000  H
  H115     1.0000 0.40230  0.50900  0.35010  Biso   1.000  H
  H116     1.0000 0.42690  0.58390  0.32690  Biso   1.000  H
  H117     1.0000 0.44590  0.84920  0.34020  Biso   1.000  H
  H118     1.0000 0.42400  0.91750  0.36900  Biso   1.000  H
  H119     1.0000 0.35150  0.83630  0.43640  Biso   1.000  H
  H120     1.0000 0.37920  0.76560  0.41050  Biso   1.000  H
  H121     1.0000 0.99120  0.91410  0.62160  Biso   1.000  H
  H122     1.0000 0.83570  0.88300  0.61460  Biso   1.000  H
  H123     1.0000 0.84600  0.93200  0.53150  Biso   1.000  H
  H124     1.0000 0.00290  0.95960  0.54060  Biso   1.000  H
  H125     1.0000 0.63480  0.94330  0.49610  Biso   1.000  H
  H126     1.0000 0.54360  0.96600  0.45550  Biso   1.000  H
  H127     1.0000 0.31250  0.89720  0.48560  Biso   1.000  H
  H128     1.0000 0.39670  0.87280  0.52720  Biso   1.000  H
  H129     1.0000 0.39390  0.84370  0.59530  Biso   1.000  H
  H130     1.0000 0.31280  0.80720  0.63380  Biso   1.000  H
  H131     1.0000 0.56130  0.77370  0.67140  Biso   1.000  H
  H132     1.0000 0.64940  0.81170  0.63460  Biso   1.000  H
  H133     1.0000 0.49090  0.84690  0.77130  Biso   1.000  H
  H134     1.0000 0.42560  0.83470  0.72490  Biso   1.000  H
  H135     1.0000 0.46460  0.69310  0.73100  Biso   1.000  H
  H136     1.0000 0.52800  0.70050  0.77770  Biso   1.000  H
  H137     1.0000 0.59200  0.85100  0.90540  Biso   1.000  H
  H138     1.0000 0.61360  0.92650  0.92660  Biso   1.000  H
  H139     1.0000 0.59770  0.99100  0.85010  Biso   1.000  H
  H140     1.0000 0.57310  0.91610  0.82690  Biso   1.000  H
  H141     1.0000 0.55410  0.65080  0.84020  Biso   1.000  H
  H142     1.0000 0.57600  0.58250  0.86900  Biso   1.000  H
  H143     1.0000 0.64850  0.66370  0.93640  Biso   1.000  H
  H144     1.0000 0.62080  0.73440  0.91050  Biso   1.000  H
  H145     1.0000 0.50880  0.41410  0.37840  Biso   1.000  H
  H146     1.0000 0.66430  0.38300  0.38540  Biso   1.000  H
  H147     1.0000 0.65400  0.43200  0.46850  Biso   1.000  H
  H148     1.0000 0.49710  0.45960  0.45940  Biso   1.000  H
  H149     1.0000 0.86520  0.44330  0.50390  Biso   1.000  H
  H150     1.0000 0.95640  0.46600  0.54450  Biso   1.000  H
  H151     1.0000 0.18750  0.39720  0.51440  Biso   1.000  H
  H152     1.0000 0.10330  0.37280  0.47280  Biso   1.000  H
  H153     1.0000 0.10610  0.34370  0.40470  Biso   1.000  H
  H154     1.0000 0.18720  0.30720  0.36620  Biso   1.000  H
  H155     1.0000 0.93870  0.27370  0.32860  Biso   1.000  H
  H156     1.0000 0.85060  0.31170  0.36540  Biso   1.000  H
  H157     1.0000 0.00910  0.34690  0.22870  Biso   1.000  H
  H158     1.0000 0.07440  0.33470  0.27510  Biso   1.000  H
  H159     1.0000 0.03540  0.19310  0.26900  Biso   1.000  H
  H160     1.0000 0.97200  0.20050  0.22230  Biso   1.000  H
  H161     1.0000 0.90800  0.35100  0.09460  Biso   1.000  H
  H162     1.0000 0.88640  0.42650  0.07340  Biso   1.000  H
  H163     1.0000 0.90230  0.49100  0.14990  Biso   1.000  H
  H164     1.0000 0.92690  0.41610  0.17310  Biso   1.000  H
  H165     1.0000 0.94590  0.15080  0.15980  Biso   1.000  H
  H166     1.0000 0.92400  0.08250  0.13100  Biso   1.000  H
  H167     1.0000 0.85150  0.16370  0.06360  Biso   1.000  H
  H168     1.0000 0.87920  0.23440  0.08950  Biso   1.000  H
  H169     1.0000 0.49120  0.08590  0.87840  Biso   1.000  H
  H170     1.0000 0.33570  0.11700  0.88540  Biso   1.000  H
  H171     1.0000 0.34600  0.06800  0.96850  Biso   1.000  H
  H172     1.0000 0.50290  0.04040  0.95940  Biso   1.000  H
  H173     1.0000 0.13480  0.05670  0.00390  Biso   1.000  H
  H174     1.0000 0.04360  0.03400  0.04450  Biso   1.000  H
  H175     1.0000 0.81250  0.10280  0.01440  Biso   1.000  H
  H176     1.0000 0.89670  0.12720  0.97280  Biso   1.000  H
  H177     1.0000 0.89390  0.15630  0.90470  Biso   1.000  H
  H178     1.0000 0.81280  0.19280  0.86620  Biso   1.000  H
  H179     1.0000 0.06130  0.22630  0.82860  Biso   1.000  H
  H180     1.0000 0.14940  0.18830  0.86540  Biso   1.000  H
  H181     1.0000 0.99090  0.15310  0.72870  Biso   1.000  H
  H182     1.0000 0.92560  0.16530  0.77510  Biso   1.000  H
  H183     1.0000 0.96460  0.30690  0.76900  Biso   1.000  H
  H184     1.0000 0.02800  0.29950  0.72230  Biso   1.000  H
  H185     1.0000 0.09200  0.14900  0.59460  Biso   1.000  H
  H186     1.0000 0.11360  0.07350  0.57340  Biso   1.000  H
  H187     1.0000 0.09770  0.00900  0.64990  Biso   1.000  H
  H188     1.0000 0.07310  0.08390  0.67310  Biso   1.000  H
  H189     1.0000 0.05410  0.34920  0.65980  Biso   1.000  H
  H190     1.0000 0.07600  0.41750  0.63100  Biso   1.000  H
  H191     1.0000 0.14850  0.33630  0.56360  Biso   1.000  H
  H192     1.0000 0.12080  0.26560  0.58950  Biso   1.000  H
  C145     1.0000 0.03890  0.58255  0.10311  Biso   1.000  C
  C146     1.0000 0.13180  0.60090  0.09915  Biso   1.000  C
  C147     1.0000 0.17750  0.59559  0.07226  Biso   1.000  C
  C148     1.0000 0.12560  0.57234  0.05016  Biso   1.000  C
  C149     1.0000 0.03240  0.55569  0.05587  Biso   1.000  C
  C150     1.0000 0.43120  0.56700  0.99434  Biso   1.000  C
  C151     1.0000 0.48610  0.55347  0.97010  Biso   1.000  C
  C152     1.0000 0.62100  0.59363  0.98775  Biso   1.000  C
  C153     1.0000 0.57130  0.60857  0.01264  Biso   1.000  C
  C154     1.0000 0.47330  0.59544  0.01574  Biso   1.000  C
  C155     1.0000 0.27940  0.61145  0.06827  Biso   1.000  C
  C156     1.0000 0.41780  0.61093  0.04186  Biso   1.000  C
  C157     1.0000 0.41640  0.64531  0.08622  Biso   1.000  C
  C158     1.0000 0.46900  0.66925  0.11068  Biso   1.000  C
  C159     1.0000 0.57010  0.67042  0.11080  Biso   1.000  C
  C160     1.0000 0.61780  0.69241  0.13372  Biso   1.000  C
  C161     1.0000 0.47300  0.71159  0.15571  Biso   1.000  C
  C162     1.0000 0.41990  0.68947  0.13374  Biso   1.000  C
  C163     1.0000 0.51640  0.68511  0.26376  Biso   1.000  C
  C164     1.0000 0.55430  0.69274  0.23601  Biso   1.000  C
  C165     1.0000 0.53180  0.77560  0.23964  Biso   1.000  C
  C166     1.0000 0.49430  0.77160  0.26744  Biso   1.000  C
  C167     1.0000 0.48980  0.72540  0.28016  Biso   1.000  C
  C168     1.0000 0.40690  0.62066  0.39356  Biso   1.000  C
  C169     1.0000 0.39360  0.57558  0.40611  Biso   1.000  C
  C170     1.0000 0.40330  0.53798  0.36134  Biso   1.000  C
  C171     1.0000 0.41770  0.58251  0.34735  Biso   1.000  C
  C172     1.0000 0.41840  0.62472  0.36388  Biso   1.000  C
  C173     1.0000 0.42840  0.67325  0.35006  Biso   1.000  C
  C174     1.0000 0.45940  0.72017  0.31107  Biso   1.000  C
  C175     1.0000 0.42620  0.75519  0.35418  Biso   1.000  C
  C176     1.0000 0.41350  0.79948  0.37207  Biso   1.000  C
  C177     1.0000 0.42720  0.84578  0.35994  Biso   1.000  C
  C178     1.0000 0.41310  0.88623  0.37722  Biso   1.000  C
  C179     1.0000 0.37190  0.83875  0.41667  Biso   1.000  C
  C180     1.0000 0.38680  0.79639  0.40137  Biso   1.000  C
  C181     1.0000 0.96110  0.91745  0.60311  Biso   1.000  C
  C182     1.0000 0.86820  0.89910  0.59915  Biso   1.000  C
  C183     1.0000 0.82250  0.90441  0.57226  Biso   1.000  C
  C184     1.0000 0.87440  0.92766  0.55016  Biso   1.000  C
  C185     1.0000 0.96760  0.94431  0.55587  Biso   1.000  C
  C186     1.0000 0.56880  0.93300  0.49434  Biso   1.000  C
  C187     1.0000 0.51390  0.94653  0.47010  Biso   1.000  C
  C188     1.0000 0.37900  0.90637  0.48775  Biso   1.000  C
  C189     1.0000 0.42870  0.89143  0.51264  Biso   1.000  C
  C190     1.0000 0.52670  0.90456  0.51574  Biso   1.000  C
  C191     1.0000 0.72060  0.88855  0.56827  Biso   1.000  C
  C192     1.0000 0.58220  0.88907  0.54186  Biso   1.000  C
  C193     1.0000 0.58360  0.85469  0.58622  Biso   1.000  C
  C194     1.0000 0.53100  0.83075  0.61068  Biso   1.000  C
  C195     1.0000 0.42990  0.82958  0.61080  Biso   1.000  C
  C196     1.0000 0.38220  0.80759  0.63372  Biso   1.000  C
  C197     1.0000 0.52700  0.78841  0.65571  Biso   1.000  C
  C198     1.0000 0.58010  0.81053  0.63374  Biso   1.000  C
  C199     1.0000 0.48360  0.81489  0.76376  Biso   1.000  C
  C200     1.0000 0.44570  0.80726  0.73601  Biso   1.000  C
  C201     1.0000 0.46820  0.72440  0.73964  Biso   1.000  C
  C202     1.0000 0.50570  0.72840  0.76744  Biso   1.000  C
  C203     1.0000 0.51020  0.77460  0.78016  Biso   1.000  C
  C204     1.0000 0.59310  0.87934  0.89356  Biso   1.000  C
  C205     1.0000 0.60640  0.92442  0.90611  Biso   1.000  C
  C206     1.0000 0.59670  0.96202  0.86134  Biso   1.000  C
  C207     1.0000 0.58230  0.91749  0.84735  Biso   1.000  C
  C208     1.0000 0.58160  0.87528  0.86388  Biso   1.000  C
  C209     1.0000 0.57160  0.82675  0.85006  Biso   1.000  C
  C210     1.0000 0.54060  0.77983  0.81107  Biso   1.000  C
  C211     1.0000 0.57380  0.74481  0.85418  Biso   1.000  C
  C212     1.0000 0.58650  0.70052  0.87207  Biso   1.000  C
  C213     1.0000 0.57280  0.65422  0.85994  Biso   1.000  C
  C214     1.0000 0.58690  0.61377  0.87722  Biso   1.000  C
  C215     1.0000 0.62810  0.66125  0.91667  Biso   1.000  C
  C216     1.0000 0.61320  0.70361  0.90137  Biso   1.000  C
  C217     1.0000 0.53890  0.41745  0.39689  Biso   1.000  C
  C218     1.0000 0.63180  0.39910  0.40085  Biso   1.000  C
  C219     1.0000 0.67750  0.40441  0.42774  Biso   1.000  C
  C220     1.0000 0.62560  0.42766  0.44984  Biso   1.000  C
  C221     1.0000 0.53240  0.44431  0.44413  Biso   1.000  C
  C222     1.0000 0.93120  0.43300  0.50566  Biso   1.000  C
  C223     1.0000 0.98610  0.44653  0.52990  Biso   1.000  C
  C224     1.0000 0.12100  0.40637  0.51225  Biso   1.000  C
  C225     1.0000 0.07130  0.39143  0.48736  Biso   1.000  C
  C226     1.0000 0.97330  0.40456  0.48426  Biso   1.000  C
  C227     1.0000 0.77940  0.38855  0.43173  Biso   1.000  C
  C228     1.0000 0.91780  0.38907  0.45814  Biso   1.000  C
  C229     1.0000 0.91640  0.35469  0.41378  Biso   1.000  C
  C230     1.0000 0.96900  0.33075  0.38932  Biso   1.000  C
  C231     1.0000 0.07010  0.32958  0.38920  Biso   1.000  C
  C232     1.0000 0.11780  0.30759  0.36628  Biso   1.000  C
  C233     1.0000 0.97300  0.28841  0.34429  Biso   1.000  C
  C234     1.0000 0.91990  0.31053  0.36626  Biso   1.000  C
  C235     1.0000 0.01640  0.31489  0.23624  Biso   1.000  C
  C236     1.0000 0.05430  0.30726  0.26399  Biso   1.000  C
  C237     1.0000 0.03180  0.22440  0.26036  Biso   1.000  C
  C238     1.0000 0.99430  0.22840  0.23256  Biso   1.000  C
  C239     1.0000 0.98980  0.27460  0.21984  Biso   1.000  C
  C240     1.0000 0.90690  0.37934  0.10644  Biso   1.000  C
  C241     1.0000 0.89360  0.42442  0.09389  Biso   1.000  C
  C242     1.0000 0.90330  0.46202  0.13866  Biso   1.000  C
  C243     1.0000 0.91770  0.41749  0.15265  Biso   1.000  C
  C244     1.0000 0.91840  0.37528  0.13612  Biso   1.000  C
  C245     1.0000 0.92840  0.32675  0.14994  Biso   1.000  C
  C246     1.0000 0.95940  0.27983  0.18893  Biso   1.000  C
  C247     1.0000 0.92620  0.24481  0.14582  Biso   1.000  C
  C248     1.0000 0.91350  0.20052  0.12793  Biso   1.000  C
  C249     1.0000 0.92720  0.15422  0.14006  Biso   1.000  C
  C250     1.0000 0.91310  0.11377  0.12278  Biso   1.000  C
  C251     1.0000 0.87190  0.16125  0.08333  Biso   1.000  C
  C252     1.0000 0.88680  0.20361  0.09863  Biso   1.000  C
  C253     1.0000 0.46110  0.08255  0.89689  Biso   1.000  C
  C254     1.0000 0.36820  0.10090  0.90085  Biso   1.000  C
  C255     1.0000 0.32250  0.09559  0.92774  Biso   1.000  C
  C256     1.0000 0.37440  0.07234  0.94984  Biso   1.000  C
  C257     1.0000 0.46760  0.05569  0.94413  Biso   1.000  C
  C258     1.0000 0.06880  0.06700  0.00566  Biso   1.000  C
  C259     1.0000 0.01390  0.05347  0.02990  Biso   1.000  C
  C260     1.0000 0.87900  0.09363  0.01225  Biso   1.000  C
  C261     1.0000 0.92870  0.10857  0.98736  Biso   1.000  C
  C262     1.0000 0.02670  0.09544  0.98426  Biso   1.000  C
  C263     1.0000 0.22060  0.11145  0.93173  Biso   1.000  C
  C264     1.0000 0.08220  0.11093  0.95814  Biso   1.000  C
  C265     1.0000 0.08360  0.14531  0.91378  Biso   1.000  C
  C266     1.0000 0.03100  0.16925  0.88932  Biso   1.000  C
  C267     1.0000 0.92990  0.17042  0.88920  Biso   1.000  C
  C268     1.0000 0.88220  0.19241  0.86628  Biso   1.000  C
  C269     1.0000 0.02700  0.21159  0.84429  Biso   1.000  C
  C270     1.0000 0.08010  0.18947  0.86626  Biso   1.000  C
  C271     1.0000 0.98360  0.18511  0.73624  Biso   1.000  C
  C272     1.0000 0.94570  0.19274  0.76399  Biso   1.000  C
  C273     1.0000 0.96820  0.27560  0.76036  Biso   1.000  C
  C274     1.0000 0.00570  0.27160  0.73256  Biso   1.000  C
  C275     1.0000 0.01020  0.22540  0.71984  Biso   1.000  C
  C276     1.0000 0.09310  0.12066  0.60644  Biso   1.000  C
  C277     1.0000 0.10640  0.07558  0.59389  Biso   1.000  C
  C278     1.0000 0.09670  0.03798  0.63866  Biso   1.000  C
  C279     1.0000 0.08230  0.08251  0.65265  Biso   1.000  C
  C280     1.0000 0.08160  0.12472  0.63612  Biso   1.000  C
  C281     1.0000 0.07160  0.17325  0.64994  Biso   1.000  C
  C282     1.0000 0.04060  0.22017  0.68893  Biso   1.000  C
  C283     1.0000 0.07380  0.25519  0.64582  Biso   1.000  C
  C284     1.0000 0.08650  0.29948  0.62793  Biso   1.000  C
  C285     1.0000 0.07280  0.34578  0.64006  Biso   1.000  C
  C286     1.0000 0.08690  0.38623  0.62278  Biso   1.000  C
  C287     1.0000 0.12810  0.33875  0.58333  Biso   1.000  C
  C288     1.0000 0.11320  0.29639  0.59863  Biso   1.000  C
  I25      1.0000 0.80191  0.69293  0.19628  Biso   1.000  I
  I26      1.0000 0.43310  0.01486  0.40158  Biso   1.000  I
  I27      1.0000 0.77326  0.51291  0.04104  Biso   1.000  I
  I28      1.0000 0.16477  0.93673  0.43787  Biso   1.000  I
  I29      1.0000 0.67120  0.83676  0.17830  Biso   1.000  I
  I30      1.0000 0.76981  0.58019  0.12924  Biso   1.000  I
  I31      1.0000 0.19809  0.80707  0.69628  Biso   1.000  I
  I32      1.0000 0.56690  0.48514  0.90158  Biso   1.000  I
  I33      1.0000 0.22674  0.98709  0.54104  Biso   1.000  I
  I34      1.0000 0.83523  0.56327  0.93787  Biso   1.000  I
  I35      1.0000 0.32880  0.66324  0.67830  Biso   1.000  I
  I36      1.0000 0.23019  0.91981  0.62924  Biso   1.000  I
  I37      1.0000 0.30191  0.30707  0.30372  Biso   1.000  I
  I38      1.0000 0.93310  0.98514  0.09842  Biso   1.000  I
  I39      1.0000 0.27326  0.48709  0.45896  Biso   1.000  I
  I40      1.0000 0.66477  0.06327  0.06213  Biso   1.000  I
  I41      1.0000 0.17120  0.16324  0.32170  Biso   1.000  I
  I42      1.0000 0.26981  0.41981  0.37076  Biso   1.000  I
  I43      1.0000 0.69809  0.19293  0.80372  Biso   1.000  I
  I44      1.0000 0.06690  0.51486  0.59842  Biso   1.000  I
  I45      1.0000 0.72674  0.01291  0.95896  Biso   1.000  I
  I46      1.0000 0.33523  0.43673  0.56213  Biso   1.000  I
  I47      1.0000 0.82880  0.33676  0.82170  Biso   1.000  I
  I48      1.0000 0.73019  0.08019  0.87076  Biso   1.000  I
  N49      1.0000 0.98940  0.56005  0.08165  Biso   1.000  N
  N50      1.0000 0.32390  0.59876  0.04317  Biso   1.000  N
  N51      1.0000 0.32140  0.63583  0.08998  Biso   1.000  N
  N52      1.0000 0.46800  0.63443  0.06257  Biso   1.000  N
  N53      1.0000 0.57010  0.71305  0.15571  Biso   1.000  N
  N54      1.0000 0.56330  0.73703  0.22443  Biso   1.000  N
  N55      1.0000 0.45010  0.67525  0.32168  Biso   1.000  N
  N56      1.0000 0.44810  0.76128  0.32611  Biso   1.000  N
  N57      1.0000 0.41570  0.71219  0.36746  Biso   1.000  N
  N58      1.0000 0.38460  0.88339  0.40534  Biso   1.000  N
  N59      1.0000 0.57960  0.56712  0.96673  Biso   1.000  N
  N60      1.0000 0.39060  0.53471  0.39036  Biso   1.000  N
  N61      1.0000 0.01060  0.93995  0.58165  Biso   1.000  N
  N62      1.0000 0.67610  0.90124  0.54317  Biso   1.000  N
  N63      1.0000 0.67860  0.86417  0.58998  Biso   1.000  N
  N64      1.0000 0.53200  0.86557  0.56257  Biso   1.000  N
  N65      1.0000 0.42990  0.78695  0.65571  Biso   1.000  N
  N66      1.0000 0.43670  0.76297  0.72443  Biso   1.000  N
  N67      1.0000 0.54990  0.82475  0.82168  Biso   1.000  N
  N68      1.0000 0.55190  0.73872  0.82611  Biso   1.000  N
  N69      1.0000 0.58430  0.78781  0.86746  Biso   1.000  N
  N70      1.0000 0.61540  0.61661  0.90534  Biso   1.000  N
  N71      1.0000 0.42040  0.93288  0.46673  Biso   1.000  N
  N72      1.0000 0.60940  0.96529  0.89036  Biso   1.000  N
  N73      1.0000 0.48940  0.43995  0.41835  Biso   1.000  N
  N74      1.0000 0.82390  0.40124  0.45683  Biso   1.000  N
  N75      1.0000 0.82140  0.36417  0.41002  Biso   1.000  N
  N76      1.0000 0.96800  0.36557  0.43743  Biso   1.000  N
  N77      1.0000 0.07010  0.28695  0.34429  Biso   1.000  N
  N78      1.0000 0.06330  0.26297  0.27557  Biso   1.000  N
  N79      1.0000 0.95010  0.32475  0.17832  Biso   1.000  N
  N80      1.0000 0.94810  0.23872  0.17389  Biso   1.000  N
  N81      1.0000 0.91570  0.28781  0.13254  Biso   1.000  N
  N82      1.0000 0.88460  0.11661  0.09466  Biso   1.000  N
  N83      1.0000 0.07960  0.43288  0.53327  Biso   1.000  N
  N84      1.0000 0.89060  0.46529  0.10964  Biso   1.000  N
  N85      1.0000 0.51060  0.06005  0.91835  Biso   1.000  N
  N86      1.0000 0.17610  0.09876  0.95683  Biso   1.000  N
  N87      1.0000 0.17860  0.13583  0.91002  Biso   1.000  N
  N88      1.0000 0.03200  0.13443  0.93743  Biso   1.000  N
  N89      1.0000 0.92990  0.21305  0.84429  Biso   1.000  N
  N90      1.0000 0.93670  0.23703  0.77557  Biso   1.000  N
  N91      1.0000 0.04990  0.17525  0.67832  Biso   1.000  N
  N92      1.0000 0.05190  0.26128  0.67389  Biso   1.000  N
  N93      1.0000 0.08430  0.21219  0.63254  Biso   1.000  N
  N94      1.0000 0.11540  0.38339  0.59466  Biso   1.000  N
  N95      1.0000 0.92040  0.06712  0.03327  Biso   1.000  N
  N96      1.0000 0.10940  0.03471  0.60964  Biso   1.000  N
