data_image0
_cell_length_a       34.705
_cell_length_b       34.705
_cell_length_c       37.9023
_cell_angle_alpha    90
_cell_angle_beta     90
_cell_angle_gamma    120

_symmetry_space_group_name_H-M    "P 1"
_symmetry_int_tables_number       1

loop_
  _symmetry_equiv_pos_as_xyz
  'x, y, z'

loop_
  _atom_site_label
  _atom_site_occupancy
  _atom_site_fract_x
  _atom_site_fract_y
  _atom_site_fract_z
  _atom_site_thermal_displace_type
  _atom_site_B_iso_or_equiv
  _atom_site_type_symbol
  Zn1      1.0000 0.27186  0.63558  0.52838  Biso   1.000  Zn
  O1       1.0000 0.26100  0.67530  0.49798  Biso   1.000  O
  O2       1.0000 0.32490  0.74040  0.49929  Biso   1.000  O
  O3       1.0000 0.22980  0.62250  0.56749  Biso   1.000  O
  C1       1.0000 0.28650  0.71600  0.49010  Biso   1.000  C
  C2       1.0000 0.23820  0.63160  0.60030  Biso   1.000  C
  O4       1.0000 0.27610  0.64770  0.61431  Biso   1.000  O
  C3       1.0000 0.26360  0.73260  0.46500  Biso   1.000  C
  C4       1.0000 0.20180  0.62190  0.62440  Biso   1.000  C
  C5       1.0000 0.28860  0.77640  0.45300  Biso   1.000  C
  C6       1.0000 0.22080  0.70730  0.45390  Biso   1.000  C
  C7       1.0000 0.15930  0.60800  0.61260  Biso   1.000  C
  C8       1.0000 0.20720  0.62540  0.65880  Biso   1.000  C
  H1       1.0000 0.31810  0.79390  0.46010  Biso   1.000  H
  C9       1.0000 0.26920  0.79410  0.42980  Biso   1.000  C
  C10      1.0000 0.20420  0.72620  0.43140  Biso   1.000  C
  H2       1.0000 0.20340  0.67800  0.46130  Biso   1.000  H
  H3       1.0000 0.15380  0.60760  0.58850  Biso   1.000  H
  C11      1.0000 0.12460  0.59450  0.63620  Biso   1.000  C
  C12      1.0000 0.17200  0.61380  0.68210  Biso   1.000  C
  H4       1.0000 0.23560  0.63610  0.66800  Biso   1.000  H
  H5       1.0000 0.28580  0.82350  0.42230  Biso   1.000  H
  C13      1.0000 0.22710  0.76880  0.41880  Biso   1.000  C
  H6       1.0000 0.17490  0.70860  0.42400  Biso   1.000  H
  H7       1.0000 0.09600  0.58270  0.62720  Biso   1.000  H
  C14      1.0000 0.12930  0.59720  0.67030  Biso   1.000  C
  H8       1.0000 0.17760  0.61730  0.70620  Biso   1.000  H
  C15      1.0000 0.20980  0.78900  0.39260  Biso   1.000  C
  C16      1.0000 0.09080  0.57980  0.69320  Biso   1.000  C
  C17      1.0000 0.18050  0.80200  0.40530  Biso   1.000  C
  C18      1.0000 0.22310  0.79320  0.35820  Biso   1.000  C
  C19      1.0000 0.07420  0.60560  0.70570  Biso   1.000  C
  C20      1.0000 0.07410  0.53590  0.70410  Biso   1.000  C
  N1       1.0000 0.15950  0.81980  0.38480  Biso   1.000  N
  C21      1.0000 0.16420  0.79750  0.44230  Biso   1.000  C
  N2       1.0000 0.21050  0.81040  0.33220  Biso   1.000  N
  C22      1.0000 0.25180  0.77950  0.34570  Biso   1.000  C
  C23      1.0000 0.09520  0.65450  0.69680  Biso   1.000  C
  N3       1.0000 0.03960  0.59470  0.72790  Biso   1.000  N
  N4       1.0000 0.03650  0.51000  0.72650  Biso   1.000  N
  C24      1.0000 0.08840  0.50270  0.69400  Biso   1.000  C
  C25      1.0000 0.13220  0.82470  0.40650  Biso   1.000  C
  C26      1.0000 0.13510  0.81310  0.44330  Biso   1.000  C
  H9       1.0000 0.17240  0.78610  0.46120  Biso   1.000  H
  C27      1.0000 0.23150  0.80780  0.30100  Biso   1.000  C
  H10      1.0000 0.26450  0.76600  0.35870  Biso   1.000  H
  C28      1.0000 0.25780  0.78930  0.31090  Biso   1.000  C
  C29      1.0000 0.06860  0.66780  0.70970  Biso   1.000  C
  H11      1.0000 0.12170  0.67170  0.68470  Biso   1.000  H
  C30      1.0000 0.03390  0.63050  0.73210  Biso   1.000  C
  C31      1.0000 0.03400  0.46980  0.72960  Biso   1.000  C
  C32      1.0000 0.06430  0.46410  0.70930  Biso   1.000  C
  H12      1.0000 0.11180  0.50910  0.67870  Biso   1.000  H
  C33      1.0000 0.10590  0.84410  0.39710  Biso   1.000  C
  H13      1.0000 0.12040  0.81580  0.46290  Biso   1.000  H
  H14      1.0000 0.27640  0.78470  0.29600  Biso   1.000  H
  H15      1.0000 0.07080  0.69530  0.70580  Biso   1.000  H
  H16      1.0000 0.06690  0.43880  0.70710  Biso   1.000  H
  H17      1.0000 0.08930  0.84670  0.41520  Biso   1.000  H
  Zn2      1.0000 0.93853  0.96891  0.86171  Biso   1.000  Zn
  O5       1.0000 0.92767  0.00863  0.83131  Biso   1.000  O
  O6       1.0000 0.99157  0.07373  0.83262  Biso   1.000  O
  O7       1.0000 0.89647  0.95583  0.90082  Biso   1.000  O
  C34      1.0000 0.95317  0.04933  0.82343  Biso   1.000  C
  C35      1.0000 0.90487  0.96493  0.93363  Biso   1.000  C
  O8       1.0000 0.94277  0.98103  0.94764  Biso   1.000  O
  C36      1.0000 0.93027  0.06593  0.79833  Biso   1.000  C
  C37      1.0000 0.86847  0.95523  0.95773  Biso   1.000  C
  C38      1.0000 0.95527  0.10973  0.78633  Biso   1.000  C
  C39      1.0000 0.88747  0.04063  0.78723  Biso   1.000  C
  C40      1.0000 0.82597  0.94133  0.94593  Biso   1.000  C
  C41      1.0000 0.87387  0.95873  0.99213  Biso   1.000  C
  H18      1.0000 0.98477  0.12723  0.79343  Biso   1.000  H
  C42      1.0000 0.93587  0.12743  0.76313  Biso   1.000  C
  C43      1.0000 0.87087  0.05953  0.76473  Biso   1.000  C
  H19      1.0000 0.87007  0.01133  0.79463  Biso   1.000  H
  H20      1.0000 0.82047  0.94093  0.92183  Biso   1.000  H
  C44      1.0000 0.79127  0.92783  0.96953  Biso   1.000  C
  C45      1.0000 0.83867  0.94713  0.01543  Biso   1.000  C
  H21      1.0000 0.90227  0.96943  0.00133  Biso   1.000  H
  H22      1.0000 0.95247  0.15683  0.75563  Biso   1.000  H
  C46      1.0000 0.89377  0.10213  0.75213  Biso   1.000  C
  H23      1.0000 0.84157  0.04193  0.75733  Biso   1.000  H
  H24      1.0000 0.76267  0.91603  0.96053  Biso   1.000  H
  C47      1.0000 0.79597  0.93053  0.00363  Biso   1.000  C
  H25      1.0000 0.84427  0.95063  0.03953  Biso   1.000  H
  C48      1.0000 0.87647  0.12233  0.72593  Biso   1.000  C
  C49      1.0000 0.75747  0.91313  0.02653  Biso   1.000  C
  C50      1.0000 0.84717  0.13533  0.73863  Biso   1.000  C
  C51      1.0000 0.88977  0.12653  0.69153  Biso   1.000  C
  C52      1.0000 0.74087  0.93893  0.03903  Biso   1.000  C
  C53      1.0000 0.74077  0.86923  0.03743  Biso   1.000  C
  N5       1.0000 0.82617  0.15313  0.71813  Biso   1.000  N
  C54      1.0000 0.83087  0.13083  0.77563  Biso   1.000  C
  N6       1.0000 0.87717  0.14373  0.66553  Biso   1.000  N
  C55      1.0000 0.91847  0.11283  0.67903  Biso   1.000  C
  C56      1.0000 0.76187  0.98783  0.03013  Biso   1.000  C
  N7       1.0000 0.70627  0.92803  0.06123  Biso   1.000  N
  N8       1.0000 0.70317  0.84333  0.05983  Biso   1.000  N
  C57      1.0000 0.75507  0.83603  0.02733  Biso   1.000  C
  C58      1.0000 0.79887  0.15803  0.73983  Biso   1.000  C
  C59      1.0000 0.80177  0.14643  0.77663  Biso   1.000  C
  H26      1.0000 0.83907  0.11943  0.79453  Biso   1.000  H
  C60      1.0000 0.89817  0.14113  0.63433  Biso   1.000  C
  H27      1.0000 0.93117  0.09933  0.69203  Biso   1.000  H
  C61      1.0000 0.92447  0.12263  0.64423  Biso   1.000  C
  C62      1.0000 0.73527  0.00113  0.04303  Biso   1.000  C
  H28      1.0000 0.78837  0.00503  0.01803  Biso   1.000  H
  C63      1.0000 0.70057  0.96383  0.06543  Biso   1.000  C
  C64      1.0000 0.70067  0.80313  0.06293  Biso   1.000  C
  C65      1.0000 0.73097  0.79743  0.04263  Biso   1.000  C
  H29      1.0000 0.77847  0.84243  0.01203  Biso   1.000  H
  C66      1.0000 0.77257  0.17743  0.73043  Biso   1.000  C
  H30      1.0000 0.78707  0.14913  0.79623  Biso   1.000  H
  H31      1.0000 0.94307  0.11803  0.62933  Biso   1.000  H
  H32      1.0000 0.73747  0.02863  0.03913  Biso   1.000  H
  H33      1.0000 0.73357  0.77213  0.04043  Biso   1.000  H
  H34      1.0000 0.75597  0.18003  0.74853  Biso   1.000  H
  Zn3      1.0000 0.60519  0.30225  0.19505  Biso   1.000  Zn
  O9       1.0000 0.59433  0.34197  0.16465  Biso   1.000  O
  O10      1.0000 0.65823  0.40707  0.16596  Biso   1.000  O
  O11      1.0000 0.56313  0.28917  0.23416  Biso   1.000  O
  C67      1.0000 0.61983  0.38267  0.15677  Biso   1.000  C
  C68      1.0000 0.57153  0.29827  0.26697  Biso   1.000  C
  O12      1.0000 0.60943  0.31437  0.28098  Biso   1.000  O
  C69      1.0000 0.59693  0.39927  0.13167  Biso   1.000  C
  C70      1.0000 0.53513  0.28857  0.29107  Biso   1.000  C
  C71      1.0000 0.62193  0.44307  0.11967  Biso   1.000  C
  C72      1.0000 0.55413  0.37397  0.12057  Biso   1.000  C
  C73      1.0000 0.49263  0.27467  0.27927  Biso   1.000  C
  C74      1.0000 0.54053  0.29207  0.32547  Biso   1.000  C
  H35      1.0000 0.65143  0.46057  0.12677  Biso   1.000  H
  C75      1.0000 0.60253  0.46077  0.09647  Biso   1.000  C
  C76      1.0000 0.53753  0.39287  0.09807  Biso   1.000  C
  H36      1.0000 0.53673  0.34467  0.12797  Biso   1.000  H
  H37      1.0000 0.48713  0.27427  0.25517  Biso   1.000  H
  C77      1.0000 0.45793  0.26117  0.30287  Biso   1.000  C
  C78      1.0000 0.50533  0.28047  0.34877  Biso   1.000  C
  H38      1.0000 0.56893  0.30277  0.33467  Biso   1.000  H
  H39      1.0000 0.61913  0.49017  0.08897  Biso   1.000  H
  C79      1.0000 0.56043  0.43547  0.08547  Biso   1.000  C
  H40      1.0000 0.50823  0.37527  0.09067  Biso   1.000  H
  H41      1.0000 0.42933  0.24937  0.29387  Biso   1.000  H
  C80      1.0000 0.46263  0.26387  0.33697  Biso   1.000  C
  H42      1.0000 0.51093  0.28397  0.37287  Biso   1.000  H
  C81      1.0000 0.54313  0.45567  0.05927  Biso   1.000  C
  C82      1.0000 0.42413  0.24647  0.35987  Biso   1.000  C
  C83      1.0000 0.51383  0.46867  0.07197  Biso   1.000  C
  C84      1.0000 0.55643  0.45987  0.02487  Biso   1.000  C
  C85      1.0000 0.40753  0.27227  0.37237  Biso   1.000  C
  C86      1.0000 0.40743  0.20257  0.37077  Biso   1.000  C
  N9       1.0000 0.49283  0.48647  0.05147  Biso   1.000  N
  C87      1.0000 0.49753  0.46417  0.10897  Biso   1.000  C
  N10      1.0000 0.54383  0.47707  0.99887  Biso   1.000  N
  C88      1.0000 0.58513  0.44617  0.01237  Biso   1.000  C
  C89      1.0000 0.42853  0.32117  0.36347  Biso   1.000  C
  N11      1.0000 0.37293  0.26137  0.39457  Biso   1.000  N
  N12      1.0000 0.36983  0.17667  0.39317  Biso   1.000  N
  C90      1.0000 0.42173  0.16937  0.36067  Biso   1.000  C
  C91      1.0000 0.46553  0.49137  0.07317  Biso   1.000  C
  C92      1.0000 0.46843  0.47977  0.10997  Biso   1.000  C
  H43      1.0000 0.50573  0.45277  0.12787  Biso   1.000  H
  C93      1.0000 0.56483  0.47447  0.96767  Biso   1.000  C
  H44      1.0000 0.59783  0.43267  0.02537  Biso   1.000  H
  C94      1.0000 0.59113  0.45597  0.97757  Biso   1.000  C
  C95      1.0000 0.40193  0.33447  0.37637  Biso   1.000  C
  H45      1.0000 0.45503  0.33837  0.35137  Biso   1.000  H
  C96      1.0000 0.36723  0.29717  0.39877  Biso   1.000  C
  C97      1.0000 0.36733  0.13647  0.39627  Biso   1.000  C
  C98      1.0000 0.39763  0.13077  0.37597  Biso   1.000  C
  H46      1.0000 0.44513  0.17577  0.34537  Biso   1.000  H
  C99      1.0000 0.43923  0.51077  0.06377  Biso   1.000  C
  H47      1.0000 0.45373  0.48247  0.12957  Biso   1.000  H
  H48      1.0000 0.60973  0.45137  0.96267  Biso   1.000  H
  H49      1.0000 0.40413  0.36197  0.37247  Biso   1.000  H
  H50      1.0000 0.40023  0.10547  0.37377  Biso   1.000  H
  H51      1.0000 0.42263  0.51337  0.08187  Biso   1.000  H
  Zn4      1.0000 0.36442  0.63628  0.52838  Biso   1.000  Zn
  O13      1.0000 0.32470  0.58570  0.49798  Biso   1.000  O
  O14      1.0000 0.25960  0.58450  0.49929  Biso   1.000  O
  O15      1.0000 0.37750  0.60730  0.56749  Biso   1.000  O
  C100     1.0000 0.28400  0.57050  0.49010  Biso   1.000  C
  C101     1.0000 0.36840  0.60660  0.60030  Biso   1.000  C
  O16      1.0000 0.35230  0.62840  0.61431  Biso   1.000  O
  C102     1.0000 0.26740  0.53100  0.46500  Biso   1.000  C
  C103     1.0000 0.37810  0.57990  0.62440  Biso   1.000  C
  C104     1.0000 0.22360  0.51220  0.45300  Biso   1.000  C
  C105     1.0000 0.29270  0.51350  0.45390  Biso   1.000  C
  C106     1.0000 0.39200  0.55130  0.61260  Biso   1.000  C
  C107     1.0000 0.37460  0.58180  0.65880  Biso   1.000  C
  H52      1.0000 0.20610  0.52420  0.46010  Biso   1.000  H
  C108     1.0000 0.20590  0.47510  0.42980  Biso   1.000  C
  C109     1.0000 0.27380  0.47800  0.43140  Biso   1.000  C
  H53      1.0000 0.32200  0.52540  0.46130  Biso   1.000  H
  H54      1.0000 0.39240  0.54620  0.58850  Biso   1.000  H
  C110     1.0000 0.40550  0.53010  0.63620  Biso   1.000  C
  C111     1.0000 0.38620  0.55820  0.68210  Biso   1.000  C
  H55      1.0000 0.36390  0.59950  0.66800  Biso   1.000  H
  H56      1.0000 0.17650  0.46230  0.42230  Biso   1.000  H
  C112     1.0000 0.23120  0.45830  0.41880  Biso   1.000  C
  H57      1.0000 0.29140  0.46630  0.42400  Biso   1.000  H
  H58      1.0000 0.41730  0.51330  0.62720  Biso   1.000  H
  C113     1.0000 0.40280  0.53210  0.67030  Biso   1.000  C
  H59      1.0000 0.38270  0.56030  0.70620  Biso   1.000  H
  C114     1.0000 0.21100  0.42080  0.39260  Biso   1.000  C
  C115     1.0000 0.42020  0.51100  0.69320  Biso   1.000  C
  C116     1.0000 0.19800  0.37850  0.40530  Biso   1.000  C
  C117     1.0000 0.20680  0.42990  0.35820  Biso   1.000  C
  C118     1.0000 0.39440  0.46860  0.70570  Biso   1.000  C
  C119     1.0000 0.46410  0.53820  0.70410  Biso   1.000  C
  N13      1.0000 0.18020  0.33970  0.38480  Biso   1.000  N
  C120     1.0000 0.20250  0.36670  0.44230  Biso   1.000  C
  N14      1.0000 0.18960  0.40010  0.33220  Biso   1.000  N
  C121     1.0000 0.22050  0.47230  0.34570  Biso   1.000  C
  C122     1.0000 0.34550  0.44070  0.69680  Biso   1.000  C
  N15      1.0000 0.40530  0.44490  0.72790  Biso   1.000  N
  N16      1.0000 0.49000  0.52650  0.72650  Biso   1.000  N
  C123     1.0000 0.49730  0.58570  0.69400  Biso   1.000  C
  C124     1.0000 0.17530  0.30750  0.40650  Biso   1.000  C
  C125     1.0000 0.18690  0.32200  0.44330  Biso   1.000  C
  H60      1.0000 0.21390  0.38630  0.46120  Biso   1.000  H
  C126     1.0000 0.19220  0.42370  0.30100  Biso   1.000  C
  H61      1.0000 0.23400  0.49850  0.35870  Biso   1.000  H
  C127     1.0000 0.21070  0.46850  0.31090  Biso   1.000  C
  C128     1.0000 0.33220  0.40080  0.70970  Biso   1.000  C
  H62      1.0000 0.32830  0.45000  0.68470  Biso   1.000  H
  C129     1.0000 0.36950  0.40340  0.73210  Biso   1.000  C
  C130     1.0000 0.53020  0.56420  0.72960  Biso   1.000  C
  C131     1.0000 0.53590  0.60020  0.70930  Biso   1.000  C
  H63      1.0000 0.49090  0.60270  0.67870  Biso   1.000  H
  C132     1.0000 0.15590  0.26180  0.39710  Biso   1.000  C
  H64      1.0000 0.18420  0.30460  0.46290  Biso   1.000  H
  H65      1.0000 0.21530  0.49170  0.29600  Biso   1.000  H
  H66      1.0000 0.30470  0.37550  0.70580  Biso   1.000  H
  H67      1.0000 0.56120  0.62810  0.70710  Biso   1.000  H
  H68      1.0000 0.15330  0.24260  0.41520  Biso   1.000  H
  Zn5      1.0000 0.03109  0.96961  0.86171  Biso   1.000  Zn
  O17      1.0000 0.99137  0.91903  0.83131  Biso   1.000  O
  O18      1.0000 0.92627  0.91783  0.83262  Biso   1.000  O
  O19      1.0000 0.04417  0.94063  0.90082  Biso   1.000  O
  C133     1.0000 0.95067  0.90383  0.82343  Biso   1.000  C
  C134     1.0000 0.03507  0.93993  0.93363  Biso   1.000  C
  O20      1.0000 0.01897  0.96173  0.94764  Biso   1.000  O
  C135     1.0000 0.93407  0.86433  0.79833  Biso   1.000  C
  C136     1.0000 0.04477  0.91323  0.95773  Biso   1.000  C
  C137     1.0000 0.89027  0.84553  0.78633  Biso   1.000  C
  C138     1.0000 0.95937  0.84683  0.78723  Biso   1.000  C
  C139     1.0000 0.05867  0.88463  0.94593  Biso   1.000  C
  C140     1.0000 0.04127  0.91513  0.99213  Biso   1.000  C
  H69      1.0000 0.87277  0.85753  0.79343  Biso   1.000  H
  C141     1.0000 0.87257  0.80843  0.76313  Biso   1.000  C
  C142     1.0000 0.94047  0.81133  0.76473  Biso   1.000  C
  H70      1.0000 0.98867  0.85873  0.79463  Biso   1.000  H
  H71      1.0000 0.05907  0.87953  0.92183  Biso   1.000  H
  C143     1.0000 0.07217  0.86343  0.96953  Biso   1.000  C
  C144     1.0000 0.05287  0.89153  0.01543  Biso   1.000  C
  H72      1.0000 0.03057  0.93283  0.00133  Biso   1.000  H
  H73      1.0000 0.84317  0.79563  0.75563  Biso   1.000  H
  C145     1.0000 0.89787  0.79163  0.75213  Biso   1.000  C
  H74      1.0000 0.95807  0.79963  0.75733  Biso   1.000  H
  H75      1.0000 0.08397  0.84663  0.96053  Biso   1.000  H
  C146     1.0000 0.06947  0.86543  0.00363  Biso   1.000  C
  H76      1.0000 0.04937  0.89363  0.03953  Biso   1.000  H
  C147     1.0000 0.87767  0.75413  0.72593  Biso   1.000  C
  C148     1.0000 0.08687  0.84433  0.02653  Biso   1.000  C
  C149     1.0000 0.86467  0.71183  0.73863  Biso   1.000  C
  C150     1.0000 0.87347  0.76323  0.69153  Biso   1.000  C
  C151     1.0000 0.06107  0.80193  0.03903  Biso   1.000  C
  C152     1.0000 0.13077  0.87153  0.03743  Biso   1.000  C
  N17      1.0000 0.84687  0.67303  0.71813  Biso   1.000  N
  C153     1.0000 0.86917  0.70003  0.77563  Biso   1.000  C
  N18      1.0000 0.85627  0.73343  0.66553  Biso   1.000  N
  C154     1.0000 0.88717  0.80563  0.67903  Biso   1.000  C
  C155     1.0000 0.01217  0.77403  0.03013  Biso   1.000  C
  N19      1.0000 0.07197  0.77823  0.06123  Biso   1.000  N
  N20      1.0000 0.15667  0.85983  0.05983  Biso   1.000  N
  C156     1.0000 0.16397  0.91903  0.02733  Biso   1.000  C
  C157     1.0000 0.84197  0.64083  0.73983  Biso   1.000  C
  C158     1.0000 0.85357  0.65533  0.77663  Biso   1.000  C
  H77      1.0000 0.88057  0.71963  0.79453  Biso   1.000  H
  C159     1.0000 0.85887  0.75703  0.63433  Biso   1.000  C
  H78      1.0000 0.90067  0.83183  0.69203  Biso   1.000  H
  C160     1.0000 0.87737  0.80183  0.64423  Biso   1.000  C
  C161     1.0000 0.99887  0.73413  0.04303  Biso   1.000  C
  H79      1.0000 0.99497  0.78333  0.01803  Biso   1.000  H
  C162     1.0000 0.03617  0.73673  0.06543  Biso   1.000  C
  C163     1.0000 0.19687  0.89753  0.06293  Biso   1.000  C
  C164     1.0000 0.20257  0.93353  0.04263  Biso   1.000  C
  H80      1.0000 0.15757  0.93603  0.01203  Biso   1.000  H
  C165     1.0000 0.82257  0.59513  0.73043  Biso   1.000  C
  H81      1.0000 0.85087  0.63793  0.79623  Biso   1.000  H
  H82      1.0000 0.88197  0.82503  0.62933  Biso   1.000  H
  H83      1.0000 0.97137  0.70883  0.03913  Biso   1.000  H
  H84      1.0000 0.22787  0.96143  0.04043  Biso   1.000  H
  H85      1.0000 0.81997  0.57593  0.74853  Biso   1.000  H
  Zn6      1.0000 0.69775  0.30295  0.19505  Biso   1.000  Zn
  O21      1.0000 0.65803  0.25237  0.16465  Biso   1.000  O
  O22      1.0000 0.59293  0.25117  0.16596  Biso   1.000  O
  O23      1.0000 0.71083  0.27397  0.23416  Biso   1.000  O
  C166     1.0000 0.61733  0.23717  0.15677  Biso   1.000  C
  C167     1.0000 0.70173  0.27327  0.26697  Biso   1.000  C
  O24      1.0000 0.68563  0.29507  0.28098  Biso   1.000  O
  C168     1.0000 0.60073  0.19767  0.13167  Biso   1.000  C
  C169     1.0000 0.71143  0.24657  0.29107  Biso   1.000  C
  C170     1.0000 0.55693  0.17887  0.11967  Biso   1.000  C
  C171     1.0000 0.62603  0.18017  0.12057  Biso   1.000  C
  C172     1.0000 0.72533  0.21797  0.27927  Biso   1.000  C
  C173     1.0000 0.70793  0.24847  0.32547  Biso   1.000  C
  H86      1.0000 0.53943  0.19087  0.12677  Biso   1.000  H
  C174     1.0000 0.53923  0.14177  0.09647  Biso   1.000  C
  C175     1.0000 0.60713  0.14467  0.09807  Biso   1.000  C
  H87      1.0000 0.65533  0.19207  0.12797  Biso   1.000  H
  H88      1.0000 0.72573  0.21287  0.25517  Biso   1.000  H
  C176     1.0000 0.73883  0.19677  0.30287  Biso   1.000  C
  C177     1.0000 0.71953  0.22487  0.34877  Biso   1.000  C
  H89      1.0000 0.69723  0.26617  0.33467  Biso   1.000  H
  H90      1.0000 0.50983  0.12897  0.08897  Biso   1.000  H
  C178     1.0000 0.56453  0.12497  0.08547  Biso   1.000  C
  H91      1.0000 0.62473  0.13297  0.09067  Biso   1.000  H
  H92      1.0000 0.75063  0.17997  0.29387  Biso   1.000  H
  C179     1.0000 0.73613  0.19877  0.33697  Biso   1.000  C
  H93      1.0000 0.71603  0.22697  0.37287  Biso   1.000  H
  C180     1.0000 0.54433  0.08747  0.05927  Biso   1.000  C
  C181     1.0000 0.75353  0.17767  0.35987  Biso   1.000  C
  C182     1.0000 0.53133  0.04517  0.07197  Biso   1.000  C
  C183     1.0000 0.54013  0.09657  0.02487  Biso   1.000  C
  C184     1.0000 0.72773  0.13527  0.37237  Biso   1.000  C
  C185     1.0000 0.79743  0.20487  0.37077  Biso   1.000  C
  N21      1.0000 0.51353  0.00637  0.05147  Biso   1.000  N
  C186     1.0000 0.53583  0.03337  0.10897  Biso   1.000  C
  N22      1.0000 0.52293  0.06677  0.99887  Biso   1.000  N
  C187     1.0000 0.55383  0.13897  0.01237  Biso   1.000  C
  C188     1.0000 0.67883  0.10737  0.36347  Biso   1.000  C
  N23      1.0000 0.73863  0.11157  0.39457  Biso   1.000  N
  N24      1.0000 0.82333  0.19317  0.39317  Biso   1.000  N
  C189     1.0000 0.83063  0.25237  0.36067  Biso   1.000  C
  C190     1.0000 0.50863  0.97417  0.07317  Biso   1.000  C
  C191     1.0000 0.52023  0.98867  0.10997  Biso   1.000  C
  H94      1.0000 0.54723  0.05297  0.12787  Biso   1.000  H
  C192     1.0000 0.52553  0.09037  0.96767  Biso   1.000  C
  H95      1.0000 0.56733  0.16517  0.02537  Biso   1.000  H
  C193     1.0000 0.54403  0.13517  0.97757  Biso   1.000  C
  C194     1.0000 0.66553  0.06747  0.37637  Biso   1.000  C
  H96      1.0000 0.66163  0.11667  0.35137  Biso   1.000  H
  C195     1.0000 0.70283  0.07007  0.39877  Biso   1.000  C
  C196     1.0000 0.86353  0.23087  0.39627  Biso   1.000  C
  C197     1.0000 0.86923  0.26687  0.37597  Biso   1.000  C
  H97      1.0000 0.82423  0.26937  0.34537  Biso   1.000  H
  C198     1.0000 0.48923  0.92847  0.06377  Biso   1.000  C
  H98      1.0000 0.51753  0.97127  0.12957  Biso   1.000  H
  H99      1.0000 0.54863  0.15837  0.96267  Biso   1.000  H
  H100     1.0000 0.63803  0.04217  0.37247  Biso   1.000  H
  H101     1.0000 0.89453  0.29477  0.37377  Biso   1.000  H
  H102     1.0000 0.48663  0.90927  0.08187  Biso   1.000  H
  Zn7      1.0000 0.36372  0.72814  0.52838  Biso   1.000  Zn
  O25      1.0000 0.41430  0.73900  0.49798  Biso   1.000  O
  O26      1.0000 0.41550  0.67510  0.49929  Biso   1.000  O
  O27      1.0000 0.39270  0.77020  0.56749  Biso   1.000  O
  C199     1.0000 0.42950  0.71350  0.49010  Biso   1.000  C
  C200     1.0000 0.39340  0.76180  0.60030  Biso   1.000  C
  O28      1.0000 0.37160  0.72390  0.61431  Biso   1.000  O
  C201     1.0000 0.46900  0.73640  0.46500  Biso   1.000  C
  C202     1.0000 0.42010  0.79820  0.62440  Biso   1.000  C
  C203     1.0000 0.48780  0.71140  0.45300  Biso   1.000  C
  C204     1.0000 0.48650  0.77920  0.45390  Biso   1.000  C
  C205     1.0000 0.44870  0.84070  0.61260  Biso   1.000  C
  C206     1.0000 0.41820  0.79280  0.65880  Biso   1.000  C
  H103     1.0000 0.47580  0.68190  0.46010  Biso   1.000  H
  C207     1.0000 0.52490  0.73080  0.42980  Biso   1.000  C
  C208     1.0000 0.52200  0.79580  0.43140  Biso   1.000  C
  H104     1.0000 0.47460  0.79660  0.46130  Biso   1.000  H
  H105     1.0000 0.45380  0.84620  0.58850  Biso   1.000  H
  C209     1.0000 0.46990  0.87540  0.63620  Biso   1.000  C
  C210     1.0000 0.44180  0.82800  0.68210  Biso   1.000  C
  H106     1.0000 0.40050  0.76440  0.66800  Biso   1.000  H
  H107     1.0000 0.53770  0.71420  0.42230  Biso   1.000  H
  C211     1.0000 0.54170  0.77290  0.41880  Biso   1.000  C
  H108     1.0000 0.53370  0.82510  0.42400  Biso   1.000  H
  H109     1.0000 0.48670  0.90400  0.62720  Biso   1.000  H
  C212     1.0000 0.46790  0.87070  0.67030  Biso   1.000  C
  H110     1.0000 0.43970  0.82240  0.70620  Biso   1.000  H
  C213     1.0000 0.57920  0.79020  0.39260  Biso   1.000  C
  C214     1.0000 0.48900  0.90920  0.69320  Biso   1.000  C
  C215     1.0000 0.62150  0.81950  0.40530  Biso   1.000  C
  C216     1.0000 0.57010  0.77690  0.35820  Biso   1.000  C
  C217     1.0000 0.53140  0.92580  0.70570  Biso   1.000  C
  C218     1.0000 0.46180  0.92590  0.70410  Biso   1.000  C
  N25      1.0000 0.66030  0.84050  0.38480  Biso   1.000  N
  C219     1.0000 0.63330  0.83580  0.44230  Biso   1.000  C
  N26      1.0000 0.59990  0.78950  0.33220  Biso   1.000  N
  C220     1.0000 0.52770  0.74820  0.34570  Biso   1.000  C
  C221     1.0000 0.55930  0.90480  0.69680  Biso   1.000  C
  N27      1.0000 0.55510  0.96040  0.72790  Biso   1.000  N
  N28      1.0000 0.47350  0.96350  0.72650  Biso   1.000  N
  C222     1.0000 0.41430  0.91160  0.69400  Biso   1.000  C
  C223     1.0000 0.69250  0.86780  0.40650  Biso   1.000  C
  C224     1.0000 0.67800  0.86490  0.44330  Biso   1.000  C
  H111     1.0000 0.61370  0.82760  0.46120  Biso   1.000  H
  C225     1.0000 0.57630  0.76850  0.30100  Biso   1.000  C
  H112     1.0000 0.50150  0.73550  0.35870  Biso   1.000  H
  C226     1.0000 0.53150  0.74220  0.31090  Biso   1.000  C
  C227     1.0000 0.59920  0.93140  0.70970  Biso   1.000  C
  H113     1.0000 0.55000  0.87830  0.68470  Biso   1.000  H
  C228     1.0000 0.59660  0.96610  0.73210  Biso   1.000  C
  C229     1.0000 0.43580  0.96600  0.72960  Biso   1.000  C
  C230     1.0000 0.39980  0.93570  0.70930  Biso   1.000  C
  H114     1.0000 0.39730  0.88820  0.67870  Biso   1.000  H
  C231     1.0000 0.73820  0.89410  0.39710  Biso   1.000  C
  H115     1.0000 0.69540  0.87960  0.46290  Biso   1.000  H
  H116     1.0000 0.50830  0.72360  0.29600  Biso   1.000  H
  H117     1.0000 0.62450  0.92920  0.70580  Biso   1.000  H
  H118     1.0000 0.37190  0.93310  0.70710  Biso   1.000  H
  H119     1.0000 0.75740  0.91070  0.41520  Biso   1.000  H
  Zn8      1.0000 0.03039  0.06147  0.86171  Biso   1.000  Zn
  O29      1.0000 0.08097  0.07233  0.83131  Biso   1.000  O
  O30      1.0000 0.08217  0.00843  0.83262  Biso   1.000  O
  O31      1.0000 0.05937  0.10353  0.90082  Biso   1.000  O
  C232     1.0000 0.09617  0.04683  0.82343  Biso   1.000  C
  C233     1.0000 0.06007  0.09513  0.93363  Biso   1.000  C
  O32      1.0000 0.03827  0.05723  0.94764  Biso   1.000  O
  C234     1.0000 0.13567  0.06973  0.79833  Biso   1.000  C
  C235     1.0000 0.08677  0.13153  0.95773  Biso   1.000  C
  C236     1.0000 0.15447  0.04473  0.78633  Biso   1.000  C
  C237     1.0000 0.15317  0.11253  0.78723  Biso   1.000  C
  C238     1.0000 0.11537  0.17403  0.94593  Biso   1.000  C
  C239     1.0000 0.08487  0.12613  0.99213  Biso   1.000  C
  H120     1.0000 0.14247  0.01523  0.79343  Biso   1.000  H
  C240     1.0000 0.19157  0.06413  0.76313  Biso   1.000  C
  C241     1.0000 0.18867  0.12913  0.76473  Biso   1.000  C
  H121     1.0000 0.14127  0.12993  0.79463  Biso   1.000  H
  H122     1.0000 0.12047  0.17953  0.92183  Biso   1.000  H
  C242     1.0000 0.13657  0.20873  0.96953  Biso   1.000  C
  C243     1.0000 0.10847  0.16133  0.01543  Biso   1.000  C
  H123     1.0000 0.06717  0.09773  0.00133  Biso   1.000  H
  H124     1.0000 0.20437  0.04753  0.75563  Biso   1.000  H
  C244     1.0000 0.20837  0.10623  0.75213  Biso   1.000  C
  H125     1.0000 0.20037  0.15843  0.75733  Biso   1.000  H
  H126     1.0000 0.15337  0.23733  0.96053  Biso   1.000  H
  C245     1.0000 0.13457  0.20403  0.00363  Biso   1.000  C
  H127     1.0000 0.10637  0.15573  0.03953  Biso   1.000  H
  C246     1.0000 0.24587  0.12353  0.72593  Biso   1.000  C
  C247     1.0000 0.15567  0.24253  0.02653  Biso   1.000  C
  C248     1.0000 0.28817  0.15283  0.73863  Biso   1.000  C
  C249     1.0000 0.23677  0.11023  0.69153  Biso   1.000  C
  C250     1.0000 0.19807  0.25913  0.03903  Biso   1.000  C
  C251     1.0000 0.12847  0.25923  0.03743  Biso   1.000  C
  N29      1.0000 0.32697  0.17383  0.71813  Biso   1.000  N
  C252     1.0000 0.29997  0.16913  0.77563  Biso   1.000  C
  N30      1.0000 0.26657  0.12283  0.66553  Biso   1.000  N
  C253     1.0000 0.19437  0.08153  0.67903  Biso   1.000  C
  C254     1.0000 0.22597  0.23813  0.03013  Biso   1.000  C
  N31      1.0000 0.22177  0.29373  0.06123  Biso   1.000  N
  N32      1.0000 0.14017  0.29683  0.05983  Biso   1.000  N
  C255     1.0000 0.08097  0.24493  0.02733  Biso   1.000  C
  C256     1.0000 0.35917  0.20113  0.73983  Biso   1.000  C
  C257     1.0000 0.34467  0.19823  0.77663  Biso   1.000  C
  H128     1.0000 0.28037  0.16093  0.79453  Biso   1.000  H
  C258     1.0000 0.24297  0.10183  0.63433  Biso   1.000  C
  H129     1.0000 0.16817  0.06883  0.69203  Biso   1.000  H
  C259     1.0000 0.19817  0.07553  0.64423  Biso   1.000  C
  C260     1.0000 0.26587  0.26473  0.04303  Biso   1.000  C
  H130     1.0000 0.21667  0.21163  0.01803  Biso   1.000  H
  C261     1.0000 0.26327  0.29943  0.06543  Biso   1.000  C
  C262     1.0000 0.10247  0.29933  0.06293  Biso   1.000  C
  C263     1.0000 0.06647  0.26903  0.04263  Biso   1.000  C
  H131     1.0000 0.06397  0.22153  0.01203  Biso   1.000  H
  C264     1.0000 0.40487  0.22743  0.73043  Biso   1.000  C
  H132     1.0000 0.36207  0.21293  0.79623  Biso   1.000  H
  H133     1.0000 0.17497  0.05693  0.62933  Biso   1.000  H
  H134     1.0000 0.29117  0.26253  0.03913  Biso   1.000  H
  H135     1.0000 0.03857  0.26643  0.04043  Biso   1.000  H
  H136     1.0000 0.42407  0.24403  0.74853  Biso   1.000  H
  Zn9      1.0000 0.69705  0.39481  0.19505  Biso   1.000  Zn
  O33      1.0000 0.74763  0.40567  0.16465  Biso   1.000  O
  O34      1.0000 0.74883  0.34177  0.16596  Biso   1.000  O
  O35      1.0000 0.72603  0.43687  0.23416  Biso   1.000  O
  C265     1.0000 0.76283  0.38017  0.15677  Biso   1.000  C
  C266     1.0000 0.72673  0.42847  0.26697  Biso   1.000  C
  O36      1.0000 0.70493  0.39057  0.28098  Biso   1.000  O
  C267     1.0000 0.80233  0.40307  0.13167  Biso   1.000  C
  C268     1.0000 0.75343  0.46487  0.29107  Biso   1.000  C
  C269     1.0000 0.82113  0.37807  0.11967  Biso   1.000  C
  C270     1.0000 0.81983  0.44587  0.12057  Biso   1.000  C
  C271     1.0000 0.78203  0.50737  0.27927  Biso   1.000  C
  C272     1.0000 0.75153  0.45947  0.32547  Biso   1.000  C
  H137     1.0000 0.80913  0.34857  0.12677  Biso   1.000  H
  C273     1.0000 0.85823  0.39747  0.09647  Biso   1.000  C
  C274     1.0000 0.85533  0.46247  0.09807  Biso   1.000  C
  H138     1.0000 0.80793  0.46327  0.12797  Biso   1.000  H
  H139     1.0000 0.78713  0.51287  0.25517  Biso   1.000  H
  C275     1.0000 0.80323  0.54207  0.30287  Biso   1.000  C
  C276     1.0000 0.77513  0.49467  0.34877  Biso   1.000  C
  H140     1.0000 0.73383  0.43107  0.33467  Biso   1.000  H
  H141     1.0000 0.87103  0.38087  0.08897  Biso   1.000  H
  C277     1.0000 0.87503  0.43957  0.08547  Biso   1.000  C
  H142     1.0000 0.86703  0.49177  0.09067  Biso   1.000  H
  H143     1.0000 0.82003  0.57067  0.29387  Biso   1.000  H
  C278     1.0000 0.80123  0.53737  0.33697  Biso   1.000  C
  H144     1.0000 0.77303  0.48907  0.37287  Biso   1.000  H
  C279     1.0000 0.91253  0.45687  0.05927  Biso   1.000  C
  C280     1.0000 0.82233  0.57587  0.35987  Biso   1.000  C
  C281     1.0000 0.95483  0.48617  0.07197  Biso   1.000  C
  C282     1.0000 0.90343  0.44357  0.02487  Biso   1.000  C
  C283     1.0000 0.86473  0.59247  0.37237  Biso   1.000  C
  C284     1.0000 0.79513  0.59257  0.37077  Biso   1.000  C
  N33      1.0000 0.99363  0.50717  0.05147  Biso   1.000  N
  C285     1.0000 0.96663  0.50247  0.10897  Biso   1.000  C
  N34      1.0000 0.93323  0.45617  0.99887  Biso   1.000  N
  C286     1.0000 0.86103  0.41487  0.01237  Biso   1.000  C
  C287     1.0000 0.89263  0.57147  0.36347  Biso   1.000  C
  N35      1.0000 0.88843  0.62707  0.39457  Biso   1.000  N
  N36      1.0000 0.80683  0.63017  0.39317  Biso   1.000  N
  C288     1.0000 0.74763  0.57827  0.36067  Biso   1.000  C
  C289     1.0000 0.02583  0.53447  0.07317  Biso   1.000  C
  C290     1.0000 0.01133  0.53157  0.10997  Biso   1.000  C
  H145     1.0000 0.94703  0.49427  0.12787  Biso   1.000  H
  C291     1.0000 0.90963  0.43517  0.96767  Biso   1.000  C
  H146     1.0000 0.83483  0.40217  0.02537  Biso   1.000  H
  C292     1.0000 0.86483  0.40887  0.97757  Biso   1.000  C
  C293     1.0000 0.93253  0.59807  0.37637  Biso   1.000  C
  H147     1.0000 0.88333  0.54497  0.35137  Biso   1.000  H
  C294     1.0000 0.92993  0.63277  0.39877  Biso   1.000  C
  C295     1.0000 0.76913  0.63267  0.39627  Biso   1.000  C
  C296     1.0000 0.73313  0.60237  0.37597  Biso   1.000  C
  H148     1.0000 0.73063  0.55487  0.34537  Biso   1.000  H
  C297     1.0000 0.07153  0.56077  0.06377  Biso   1.000  C
  H149     1.0000 0.02873  0.54627  0.12957  Biso   1.000  H
  H150     1.0000 0.84163  0.39027  0.96267  Biso   1.000  H
  H151     1.0000 0.95783  0.59587  0.37247  Biso   1.000  H
  H152     1.0000 0.70523  0.59977  0.37377  Biso   1.000  H
  H153     1.0000 0.09073  0.57737  0.08187  Biso   1.000  H
  Zn10     1.0000 0.63558  0.27186  0.97162  Biso   1.000  Zn
  O37      1.0000 0.67530  0.26100  0.00202  Biso   1.000  O
  O38      1.0000 0.74040  0.32490  0.00071  Biso   1.000  O
  O39      1.0000 0.62250  0.22980  0.93251  Biso   1.000  O
  C298     1.0000 0.71600  0.28650  0.00990  Biso   1.000  C
  C299     1.0000 0.63160  0.23820  0.89970  Biso   1.000  C
  O40      1.0000 0.64770  0.27610  0.88569  Biso   1.000  O
  C300     1.0000 0.73260  0.26360  0.03500  Biso   1.000  C
  C301     1.0000 0.62190  0.20180  0.87560  Biso   1.000  C
  C302     1.0000 0.77640  0.28860  0.04700  Biso   1.000  C
  C303     1.0000 0.70730  0.22080  0.04610  Biso   1.000  C
  C304     1.0000 0.60800  0.15930  0.88740  Biso   1.000  C
  C305     1.0000 0.62540  0.20720  0.84120  Biso   1.000  C
  H154     1.0000 0.79390  0.31810  0.03990  Biso   1.000  H
  C306     1.0000 0.79410  0.26920  0.07020  Biso   1.000  C
  C307     1.0000 0.72620  0.20420  0.06860  Biso   1.000  C
  H155     1.0000 0.67800  0.20340  0.03870  Biso   1.000  H
  H156     1.0000 0.60760  0.15380  0.91150  Biso   1.000  H
  C308     1.0000 0.59450  0.12460  0.86380  Biso   1.000  C
  C309     1.0000 0.61380  0.17200  0.81790  Biso   1.000  C
  H157     1.0000 0.63610  0.23560  0.83200  Biso   1.000  H
  H158     1.0000 0.82350  0.28580  0.07770  Biso   1.000  H
  C310     1.0000 0.76880  0.22710  0.08120  Biso   1.000  C
  H159     1.0000 0.70860  0.17490  0.07600  Biso   1.000  H
  H160     1.0000 0.58270  0.09600  0.87280  Biso   1.000  H
  C311     1.0000 0.59720  0.12930  0.82970  Biso   1.000  C
  H161     1.0000 0.61730  0.17760  0.79380  Biso   1.000  H
  C312     1.0000 0.78900  0.20980  0.10740  Biso   1.000  C
  C313     1.0000 0.57980  0.09080  0.80680  Biso   1.000  C
  C314     1.0000 0.80200  0.18050  0.09470  Biso   1.000  C
  C315     1.0000 0.79320  0.22310  0.14180  Biso   1.000  C
  C316     1.0000 0.60560  0.07420  0.79430  Biso   1.000  C
  C317     1.0000 0.53590  0.07410  0.79590  Biso   1.000  C
  N37      1.0000 0.81980  0.15950  0.11520  Biso   1.000  N
  C318     1.0000 0.79750  0.16420  0.05770  Biso   1.000  C
  N38      1.0000 0.81040  0.21050  0.16780  Biso   1.000  N
  C319     1.0000 0.77950  0.25180  0.15430  Biso   1.000  C
  C320     1.0000 0.65450  0.09520  0.80320  Biso   1.000  C
  N39      1.0000 0.59470  0.03960  0.77210  Biso   1.000  N
  N40      1.0000 0.51000  0.03650  0.77350  Biso   1.000  N
  C321     1.0000 0.50270  0.08840  0.80600  Biso   1.000  C
  C322     1.0000 0.82470  0.13220  0.09350  Biso   1.000  C
  C323     1.0000 0.81310  0.13510  0.05670  Biso   1.000  C
  H162     1.0000 0.78610  0.17240  0.03880  Biso   1.000  H
  C324     1.0000 0.80780  0.23150  0.19900  Biso   1.000  C
  H163     1.0000 0.76600  0.26450  0.14130  Biso   1.000  H
  C325     1.0000 0.78930  0.25780  0.18910  Biso   1.000  C
  C326     1.0000 0.66780  0.06860  0.79030  Biso   1.000  C
  H164     1.0000 0.67170  0.12170  0.81530  Biso   1.000  H
  C327     1.0000 0.63050  0.03390  0.76790  Biso   1.000  C
  C328     1.0000 0.46980  0.03400  0.77040  Biso   1.000  C
  C329     1.0000 0.46410  0.06430  0.79070  Biso   1.000  C
  H165     1.0000 0.50910  0.11180  0.82130  Biso   1.000  H
  C330     1.0000 0.84410  0.10590  0.10290  Biso   1.000  C
  H166     1.0000 0.81580  0.12040  0.03710  Biso   1.000  H
  H167     1.0000 0.78470  0.27640  0.20400  Biso   1.000  H
  H168     1.0000 0.69530  0.07080  0.79420  Biso   1.000  H
  H169     1.0000 0.43880  0.06690  0.79290  Biso   1.000  H
  H170     1.0000 0.84670  0.08930  0.08480  Biso   1.000  H
  Zn11     1.0000 0.30225  0.60519  0.30495  Biso   1.000  Zn
  O41      1.0000 0.34197  0.59433  0.33535  Biso   1.000  O
  O42      1.0000 0.40707  0.65823  0.33404  Biso   1.000  O
  O43      1.0000 0.28917  0.56313  0.26584  Biso   1.000  O
  C331     1.0000 0.38267  0.61983  0.34323  Biso   1.000  C
  C332     1.0000 0.29827  0.57153  0.23303  Biso   1.000  C
  O44      1.0000 0.31437  0.60943  0.21902  Biso   1.000  O
  C333     1.0000 0.39927  0.59693  0.36833  Biso   1.000  C
  C334     1.0000 0.28857  0.53513  0.20893  Biso   1.000  C
  C335     1.0000 0.44307  0.62193  0.38033  Biso   1.000  C
  C336     1.0000 0.37397  0.55413  0.37943  Biso   1.000  C
  C337     1.0000 0.27467  0.49263  0.22073  Biso   1.000  C
  C338     1.0000 0.29207  0.54053  0.17453  Biso   1.000  C
  H171     1.0000 0.46057  0.65143  0.37323  Biso   1.000  H
  C339     1.0000 0.46077  0.60253  0.40353  Biso   1.000  C
  C340     1.0000 0.39287  0.53753  0.40193  Biso   1.000  C
  H172     1.0000 0.34467  0.53673  0.37203  Biso   1.000  H
  H173     1.0000 0.27427  0.48713  0.24483  Biso   1.000  H
  C341     1.0000 0.26117  0.45793  0.19713  Biso   1.000  C
  C342     1.0000 0.28047  0.50533  0.15123  Biso   1.000  C
  H174     1.0000 0.30277  0.56893  0.16533  Biso   1.000  H
  H175     1.0000 0.49017  0.61913  0.41103  Biso   1.000  H
  C343     1.0000 0.43547  0.56043  0.41453  Biso   1.000  C
  H176     1.0000 0.37527  0.50823  0.40933  Biso   1.000  H
  H177     1.0000 0.24937  0.42933  0.20613  Biso   1.000  H
  C344     1.0000 0.26387  0.46263  0.16303  Biso   1.000  C
  H178     1.0000 0.28397  0.51093  0.12713  Biso   1.000  H
  C345     1.0000 0.45567  0.54313  0.44073  Biso   1.000  C
  C346     1.0000 0.24647  0.42413  0.14013  Biso   1.000  C
  C347     1.0000 0.46867  0.51383  0.42803  Biso   1.000  C
  C348     1.0000 0.45987  0.55643  0.47513  Biso   1.000  C
  C349     1.0000 0.27227  0.40753  0.12763  Biso   1.000  C
  C350     1.0000 0.20257  0.40743  0.12923  Biso   1.000  C
  N41      1.0000 0.48647  0.49283  0.44853  Biso   1.000  N
  C351     1.0000 0.46417  0.49753  0.39103  Biso   1.000  C
  N42      1.0000 0.47707  0.54383  0.50113  Biso   1.000  N
  C352     1.0000 0.44617  0.58513  0.48763  Biso   1.000  C
  C353     1.0000 0.32117  0.42853  0.13653  Biso   1.000  C
  N43      1.0000 0.26137  0.37293  0.10543  Biso   1.000  N
  N44      1.0000 0.17667  0.36983  0.10683  Biso   1.000  N
  C354     1.0000 0.16937  0.42173  0.13933  Biso   1.000  C
  C355     1.0000 0.49137  0.46553  0.42683  Biso   1.000  C
  C356     1.0000 0.47977  0.46843  0.39003  Biso   1.000  C
  H179     1.0000 0.45277  0.50573  0.37213  Biso   1.000  H
  C357     1.0000 0.47447  0.56483  0.53233  Biso   1.000  C
  H180     1.0000 0.43267  0.59783  0.47463  Biso   1.000  H
  C358     1.0000 0.45597  0.59113  0.52243  Biso   1.000  C
  C359     1.0000 0.33447  0.40193  0.12363  Biso   1.000  C
  H181     1.0000 0.33837  0.45503  0.14863  Biso   1.000  H
  C360     1.0000 0.29717  0.36723  0.10123  Biso   1.000  C
  C361     1.0000 0.13647  0.36733  0.10373  Biso   1.000  C
  C362     1.0000 0.13077  0.39763  0.12403  Biso   1.000  C
  H182     1.0000 0.17577  0.44513  0.15463  Biso   1.000  H
  C363     1.0000 0.51077  0.43923  0.43623  Biso   1.000  C
  H183     1.0000 0.48247  0.45373  0.37043  Biso   1.000  H
  H184     1.0000 0.45137  0.60973  0.53733  Biso   1.000  H
  H185     1.0000 0.36197  0.40413  0.12753  Biso   1.000  H
  H186     1.0000 0.10547  0.40023  0.12623  Biso   1.000  H
  H187     1.0000 0.51337  0.42263  0.41813  Biso   1.000  H
  Zn12     1.0000 0.96891  0.93853  0.63829  Biso   1.000  Zn
  O45      1.0000 0.00863  0.92767  0.66869  Biso   1.000  O
  O46      1.0000 0.07373  0.99157  0.66738  Biso   1.000  O
  O47      1.0000 0.95583  0.89647  0.59918  Biso   1.000  O
  C364     1.0000 0.04933  0.95317  0.67657  Biso   1.000  C
  C365     1.0000 0.96493  0.90487  0.56637  Biso   1.000  C
  O48      1.0000 0.98103  0.94277  0.55236  Biso   1.000  O
  C366     1.0000 0.06593  0.93027  0.70167  Biso   1.000  C
  C367     1.0000 0.95523  0.86847  0.54227  Biso   1.000  C
  C368     1.0000 0.10973  0.95527  0.71367  Biso   1.000  C
  C369     1.0000 0.04063  0.88747  0.71277  Biso   1.000  C
  C370     1.0000 0.94133  0.82597  0.55407  Biso   1.000  C
  C371     1.0000 0.95873  0.87387  0.50787  Biso   1.000  C
  H188     1.0000 0.12723  0.98477  0.70657  Biso   1.000  H
  C372     1.0000 0.12743  0.93587  0.73687  Biso   1.000  C
  C373     1.0000 0.05953  0.87087  0.73527  Biso   1.000  C
  H189     1.0000 0.01133  0.87007  0.70537  Biso   1.000  H
  H190     1.0000 0.94093  0.82047  0.57817  Biso   1.000  H
  C374     1.0000 0.92783  0.79127  0.53047  Biso   1.000  C
  C375     1.0000 0.94713  0.83867  0.48457  Biso   1.000  C
  H191     1.0000 0.96943  0.90227  0.49867  Biso   1.000  H
  H192     1.0000 0.15683  0.95247  0.74437  Biso   1.000  H
  C376     1.0000 0.10213  0.89377  0.74787  Biso   1.000  C
  H193     1.0000 0.04193  0.84157  0.74267  Biso   1.000  H
  H194     1.0000 0.91603  0.76267  0.53947  Biso   1.000  H
  C377     1.0000 0.93053  0.79597  0.49637  Biso   1.000  C
  H195     1.0000 0.95063  0.84427  0.46047  Biso   1.000  H
  C378     1.0000 0.12233  0.87647  0.77407  Biso   1.000  C
  C379     1.0000 0.91313  0.75747  0.47347  Biso   1.000  C
  C380     1.0000 0.13533  0.84717  0.76137  Biso   1.000  C
  C381     1.0000 0.12653  0.88977  0.80847  Biso   1.000  C
  C382     1.0000 0.93893  0.74087  0.46097  Biso   1.000  C
  C383     1.0000 0.86923  0.74077  0.46257  Biso   1.000  C
  N45      1.0000 0.15313  0.82617  0.78187  Biso   1.000  N
  C384     1.0000 0.13083  0.83087  0.72437  Biso   1.000  C
  N46      1.0000 0.14373  0.87717  0.83447  Biso   1.000  N
  C385     1.0000 0.11283  0.91847  0.82097  Biso   1.000  C
  C386     1.0000 0.98783  0.76187  0.46987  Biso   1.000  C
  N47      1.0000 0.92803  0.70627  0.43877  Biso   1.000  N
  N48      1.0000 0.84333  0.70317  0.44017  Biso   1.000  N
  C387     1.0000 0.83603  0.75507  0.47267  Biso   1.000  C
  C388     1.0000 0.15803  0.79887  0.76017  Biso   1.000  C
  C389     1.0000 0.14643  0.80177  0.72337  Biso   1.000  C
  H196     1.0000 0.11943  0.83907  0.70547  Biso   1.000  H
  C390     1.0000 0.14113  0.89817  0.86567  Biso   1.000  C
  H197     1.0000 0.09933  0.93117  0.80797  Biso   1.000  H
  C391     1.0000 0.12263  0.92447  0.85577  Biso   1.000  C
  C392     1.0000 0.00113  0.73527  0.45697  Biso   1.000  C
  H198     1.0000 0.00503  0.78837  0.48197  Biso   1.000  H
  C393     1.0000 0.96383  0.70057  0.43457  Biso   1.000  C
  C394     1.0000 0.80313  0.70067  0.43707  Biso   1.000  C
  C395     1.0000 0.79743  0.73097  0.45737  Biso   1.000  C
  H199     1.0000 0.84243  0.77847  0.48797  Biso   1.000  H
  C396     1.0000 0.17743  0.77257  0.76957  Biso   1.000  C
  H200     1.0000 0.14913  0.78707  0.70377  Biso   1.000  H
  H201     1.0000 0.11803  0.94307  0.87067  Biso   1.000  H
  H202     1.0000 0.02863  0.73747  0.46087  Biso   1.000  H
  H203     1.0000 0.77213  0.73357  0.45957  Biso   1.000  H
  H204     1.0000 0.18003  0.75597  0.75147  Biso   1.000  H
  Zn13     1.0000 0.63628  0.36442  0.97162  Biso   1.000  Zn
  O49      1.0000 0.58570  0.32470  0.00202  Biso   1.000  O
  O50      1.0000 0.58450  0.25960  0.00071  Biso   1.000  O
  O51      1.0000 0.60730  0.37750  0.93251  Biso   1.000  O
  C397     1.0000 0.57050  0.28400  0.00990  Biso   1.000  C
  C398     1.0000 0.60660  0.36840  0.89970  Biso   1.000  C
  O52      1.0000 0.62840  0.35230  0.88569  Biso   1.000  O
  C399     1.0000 0.53100  0.26740  0.03500  Biso   1.000  C
  C400     1.0000 0.57990  0.37810  0.87560  Biso   1.000  C
  C401     1.0000 0.51220  0.22360  0.04700  Biso   1.000  C
  C402     1.0000 0.51350  0.29270  0.04610  Biso   1.000  C
  C403     1.0000 0.55130  0.39200  0.88740  Biso   1.000  C
  C404     1.0000 0.58180  0.37460  0.84120  Biso   1.000  C
  H205     1.0000 0.52420  0.20610  0.03990  Biso   1.000  H
  C405     1.0000 0.47510  0.20590  0.07020  Biso   1.000  C
  C406     1.0000 0.47800  0.27380  0.06860  Biso   1.000  C
  H206     1.0000 0.52540  0.32200  0.03870  Biso   1.000  H
  H207     1.0000 0.54620  0.39240  0.91150  Biso   1.000  H
  C407     1.0000 0.53010  0.40550  0.86380  Biso   1.000  C
  C408     1.0000 0.55820  0.38620  0.81790  Biso   1.000  C
  H208     1.0000 0.59950  0.36390  0.83200  Biso   1.000  H
  H209     1.0000 0.46230  0.17650  0.07770  Biso   1.000  H
  C409     1.0000 0.45830  0.23120  0.08120  Biso   1.000  C
  H210     1.0000 0.46630  0.29140  0.07600  Biso   1.000  H
  H211     1.0000 0.51330  0.41730  0.87280  Biso   1.000  H
  C410     1.0000 0.53210  0.40280  0.82970  Biso   1.000  C
  H212     1.0000 0.56030  0.38270  0.79380  Biso   1.000  H
  C411     1.0000 0.42080  0.21100  0.10740  Biso   1.000  C
  C412     1.0000 0.51100  0.42020  0.80680  Biso   1.000  C
  C413     1.0000 0.37850  0.19800  0.09470  Biso   1.000  C
  C414     1.0000 0.42990  0.20680  0.14180  Biso   1.000  C
  C415     1.0000 0.46860  0.39440  0.79430  Biso   1.000  C
  C416     1.0000 0.53820  0.46410  0.79590  Biso   1.000  C
  N49      1.0000 0.33970  0.18020  0.11520  Biso   1.000  N
  C417     1.0000 0.36670  0.20250  0.05770  Biso   1.000  C
  N50      1.0000 0.40010  0.18960  0.16780  Biso   1.000  N
  C418     1.0000 0.47230  0.22050  0.15430  Biso   1.000  C
  C419     1.0000 0.44070  0.34550  0.80320  Biso   1.000  C
  N51      1.0000 0.44490  0.40530  0.77210  Biso   1.000  N
  N52      1.0000 0.52650  0.49000  0.77350  Biso   1.000  N
  C420     1.0000 0.58570  0.49730  0.80600  Biso   1.000  C
  C421     1.0000 0.30750  0.17530  0.09350  Biso   1.000  C
  C422     1.0000 0.32200  0.18690  0.05670  Biso   1.000  C
  H213     1.0000 0.38630  0.21390  0.03880  Biso   1.000  H
  C423     1.0000 0.42370  0.19220  0.19900  Biso   1.000  C
  H214     1.0000 0.49850  0.23400  0.14130  Biso   1.000  H
  C424     1.0000 0.46850  0.21070  0.18910  Biso   1.000  C
  C425     1.0000 0.40080  0.33220  0.79030  Biso   1.000  C
  H215     1.0000 0.45000  0.32830  0.81530  Biso   1.000  H
  C426     1.0000 0.40340  0.36950  0.76790  Biso   1.000  C
  C427     1.0000 0.56420  0.53020  0.77040  Biso   1.000  C
  C428     1.0000 0.60020  0.53590  0.79070  Biso   1.000  C
  H216     1.0000 0.60270  0.49090  0.82130  Biso   1.000  H
  C429     1.0000 0.26180  0.15590  0.10290  Biso   1.000  C
  H217     1.0000 0.30460  0.18420  0.03710  Biso   1.000  H
  H218     1.0000 0.49170  0.21530  0.20400  Biso   1.000  H
  H219     1.0000 0.37550  0.30470  0.79420  Biso   1.000  H
  H220     1.0000 0.62810  0.56120  0.79290  Biso   1.000  H
  H221     1.0000 0.24260  0.15330  0.08480  Biso   1.000  H
  Zn14     1.0000 0.30295  0.69775  0.30495  Biso   1.000  Zn
  O53      1.0000 0.25237  0.65803  0.33535  Biso   1.000  O
  O54      1.0000 0.25117  0.59293  0.33404  Biso   1.000  O
  O55      1.0000 0.27397  0.71083  0.26584  Biso   1.000  O
  C430     1.0000 0.23717  0.61733  0.34323  Biso   1.000  C
  C431     1.0000 0.27327  0.70173  0.23303  Biso   1.000  C
  O56      1.0000 0.29507  0.68563  0.21902  Biso   1.000  O
  C432     1.0000 0.19767  0.60073  0.36833  Biso   1.000  C
  C433     1.0000 0.24657  0.71143  0.20893  Biso   1.000  C
  C434     1.0000 0.17887  0.55693  0.38033  Biso   1.000  C
  C435     1.0000 0.18017  0.62603  0.37943  Biso   1.000  C
  C436     1.0000 0.21797  0.72533  0.22073  Biso   1.000  C
  C437     1.0000 0.24847  0.70793  0.17453  Biso   1.000  C
  H222     1.0000 0.19087  0.53943  0.37323  Biso   1.000  H
  C438     1.0000 0.14177  0.53923  0.40353  Biso   1.000  C
  C439     1.0000 0.14467  0.60713  0.40193  Biso   1.000  C
  H223     1.0000 0.19207  0.65533  0.37203  Biso   1.000  H
  H224     1.0000 0.21287  0.72573  0.24483  Biso   1.000  H
  C440     1.0000 0.19677  0.73883  0.19713  Biso   1.000  C
  C441     1.0000 0.22487  0.71953  0.15123  Biso   1.000  C
  H225     1.0000 0.26617  0.69723  0.16533  Biso   1.000  H
  H226     1.0000 0.12897  0.50983  0.41103  Biso   1.000  H
  C442     1.0000 0.12497  0.56453  0.41453  Biso   1.000  C
  H227     1.0000 0.13297  0.62473  0.40933  Biso   1.000  H
  H228     1.0000 0.17997  0.75063  0.20613  Biso   1.000  H
  C443     1.0000 0.19877  0.73613  0.16303  Biso   1.000  C
  H229     1.0000 0.22697  0.71603  0.12713  Biso   1.000  H
  C444     1.0000 0.08747  0.54433  0.44073  Biso   1.000  C
  C445     1.0000 0.17767  0.75353  0.14013  Biso   1.000  C
  C446     1.0000 0.04517  0.53133  0.42803  Biso   1.000  C
  C447     1.0000 0.09657  0.54013  0.47513  Biso   1.000  C
  C448     1.0000 0.13527  0.72773  0.12763  Biso   1.000  C
  C449     1.0000 0.20487  0.79743  0.12923  Biso   1.000  C
  N53      1.0000 0.00637  0.51353  0.44853  Biso   1.000  N
  C450     1.0000 0.03337  0.53583  0.39103  Biso   1.000  C
  N54      1.0000 0.06677  0.52293  0.50113  Biso   1.000  N
  C451     1.0000 0.13897  0.55383  0.48763  Biso   1.000  C
  C452     1.0000 0.10737  0.67883  0.13653  Biso   1.000  C
  N55      1.0000 0.11157  0.73863  0.10543  Biso   1.000  N
  N56      1.0000 0.19317  0.82333  0.10683  Biso   1.000  N
  C453     1.0000 0.25237  0.83063  0.13933  Biso   1.000  C
  C454     1.0000 0.97417  0.50863  0.42683  Biso   1.000  C
  C455     1.0000 0.98867  0.52023  0.39003  Biso   1.000  C
  H230     1.0000 0.05297  0.54723  0.37213  Biso   1.000  H
  C456     1.0000 0.09037  0.52553  0.53233  Biso   1.000  C
  H231     1.0000 0.16517  0.56733  0.47463  Biso   1.000  H
  C457     1.0000 0.13517  0.54403  0.52243  Biso   1.000  C
  C458     1.0000 0.06747  0.66553  0.12363  Biso   1.000  C
  H232     1.0000 0.11667  0.66163  0.14863  Biso   1.000  H
  C459     1.0000 0.07007  0.70283  0.10123  Biso   1.000  C
  C460     1.0000 0.23087  0.86353  0.10373  Biso   1.000  C
  C461     1.0000 0.26687  0.86923  0.12403  Biso   1.000  C
  H233     1.0000 0.26937  0.82423  0.15463  Biso   1.000  H
  C462     1.0000 0.92847  0.48923  0.43623  Biso   1.000  C
  H234     1.0000 0.97127  0.51753  0.37043  Biso   1.000  H
  H235     1.0000 0.15837  0.54863  0.53733  Biso   1.000  H
  H236     1.0000 0.04217  0.63803  0.12753  Biso   1.000  H
  H237     1.0000 0.29477  0.89453  0.12623  Biso   1.000  H
  H238     1.0000 0.90927  0.48663  0.41813  Biso   1.000  H
  Zn15     1.0000 0.96961  0.03109  0.63829  Biso   1.000  Zn
  O57      1.0000 0.91903  0.99137  0.66869  Biso   1.000  O
  O58      1.0000 0.91783  0.92627  0.66738  Biso   1.000  O
  O59      1.0000 0.94063  0.04417  0.59918  Biso   1.000  O
  C463     1.0000 0.90383  0.95067  0.67657  Biso   1.000  C
  C464     1.0000 0.93993  0.03507  0.56637  Biso   1.000  C
  O60      1.0000 0.96173  0.01897  0.55236  Biso   1.000  O
  C465     1.0000 0.86433  0.93407  0.70167  Biso   1.000  C
  C466     1.0000 0.91323  0.04477  0.54227  Biso   1.000  C
  C467     1.0000 0.84553  0.89027  0.71367  Biso   1.000  C
  C468     1.0000 0.84683  0.95937  0.71277  Biso   1.000  C
  C469     1.0000 0.88463  0.05867  0.55407  Biso   1.000  C
  C470     1.0000 0.91513  0.04127  0.50787  Biso   1.000  C
  H239     1.0000 0.85753  0.87277  0.70657  Biso   1.000  H
  C471     1.0000 0.80843  0.87257  0.73687  Biso   1.000  C
  C472     1.0000 0.81133  0.94047  0.73527  Biso   1.000  C
  H240     1.0000 0.85873  0.98867  0.70537  Biso   1.000  H
  H241     1.0000 0.87953  0.05907  0.57817  Biso   1.000  H
  C473     1.0000 0.86343  0.07217  0.53047  Biso   1.000  C
  C474     1.0000 0.89153  0.05287  0.48457  Biso   1.000  C
  H242     1.0000 0.93283  0.03057  0.49867  Biso   1.000  H
  H243     1.0000 0.79563  0.84317  0.74437  Biso   1.000  H
  C475     1.0000 0.79163  0.89787  0.74787  Biso   1.000  C
  H244     1.0000 0.79963  0.95807  0.74267  Biso   1.000  H
  H245     1.0000 0.84663  0.08397  0.53947  Biso   1.000  H
  C476     1.0000 0.86543  0.06947  0.49637  Biso   1.000  C
  H246     1.0000 0.89363  0.04937  0.46047  Biso   1.000  H
  C477     1.0000 0.75413  0.87767  0.77407  Biso   1.000  C
  C478     1.0000 0.84433  0.08687  0.47347  Biso   1.000  C
  C479     1.0000 0.71183  0.86467  0.76137  Biso   1.000  C
  C480     1.0000 0.76323  0.87347  0.80847  Biso   1.000  C
  C481     1.0000 0.80193  0.06107  0.46097  Biso   1.000  C
  C482     1.0000 0.87153  0.13077  0.46257  Biso   1.000  C
  N57      1.0000 0.67303  0.84687  0.78187  Biso   1.000  N
  C483     1.0000 0.70003  0.86917  0.72437  Biso   1.000  C
  N58      1.0000 0.73343  0.85627  0.83447  Biso   1.000  N
  C484     1.0000 0.80563  0.88717  0.82097  Biso   1.000  C
  C485     1.0000 0.77403  0.01217  0.46987  Biso   1.000  C
  N59      1.0000 0.77823  0.07197  0.43877  Biso   1.000  N
  N60      1.0000 0.85983  0.15667  0.44017  Biso   1.000  N
  C486     1.0000 0.91903  0.16397  0.47267  Biso   1.000  C
  C487     1.0000 0.64083  0.84197  0.76017  Biso   1.000  C
  C488     1.0000 0.65533  0.85357  0.72337  Biso   1.000  C
  H247     1.0000 0.71963  0.88057  0.70547  Biso   1.000  H
  C489     1.0000 0.75703  0.85887  0.86567  Biso   1.000  C
  H248     1.0000 0.83183  0.90067  0.80797  Biso   1.000  H
  C490     1.0000 0.80183  0.87737  0.85577  Biso   1.000  C
  C491     1.0000 0.73413  0.99887  0.45697  Biso   1.000  C
  H249     1.0000 0.78333  0.99497  0.48197  Biso   1.000  H
  C492     1.0000 0.73673  0.03617  0.43457  Biso   1.000  C
  C493     1.0000 0.89753  0.19687  0.43707  Biso   1.000  C
  C494     1.0000 0.93353  0.20257  0.45737  Biso   1.000  C
  H250     1.0000 0.93603  0.15757  0.48797  Biso   1.000  H
  C495     1.0000 0.59513  0.82257  0.76957  Biso   1.000  C
  H251     1.0000 0.63793  0.85087  0.70377  Biso   1.000  H
  H252     1.0000 0.82503  0.88197  0.87067  Biso   1.000  H
  H253     1.0000 0.70883  0.97137  0.46087  Biso   1.000  H
  H254     1.0000 0.96143  0.22787  0.45957  Biso   1.000  H
  H255     1.0000 0.57593  0.81997  0.75147  Biso   1.000  H
  Zn16     1.0000 0.72814  0.36372  0.97162  Biso   1.000  Zn
  O61      1.0000 0.73900  0.41430  0.00202  Biso   1.000  O
  O62      1.0000 0.67510  0.41550  0.00071  Biso   1.000  O
  O63      1.0000 0.77020  0.39270  0.93251  Biso   1.000  O
  C496     1.0000 0.71350  0.42950  0.00990  Biso   1.000  C
  C497     1.0000 0.76180  0.39340  0.89970  Biso   1.000  C
  O64      1.0000 0.72390  0.37160  0.88569  Biso   1.000  O
  C498     1.0000 0.73640  0.46900  0.03500  Biso   1.000  C
  C499     1.0000 0.79820  0.42010  0.87560  Biso   1.000  C
  C500     1.0000 0.71140  0.48780  0.04700  Biso   1.000  C
  C501     1.0000 0.77920  0.48650  0.04610  Biso   1.000  C
  C502     1.0000 0.84070  0.44870  0.88740  Biso   1.000  C
  C503     1.0000 0.79280  0.41820  0.84120  Biso   1.000  C
  H256     1.0000 0.68190  0.47580  0.03990  Biso   1.000  H
  C504     1.0000 0.73080  0.52490  0.07020  Biso   1.000  C
  C505     1.0000 0.79580  0.52200  0.06860  Biso   1.000  C
  H257     1.0000 0.79660  0.47460  0.03870  Biso   1.000  H
  H258     1.0000 0.84620  0.45380  0.91150  Biso   1.000  H
  C506     1.0000 0.87540  0.46990  0.86380  Biso   1.000  C
  C507     1.0000 0.82800  0.44180  0.81790  Biso   1.000  C
  H259     1.0000 0.76440  0.40050  0.83200  Biso   1.000  H
  H260     1.0000 0.71420  0.53770  0.07770  Biso   1.000  H
  C508     1.0000 0.77290  0.54170  0.08120  Biso   1.000  C
  H261     1.0000 0.82510  0.53370  0.07600  Biso   1.000  H
  H262     1.0000 0.90400  0.48670  0.87280  Biso   1.000  H
  C509     1.0000 0.87070  0.46790  0.82970  Biso   1.000  C
  H263     1.0000 0.82240  0.43970  0.79380  Biso   1.000  H
  C510     1.0000 0.79020  0.57920  0.10740  Biso   1.000  C
  C511     1.0000 0.90920  0.48900  0.80680  Biso   1.000  C
  C512     1.0000 0.81950  0.62150  0.09470  Biso   1.000  C
  C513     1.0000 0.77690  0.57010  0.14180  Biso   1.000  C
  C514     1.0000 0.92580  0.53140  0.79430  Biso   1.000  C
  C515     1.0000 0.92590  0.46180  0.79590  Biso   1.000  C
  N61      1.0000 0.84050  0.66030  0.11520  Biso   1.000  N
  C516     1.0000 0.83580  0.63330  0.05770  Biso   1.000  C
  N62      1.0000 0.78950  0.59990  0.16780  Biso   1.000  N
  C517     1.0000 0.74820  0.52770  0.15430  Biso   1.000  C
  C518     1.0000 0.90480  0.55930  0.80320  Biso   1.000  C
  N63      1.0000 0.96040  0.55510  0.77210  Biso   1.000  N
  N64      1.0000 0.96350  0.47350  0.77350  Biso   1.000  N
  C519     1.0000 0.91160  0.41430  0.80600  Biso   1.000  C
  C520     1.0000 0.86780  0.69250  0.09350  Biso   1.000  C
  C521     1.0000 0.86490  0.67800  0.05670  Biso   1.000  C
  H264     1.0000 0.82760  0.61370  0.03880  Biso   1.000  H
  C522     1.0000 0.76850  0.57630  0.19900  Biso   1.000  C
  H265     1.0000 0.73550  0.50150  0.14130  Biso   1.000  H
  C523     1.0000 0.74220  0.53150  0.18910  Biso   1.000  C
  C524     1.0000 0.93140  0.59920  0.79030  Biso   1.000  C
  H266     1.0000 0.87830  0.55000  0.81530  Biso   1.000  H
  C525     1.0000 0.96610  0.59660  0.76790  Biso   1.000  C
  C526     1.0000 0.96600  0.43580  0.77040  Biso   1.000  C
  C527     1.0000 0.93570  0.39980  0.79070  Biso   1.000  C
  H267     1.0000 0.88820  0.39730  0.82130  Biso   1.000  H
  C528     1.0000 0.89410  0.73820  0.10290  Biso   1.000  C
  H268     1.0000 0.87960  0.69540  0.03710  Biso   1.000  H
  H269     1.0000 0.72360  0.50830  0.20400  Biso   1.000  H
  H270     1.0000 0.92920  0.62450  0.79420  Biso   1.000  H
  H271     1.0000 0.93310  0.37190  0.79290  Biso   1.000  H
  H272     1.0000 0.91070  0.75740  0.08480  Biso   1.000  H
  Zn17     1.0000 0.39481  0.69705  0.30495  Biso   1.000  Zn
  O65      1.0000 0.40567  0.74763  0.33535  Biso   1.000  O
  O66      1.0000 0.34177  0.74883  0.33404  Biso   1.000  O
  O67      1.0000 0.43687  0.72603  0.26584  Biso   1.000  O
  C529     1.0000 0.38017  0.76283  0.34323  Biso   1.000  C
  C530     1.0000 0.42847  0.72673  0.23303  Biso   1.000  C
  O68      1.0000 0.39057  0.70493  0.21902  Biso   1.000  O
  C531     1.0000 0.40307  0.80233  0.36833  Biso   1.000  C
  C532     1.0000 0.46487  0.75343  0.20893  Biso   1.000  C
  C533     1.0000 0.37807  0.82113  0.38033  Biso   1.000  C
  C534     1.0000 0.44587  0.81983  0.37943  Biso   1.000  C
  C535     1.0000 0.50737  0.78203  0.22073  Biso   1.000  C
  C536     1.0000 0.45947  0.75153  0.17453  Biso   1.000  C
  H273     1.0000 0.34857  0.80913  0.37323  Biso   1.000  H
  C537     1.0000 0.39747  0.85823  0.40353  Biso   1.000  C
  C538     1.0000 0.46247  0.85533  0.40193  Biso   1.000  C
  H274     1.0000 0.46327  0.80793  0.37203  Biso   1.000  H
  H275     1.0000 0.51287  0.78713  0.24483  Biso   1.000  H
  C539     1.0000 0.54207  0.80323  0.19713  Biso   1.000  C
  C540     1.0000 0.49467  0.77513  0.15123  Biso   1.000  C
  H276     1.0000 0.43107  0.73383  0.16533  Biso   1.000  H
  H277     1.0000 0.38087  0.87103  0.41103  Biso   1.000  H
  C541     1.0000 0.43957  0.87503  0.41453  Biso   1.000  C
  H278     1.0000 0.49177  0.86703  0.40933  Biso   1.000  H
  H279     1.0000 0.57067  0.82003  0.20613  Biso   1.000  H
  C542     1.0000 0.53737  0.80123  0.16303  Biso   1.000  C
  H280     1.0000 0.48907  0.77303  0.12713  Biso   1.000  H
  C543     1.0000 0.45687  0.91253  0.44073  Biso   1.000  C
  C544     1.0000 0.57587  0.82233  0.14013  Biso   1.000  C
  C545     1.0000 0.48617  0.95483  0.42803  Biso   1.000  C
  C546     1.0000 0.44357  0.90343  0.47513  Biso   1.000  C
  C547     1.0000 0.59247  0.86473  0.12763  Biso   1.000  C
  C548     1.0000 0.59257  0.79513  0.12923  Biso   1.000  C
  N65      1.0000 0.50717  0.99363  0.44853  Biso   1.000  N
  C549     1.0000 0.50247  0.96663  0.39103  Biso   1.000  C
  N66      1.0000 0.45617  0.93323  0.50113  Biso   1.000  N
  C550     1.0000 0.41487  0.86103  0.48763  Biso   1.000  C
  C551     1.0000 0.57147  0.89263  0.13653  Biso   1.000  C
  N67      1.0000 0.62707  0.88843  0.10543  Biso   1.000  N
  N68      1.0000 0.63017  0.80683  0.10683  Biso   1.000  N
  C552     1.0000 0.57827  0.74763  0.13933  Biso   1.000  C
  C553     1.0000 0.53447  0.02583  0.42683  Biso   1.000  C
  C554     1.0000 0.53157  0.01133  0.39003  Biso   1.000  C
  H281     1.0000 0.49427  0.94703  0.37213  Biso   1.000  H
  C555     1.0000 0.43517  0.90963  0.53233  Biso   1.000  C
  H282     1.0000 0.40217  0.83483  0.47463  Biso   1.000  H
  C556     1.0000 0.40887  0.86483  0.52243  Biso   1.000  C
  C557     1.0000 0.59807  0.93253  0.12363  Biso   1.000  C
  H283     1.0000 0.54497  0.88333  0.14863  Biso   1.000  H
  C558     1.0000 0.63277  0.92993  0.10123  Biso   1.000  C
  C559     1.0000 0.63267  0.76913  0.10373  Biso   1.000  C
  C560     1.0000 0.60237  0.73313  0.12403  Biso   1.000  C
  H284     1.0000 0.55487  0.73063  0.15463  Biso   1.000  H
  C561     1.0000 0.56077  0.07153  0.43623  Biso   1.000  C
  H285     1.0000 0.54627  0.02873  0.37043  Biso   1.000  H
  H286     1.0000 0.39027  0.84163  0.53733  Biso   1.000  H
  H287     1.0000 0.59587  0.95783  0.12753  Biso   1.000  H
  H288     1.0000 0.59977  0.70523  0.12623  Biso   1.000  H
  H289     1.0000 0.57737  0.09073  0.41813  Biso   1.000  H
  Zn18     1.0000 0.06147  0.03039  0.63829  Biso   1.000  Zn
  O69      1.0000 0.07233  0.08097  0.66869  Biso   1.000  O
  O70      1.0000 0.00843  0.08217  0.66738  Biso   1.000  O
  O71      1.0000 0.10353  0.05937  0.59918  Biso   1.000  O
  C562     1.0000 0.04683  0.09617  0.67657  Biso   1.000  C
  C563     1.0000 0.09513  0.06007  0.56637  Biso   1.000  C
  O72      1.0000 0.05723  0.03827  0.55236  Biso   1.000  O
  C564     1.0000 0.06973  0.13567  0.70167  Biso   1.000  C
  C565     1.0000 0.13153  0.08677  0.54227  Biso   1.000  C
  C566     1.0000 0.04473  0.15447  0.71367  Biso   1.000  C
  C567     1.0000 0.11253  0.15317  0.71277  Biso   1.000  C
  C568     1.0000 0.17403  0.11537  0.55407  Biso   1.000  C
  C569     1.0000 0.12613  0.08487  0.50787  Biso   1.000  C
  H290     1.0000 0.01523  0.14247  0.70657  Biso   1.000  H
  C570     1.0000 0.06413  0.19157  0.73687  Biso   1.000  C
  C571     1.0000 0.12913  0.18867  0.73527  Biso   1.000  C
  H291     1.0000 0.12993  0.14127  0.70537  Biso   1.000  H
  H292     1.0000 0.17953  0.12047  0.57817  Biso   1.000  H
  C572     1.0000 0.20873  0.13657  0.53047  Biso   1.000  C
  C573     1.0000 0.16133  0.10847  0.48457  Biso   1.000  C
  H293     1.0000 0.09773  0.06717  0.49867  Biso   1.000  H
  H294     1.0000 0.04753  0.20437  0.74437  Biso   1.000  H
  C574     1.0000 0.10623  0.20837  0.74787  Biso   1.000  C
  H295     1.0000 0.15843  0.20037  0.74267  Biso   1.000  H
  H296     1.0000 0.23733  0.15337  0.53947  Biso   1.000  H
  C575     1.0000 0.20403  0.13457  0.49637  Biso   1.000  C
  H297     1.0000 0.15573  0.10637  0.46047  Biso   1.000  H
  C576     1.0000 0.12353  0.24587  0.77407  Biso   1.000  C
  C577     1.0000 0.24253  0.15567  0.47347  Biso   1.000  C
  C578     1.0000 0.15283  0.28817  0.76137  Biso   1.000  C
  C579     1.0000 0.11023  0.23677  0.80847  Biso   1.000  C
  C580     1.0000 0.25913  0.19807  0.46097  Biso   1.000  C
  C581     1.0000 0.25923  0.12847  0.46257  Biso   1.000  C
  N69      1.0000 0.17383  0.32697  0.78187  Biso   1.000  N
  C582     1.0000 0.16913  0.29997  0.72437  Biso   1.000  C
  N70      1.0000 0.12283  0.26657  0.83447  Biso   1.000  N
  C583     1.0000 0.08153  0.19437  0.82097  Biso   1.000  C
  C584     1.0000 0.23813  0.22597  0.46987  Biso   1.000  C
  N71      1.0000 0.29373  0.22177  0.43877  Biso   1.000  N
  N72      1.0000 0.29683  0.14017  0.44017  Biso   1.000  N
  C585     1.0000 0.24493  0.08097  0.47267  Biso   1.000  C
  C586     1.0000 0.20113  0.35917  0.76017  Biso   1.000  C
  C587     1.0000 0.19823  0.34467  0.72337  Biso   1.000  C
  H298     1.0000 0.16093  0.28037  0.70547  Biso   1.000  H
  C588     1.0000 0.10183  0.24297  0.86567  Biso   1.000  C
  H299     1.0000 0.06883  0.16817  0.80797  Biso   1.000  H
  C589     1.0000 0.07553  0.19817  0.85577  Biso   1.000  C
  C590     1.0000 0.26473  0.26587  0.45697  Biso   1.000  C
  H300     1.0000 0.21163  0.21667  0.48197  Biso   1.000  H
  C591     1.0000 0.29943  0.26327  0.43457  Biso   1.000  C
  C592     1.0000 0.29933  0.10247  0.43707  Biso   1.000  C
  C593     1.0000 0.26903  0.06647  0.45737  Biso   1.000  C
  H301     1.0000 0.22153  0.06397  0.48797  Biso   1.000  H
  C594     1.0000 0.22743  0.40487  0.76957  Biso   1.000  C
  H302     1.0000 0.21293  0.36207  0.70377  Biso   1.000  H
  H303     1.0000 0.05693  0.17497  0.87067  Biso   1.000  H
  H304     1.0000 0.26253  0.29117  0.46087  Biso   1.000  H
  H305     1.0000 0.26643  0.03857  0.45957  Biso   1.000  H
  H306     1.0000 0.24403  0.42407  0.75147  Biso   1.000  H
  Zn19     1.0000 0.72814  0.36442  0.47162  Biso   1.000  Zn
  O73      1.0000 0.73900  0.32470  0.50202  Biso   1.000  O
  O74      1.0000 0.67510  0.25960  0.50071  Biso   1.000  O
  O75      1.0000 0.77020  0.37750  0.43251  Biso   1.000  O
  C595     1.0000 0.71350  0.28400  0.50990  Biso   1.000  C
  C596     1.0000 0.76180  0.36840  0.39970  Biso   1.000  C
  O76      1.0000 0.72390  0.35230  0.38569  Biso   1.000  O
  C597     1.0000 0.73640  0.26740  0.53500  Biso   1.000  C
  C598     1.0000 0.79820  0.37810  0.37560  Biso   1.000  C
  C599     1.0000 0.71140  0.22360  0.54700  Biso   1.000  C
  C600     1.0000 0.77920  0.29270  0.54610  Biso   1.000  C
  C601     1.0000 0.84070  0.39200  0.38740  Biso   1.000  C
  C602     1.0000 0.79280  0.37460  0.34120  Biso   1.000  C
  H307     1.0000 0.68190  0.20610  0.53990  Biso   1.000  H
  C603     1.0000 0.73080  0.20590  0.57020  Biso   1.000  C
  C604     1.0000 0.79580  0.27380  0.56860  Biso   1.000  C
  H308     1.0000 0.79660  0.32200  0.53870  Biso   1.000  H
  H309     1.0000 0.84620  0.39240  0.41150  Biso   1.000  H
  C605     1.0000 0.87540  0.40550  0.36380  Biso   1.000  C
  C606     1.0000 0.82800  0.38620  0.31790  Biso   1.000  C
  H310     1.0000 0.76440  0.36390  0.33200  Biso   1.000  H
  H311     1.0000 0.71420  0.17650  0.57770  Biso   1.000  H
  C607     1.0000 0.77290  0.23120  0.58120  Biso   1.000  C
  H312     1.0000 0.82510  0.29140  0.57600  Biso   1.000  H
  H313     1.0000 0.90400  0.41730  0.37280  Biso   1.000  H
  C608     1.0000 0.87070  0.40280  0.32970  Biso   1.000  C
  H314     1.0000 0.82240  0.38270  0.29380  Biso   1.000  H
  C609     1.0000 0.79020  0.21100  0.60740  Biso   1.000  C
  C610     1.0000 0.90920  0.42020  0.30680  Biso   1.000  C
  C611     1.0000 0.81950  0.19800  0.59470  Biso   1.000  C
  C612     1.0000 0.77690  0.20680  0.64180  Biso   1.000  C
  C613     1.0000 0.92580  0.39440  0.29430  Biso   1.000  C
  C614     1.0000 0.92590  0.46410  0.29590  Biso   1.000  C
  N73      1.0000 0.84050  0.18020  0.61520  Biso   1.000  N
  C615     1.0000 0.83580  0.20250  0.55770  Biso   1.000  C
  N74      1.0000 0.78950  0.18960  0.66780  Biso   1.000  N
  C616     1.0000 0.74820  0.22050  0.65430  Biso   1.000  C
  C617     1.0000 0.90480  0.34550  0.30320  Biso   1.000  C
  N75      1.0000 0.96040  0.40530  0.27210  Biso   1.000  N
  N76      1.0000 0.96350  0.49000  0.27350  Biso   1.000  N
  C618     1.0000 0.91160  0.49730  0.30600  Biso   1.000  C
  C619     1.0000 0.86780  0.17530  0.59350  Biso   1.000  C
  C620     1.0000 0.86490  0.18690  0.55670  Biso   1.000  C
  H315     1.0000 0.82760  0.21390  0.53880  Biso   1.000  H
  C621     1.0000 0.76850  0.19220  0.69900  Biso   1.000  C
  H316     1.0000 0.73550  0.23400  0.64130  Biso   1.000  H
  C622     1.0000 0.74220  0.21070  0.68910  Biso   1.000  C
  C623     1.0000 0.93140  0.33220  0.29030  Biso   1.000  C
  H317     1.0000 0.87830  0.32830  0.31530  Biso   1.000  H
  C624     1.0000 0.96610  0.36950  0.26790  Biso   1.000  C
  C625     1.0000 0.96600  0.53020  0.27040  Biso   1.000  C
  C626     1.0000 0.93570  0.53590  0.29070  Biso   1.000  C
  H318     1.0000 0.88820  0.49090  0.32130  Biso   1.000  H
  C627     1.0000 0.89410  0.15590  0.60290  Biso   1.000  C
  H319     1.0000 0.87960  0.18420  0.53710  Biso   1.000  H
  H320     1.0000 0.72360  0.21530  0.70400  Biso   1.000  H
  H321     1.0000 0.92920  0.30470  0.29420  Biso   1.000  H
  H322     1.0000 0.93310  0.56120  0.29290  Biso   1.000  H
  H323     1.0000 0.91070  0.15330  0.58480  Biso   1.000  H
  Zn20     1.0000 0.39481  0.69775  0.80495  Biso   1.000  Zn
  O77      1.0000 0.40567  0.65803  0.83535  Biso   1.000  O
  O78      1.0000 0.34177  0.59293  0.83404  Biso   1.000  O
  O79      1.0000 0.43687  0.71083  0.76584  Biso   1.000  O
  C628     1.0000 0.38017  0.61733  0.84323  Biso   1.000  C
  C629     1.0000 0.42847  0.70173  0.73303  Biso   1.000  C
  O80      1.0000 0.39057  0.68563  0.71902  Biso   1.000  O
  C630     1.0000 0.40307  0.60073  0.86833  Biso   1.000  C
  C631     1.0000 0.46487  0.71143  0.70893  Biso   1.000  C
  C632     1.0000 0.37807  0.55693  0.88033  Biso   1.000  C
  C633     1.0000 0.44587  0.62603  0.87943  Biso   1.000  C
  C634     1.0000 0.50737  0.72533  0.72073  Biso   1.000  C
  C635     1.0000 0.45947  0.70793  0.67453  Biso   1.000  C
  H324     1.0000 0.34857  0.53943  0.87323  Biso   1.000  H
  C636     1.0000 0.39747  0.53923  0.90353  Biso   1.000  C
  C637     1.0000 0.46247  0.60713  0.90193  Biso   1.000  C
  H325     1.0000 0.46327  0.65533  0.87203  Biso   1.000  H
  H326     1.0000 0.51287  0.72573  0.74483  Biso   1.000  H
  C638     1.0000 0.54207  0.73883  0.69713  Biso   1.000  C
  C639     1.0000 0.49467  0.71953  0.65123  Biso   1.000  C
  H327     1.0000 0.43107  0.69723  0.66533  Biso   1.000  H
  H328     1.0000 0.38087  0.50983  0.91103  Biso   1.000  H
  C640     1.0000 0.43957  0.56453  0.91453  Biso   1.000  C
  H329     1.0000 0.49177  0.62473  0.90933  Biso   1.000  H
  H330     1.0000 0.57067  0.75063  0.70613  Biso   1.000  H
  C641     1.0000 0.53737  0.73613  0.66303  Biso   1.000  C
  H331     1.0000 0.48907  0.71603  0.62713  Biso   1.000  H
  C642     1.0000 0.45687  0.54433  0.94073  Biso   1.000  C
  C643     1.0000 0.57587  0.75353  0.64013  Biso   1.000  C
  C644     1.0000 0.48617  0.53133  0.92803  Biso   1.000  C
  C645     1.0000 0.44357  0.54013  0.97513  Biso   1.000  C
  C646     1.0000 0.59247  0.72773  0.62763  Biso   1.000  C
  C647     1.0000 0.59257  0.79743  0.62923  Biso   1.000  C
  N77      1.0000 0.50717  0.51353  0.94853  Biso   1.000  N
  C648     1.0000 0.50247  0.53583  0.89103  Biso   1.000  C
  N78      1.0000 0.45617  0.52293  0.00113  Biso   1.000  N
  C649     1.0000 0.41487  0.55383  0.98763  Biso   1.000  C
  C650     1.0000 0.57147  0.67883  0.63653  Biso   1.000  C
  N79      1.0000 0.62707  0.73863  0.60543  Biso   1.000  N
  N80      1.0000 0.63017  0.82333  0.60683  Biso   1.000  N
  C651     1.0000 0.57827  0.83063  0.63933  Biso   1.000  C
  C652     1.0000 0.53447  0.50863  0.92683  Biso   1.000  C
  C653     1.0000 0.53157  0.52023  0.89003  Biso   1.000  C
  H332     1.0000 0.49427  0.54723  0.87213  Biso   1.000  H
  C654     1.0000 0.43517  0.52553  0.03233  Biso   1.000  C
  H333     1.0000 0.40217  0.56733  0.97463  Biso   1.000  H
  C655     1.0000 0.40887  0.54403  0.02243  Biso   1.000  C
  C656     1.0000 0.59807  0.66553  0.62363  Biso   1.000  C
  H334     1.0000 0.54497  0.66163  0.64863  Biso   1.000  H
  C657     1.0000 0.63277  0.70283  0.60123  Biso   1.000  C
  C658     1.0000 0.63267  0.86353  0.60373  Biso   1.000  C
  C659     1.0000 0.60237  0.86923  0.62403  Biso   1.000  C
  H335     1.0000 0.55487  0.82423  0.65463  Biso   1.000  H
  C660     1.0000 0.56077  0.48923  0.93623  Biso   1.000  C
  H336     1.0000 0.54627  0.51753  0.87043  Biso   1.000  H
  H337     1.0000 0.39027  0.54863  0.03733  Biso   1.000  H
  H338     1.0000 0.59587  0.63803  0.62753  Biso   1.000  H
  H339     1.0000 0.59977  0.89453  0.62623  Biso   1.000  H
  H340     1.0000 0.57737  0.48663  0.91813  Biso   1.000  H
  Zn21     1.0000 0.06147  0.03109  0.13829  Biso   1.000  Zn
  O81      1.0000 0.07233  0.99137  0.16869  Biso   1.000  O
  O82      1.0000 0.00843  0.92627  0.16738  Biso   1.000  O
  O83      1.0000 0.10353  0.04417  0.09918  Biso   1.000  O
  C661     1.0000 0.04683  0.95067  0.17657  Biso   1.000  C
  C662     1.0000 0.09513  0.03507  0.06637  Biso   1.000  C
  O84      1.0000 0.05723  0.01897  0.05236  Biso   1.000  O
  C663     1.0000 0.06973  0.93407  0.20167  Biso   1.000  C
  C664     1.0000 0.13153  0.04477  0.04227  Biso   1.000  C
  C665     1.0000 0.04473  0.89027  0.21367  Biso   1.000  C
  C666     1.0000 0.11253  0.95937  0.21277  Biso   1.000  C
  C667     1.0000 0.17403  0.05867  0.05407  Biso   1.000  C
  C668     1.0000 0.12613  0.04127  0.00787  Biso   1.000  C
  H341     1.0000 0.01523  0.87277  0.20657  Biso   1.000  H
  C669     1.0000 0.06413  0.87257  0.23687  Biso   1.000  C
  C670     1.0000 0.12913  0.94047  0.23527  Biso   1.000  C
  H342     1.0000 0.12993  0.98867  0.20537  Biso   1.000  H
  H343     1.0000 0.17953  0.05907  0.07817  Biso   1.000  H
  C671     1.0000 0.20873  0.07217  0.03047  Biso   1.000  C
  C672     1.0000 0.16133  0.05287  0.98457  Biso   1.000  C
  H344     1.0000 0.09773  0.03057  0.99867  Biso   1.000  H
  H345     1.0000 0.04753  0.84317  0.24437  Biso   1.000  H
  C673     1.0000 0.10623  0.89787  0.24787  Biso   1.000  C
  H346     1.0000 0.15843  0.95807  0.24267  Biso   1.000  H
  H347     1.0000 0.23733  0.08397  0.03947  Biso   1.000  H
  C674     1.0000 0.20403  0.06947  0.99637  Biso   1.000  C
  H348     1.0000 0.15573  0.04937  0.96047  Biso   1.000  H
  C675     1.0000 0.12353  0.87767  0.27407  Biso   1.000  C
  C676     1.0000 0.24253  0.08687  0.97347  Biso   1.000  C
  C677     1.0000 0.15283  0.86467  0.26137  Biso   1.000  C
  C678     1.0000 0.11023  0.87347  0.30847  Biso   1.000  C
  C679     1.0000 0.25913  0.06107  0.96097  Biso   1.000  C
  C680     1.0000 0.25923  0.13077  0.96257  Biso   1.000  C
  N81      1.0000 0.17383  0.84687  0.28187  Biso   1.000  N
  C681     1.0000 0.16913  0.86917  0.22437  Biso   1.000  C
  N82      1.0000 0.12283  0.85627  0.33447  Biso   1.000  N
  C682     1.0000 0.08153  0.88717  0.32097  Biso   1.000  C
  C683     1.0000 0.23813  0.01217  0.96987  Biso   1.000  C
  N83      1.0000 0.29373  0.07197  0.93877  Biso   1.000  N
  N84      1.0000 0.29683  0.15667  0.94017  Biso   1.000  N
  C684     1.0000 0.24493  0.16397  0.97267  Biso   1.000  C
  C685     1.0000 0.20113  0.84197  0.26017  Biso   1.000  C
  C686     1.0000 0.19823  0.85357  0.22337  Biso   1.000  C
  H349     1.0000 0.16093  0.88057  0.20547  Biso   1.000  H
  C687     1.0000 0.10183  0.85887  0.36567  Biso   1.000  C
  H350     1.0000 0.06883  0.90067  0.30797  Biso   1.000  H
  C688     1.0000 0.07553  0.87737  0.35577  Biso   1.000  C
  C689     1.0000 0.26473  0.99887  0.95697  Biso   1.000  C
  H351     1.0000 0.21163  0.99497  0.98197  Biso   1.000  H
  C690     1.0000 0.29943  0.03617  0.93457  Biso   1.000  C
  C691     1.0000 0.29933  0.19687  0.93707  Biso   1.000  C
  C692     1.0000 0.26903  0.20257  0.95737  Biso   1.000  C
  H352     1.0000 0.22153  0.15757  0.98797  Biso   1.000  H
  C693     1.0000 0.22743  0.82257  0.26957  Biso   1.000  C
  H353     1.0000 0.21293  0.85087  0.20377  Biso   1.000  H
  H354     1.0000 0.05693  0.88197  0.37067  Biso   1.000  H
  H355     1.0000 0.26253  0.97137  0.96087  Biso   1.000  H
  H356     1.0000 0.26643  0.22787  0.95957  Biso   1.000  H
  H357     1.0000 0.24403  0.81997  0.25147  Biso   1.000  H
  Zn22     1.0000 0.63558  0.36372  0.47162  Biso   1.000  Zn
  O85      1.0000 0.67530  0.41430  0.50202  Biso   1.000  O
  O86      1.0000 0.74040  0.41550  0.50071  Biso   1.000  O
  O87      1.0000 0.62250  0.39270  0.43251  Biso   1.000  O
  C694     1.0000 0.71600  0.42950  0.50990  Biso   1.000  C
  C695     1.0000 0.63160  0.39340  0.39970  Biso   1.000  C
  O88      1.0000 0.64770  0.37160  0.38569  Biso   1.000  O
  C696     1.0000 0.73260  0.46900  0.53500  Biso   1.000  C
  C697     1.0000 0.62190  0.42010  0.37560  Biso   1.000  C
  C698     1.0000 0.77640  0.48780  0.54700  Biso   1.000  C
  C699     1.0000 0.70730  0.48650  0.54610  Biso   1.000  C
  C700     1.0000 0.60800  0.44870  0.38740  Biso   1.000  C
  C701     1.0000 0.62540  0.41820  0.34120  Biso   1.000  C
  H358     1.0000 0.79390  0.47580  0.53990  Biso   1.000  H
  C702     1.0000 0.79410  0.52490  0.57020  Biso   1.000  C
  C703     1.0000 0.72620  0.52200  0.56860  Biso   1.000  C
  H359     1.0000 0.67800  0.47460  0.53870  Biso   1.000  H
  H360     1.0000 0.60760  0.45380  0.41150  Biso   1.000  H
  C704     1.0000 0.59450  0.46990  0.36380  Biso   1.000  C
  C705     1.0000 0.61380  0.44180  0.31790  Biso   1.000  C
  H361     1.0000 0.63610  0.40050  0.33200  Biso   1.000  H
  H362     1.0000 0.82350  0.53770  0.57770  Biso   1.000  H
  C706     1.0000 0.76880  0.54170  0.58120  Biso   1.000  C
  H363     1.0000 0.70860  0.53370  0.57600  Biso   1.000  H
  H364     1.0000 0.58270  0.48670  0.37280  Biso   1.000  H
  C707     1.0000 0.59720  0.46790  0.32970  Biso   1.000  C
  H365     1.0000 0.61730  0.43970  0.29380  Biso   1.000  H
  C708     1.0000 0.78900  0.57920  0.60740  Biso   1.000  C
  C709     1.0000 0.57980  0.48900  0.30680  Biso   1.000  C
  C710     1.0000 0.80200  0.62150  0.59470  Biso   1.000  C
  C711     1.0000 0.79320  0.57010  0.64180  Biso   1.000  C
  C712     1.0000 0.60560  0.53140  0.29430  Biso   1.000  C
  C713     1.0000 0.53590  0.46180  0.29590  Biso   1.000  C
  N85      1.0000 0.81980  0.66030  0.61520  Biso   1.000  N
  C714     1.0000 0.79750  0.63330  0.55770  Biso   1.000  C
  N86      1.0000 0.81040  0.59990  0.66780  Biso   1.000  N
  C715     1.0000 0.77950  0.52770  0.65430  Biso   1.000  C
  C716     1.0000 0.65450  0.55930  0.30320  Biso   1.000  C
  N87      1.0000 0.59470  0.55510  0.27210  Biso   1.000  N
  N88      1.0000 0.51000  0.47350  0.27350  Biso   1.000  N
  C717     1.0000 0.50270  0.41430  0.30600  Biso   1.000  C
  C718     1.0000 0.82470  0.69250  0.59350  Biso   1.000  C
  C719     1.0000 0.81310  0.67800  0.55670  Biso   1.000  C
  H366     1.0000 0.78610  0.61370  0.53880  Biso   1.000  H
  C720     1.0000 0.80780  0.57630  0.69900  Biso   1.000  C
  H367     1.0000 0.76600  0.50150  0.64130  Biso   1.000  H
  C721     1.0000 0.78930  0.53150  0.68910  Biso   1.000  C
  C722     1.0000 0.66780  0.59920  0.29030  Biso   1.000  C
  H368     1.0000 0.67170  0.55000  0.31530  Biso   1.000  H
  C723     1.0000 0.63050  0.59660  0.26790  Biso   1.000  C
  C724     1.0000 0.46980  0.43580  0.27040  Biso   1.000  C
  C725     1.0000 0.46410  0.39980  0.29070  Biso   1.000  C
  H369     1.0000 0.50910  0.39730  0.32130  Biso   1.000  H
  C726     1.0000 0.84410  0.73820  0.60290  Biso   1.000  C
  H370     1.0000 0.81580  0.69540  0.53710  Biso   1.000  H
  H371     1.0000 0.78470  0.50830  0.70400  Biso   1.000  H
  H372     1.0000 0.69530  0.62450  0.29420  Biso   1.000  H
  H373     1.0000 0.43880  0.37190  0.29290  Biso   1.000  H
  H374     1.0000 0.84670  0.75740  0.58480  Biso   1.000  H
  Zn23     1.0000 0.30225  0.69705  0.80495  Biso   1.000  Zn
  O89      1.0000 0.34197  0.74763  0.83535  Biso   1.000  O
  O90      1.0000 0.40707  0.74883  0.83404  Biso   1.000  O
  O91      1.0000 0.28917  0.72603  0.76584  Biso   1.000  O
  C727     1.0000 0.38267  0.76283  0.84323  Biso   1.000  C
  C728     1.0000 0.29827  0.72673  0.73303  Biso   1.000  C
  O92      1.0000 0.31437  0.70493  0.71902  Biso   1.000  O
  C729     1.0000 0.39927  0.80233  0.86833  Biso   1.000  C
  C730     1.0000 0.28857  0.75343  0.70893  Biso   1.000  C
  C731     1.0000 0.44307  0.82113  0.88033  Biso   1.000  C
  C732     1.0000 0.37397  0.81983  0.87943  Biso   1.000  C
  C733     1.0000 0.27467  0.78203  0.72073  Biso   1.000  C
  C734     1.0000 0.29207  0.75153  0.67453  Biso   1.000  C
  H375     1.0000 0.46057  0.80913  0.87323  Biso   1.000  H
  C735     1.0000 0.46077  0.85823  0.90353  Biso   1.000  C
  C736     1.0000 0.39287  0.85533  0.90193  Biso   1.000  C
  H376     1.0000 0.34467  0.80793  0.87203  Biso   1.000  H
  H377     1.0000 0.27427  0.78713  0.74483  Biso   1.000  H
  C737     1.0000 0.26117  0.80323  0.69713  Biso   1.000  C
  C738     1.0000 0.28047  0.77513  0.65123  Biso   1.000  C
  H378     1.0000 0.30277  0.73383  0.66533  Biso   1.000  H
  H379     1.0000 0.49017  0.87103  0.91103  Biso   1.000  H
  C739     1.0000 0.43547  0.87503  0.91453  Biso   1.000  C
  H380     1.0000 0.37527  0.86703  0.90933  Biso   1.000  H
  H381     1.0000 0.24937  0.82003  0.70613  Biso   1.000  H
  C740     1.0000 0.26387  0.80123  0.66303  Biso   1.000  C
  H382     1.0000 0.28397  0.77303  0.62713  Biso   1.000  H
  C741     1.0000 0.45567  0.91253  0.94073  Biso   1.000  C
  C742     1.0000 0.24647  0.82233  0.64013  Biso   1.000  C
  C743     1.0000 0.46867  0.95483  0.92803  Biso   1.000  C
  C744     1.0000 0.45987  0.90343  0.97513  Biso   1.000  C
  C745     1.0000 0.27227  0.86473  0.62763  Biso   1.000  C
  C746     1.0000 0.20257  0.79513  0.62923  Biso   1.000  C
  N89      1.0000 0.48647  0.99363  0.94853  Biso   1.000  N
  C747     1.0000 0.46417  0.96663  0.89103  Biso   1.000  C
  N90      1.0000 0.47707  0.93323  0.00113  Biso   1.000  N
  C748     1.0000 0.44617  0.86103  0.98763  Biso   1.000  C
  C749     1.0000 0.32117  0.89263  0.63653  Biso   1.000  C
  N91      1.0000 0.26137  0.88843  0.60543  Biso   1.000  N
  N92      1.0000 0.17667  0.80683  0.60683  Biso   1.000  N
  C750     1.0000 0.16937  0.74763  0.63933  Biso   1.000  C
  C751     1.0000 0.49137  0.02583  0.92683  Biso   1.000  C
  C752     1.0000 0.47977  0.01133  0.89003  Biso   1.000  C
  H383     1.0000 0.45277  0.94703  0.87213  Biso   1.000  H
  C753     1.0000 0.47447  0.90963  0.03233  Biso   1.000  C
  H384     1.0000 0.43267  0.83483  0.97463  Biso   1.000  H
  C754     1.0000 0.45597  0.86483  0.02243  Biso   1.000  C
  C755     1.0000 0.33447  0.93253  0.62363  Biso   1.000  C
  H385     1.0000 0.33837  0.88333  0.64863  Biso   1.000  H
  C756     1.0000 0.29717  0.92993  0.60123  Biso   1.000  C
  C757     1.0000 0.13647  0.76913  0.60373  Biso   1.000  C
  C758     1.0000 0.13077  0.73313  0.62403  Biso   1.000  C
  H386     1.0000 0.17577  0.73063  0.65463  Biso   1.000  H
  C759     1.0000 0.51077  0.07153  0.93623  Biso   1.000  C
  H387     1.0000 0.48247  0.02873  0.87043  Biso   1.000  H
  H388     1.0000 0.45137  0.84163  0.03733  Biso   1.000  H
  H389     1.0000 0.36197  0.95783  0.62753  Biso   1.000  H
  H390     1.0000 0.10547  0.70523  0.62623  Biso   1.000  H
  H391     1.0000 0.51337  0.09073  0.91813  Biso   1.000  H
  Zn24     1.0000 0.96891  0.03039  0.13829  Biso   1.000  Zn
  O93      1.0000 0.00863  0.08097  0.16869  Biso   1.000  O
  O94      1.0000 0.07373  0.08217  0.16738  Biso   1.000  O
  O95      1.0000 0.95583  0.05937  0.09918  Biso   1.000  O
  C760     1.0000 0.04933  0.09617  0.17657  Biso   1.000  C
  C761     1.0000 0.96493  0.06007  0.06637  Biso   1.000  C
  O96      1.0000 0.98103  0.03827  0.05236  Biso   1.000  O
  C762     1.0000 0.06593  0.13567  0.20167  Biso   1.000  C
  C763     1.0000 0.95523  0.08677  0.04227  Biso   1.000  C
  C764     1.0000 0.10973  0.15447  0.21367  Biso   1.000  C
  C765     1.0000 0.04063  0.15317  0.21277  Biso   1.000  C
  C766     1.0000 0.94133  0.11537  0.05407  Biso   1.000  C
  C767     1.0000 0.95873  0.08487  0.00787  Biso   1.000  C
  H392     1.0000 0.12723  0.14247  0.20657  Biso   1.000  H
  C768     1.0000 0.12743  0.19157  0.23687  Biso   1.000  C
  C769     1.0000 0.05953  0.18867  0.23527  Biso   1.000  C
  H393     1.0000 0.01133  0.14127  0.20537  Biso   1.000  H
  H394     1.0000 0.94093  0.12047  0.07817  Biso   1.000  H
  C770     1.0000 0.92783  0.13657  0.03047  Biso   1.000  C
  C771     1.0000 0.94713  0.10847  0.98457  Biso   1.000  C
  H395     1.0000 0.96943  0.06717  0.99867  Biso   1.000  H
  H396     1.0000 0.15683  0.20437  0.24437  Biso   1.000  H
  C772     1.0000 0.10213  0.20837  0.24787  Biso   1.000  C
  H397     1.0000 0.04193  0.20037  0.24267  Biso   1.000  H
  H398     1.0000 0.91603  0.15337  0.03947  Biso   1.000  H
  C773     1.0000 0.93053  0.13457  0.99637  Biso   1.000  C
  H399     1.0000 0.95063  0.10637  0.96047  Biso   1.000  H
  C774     1.0000 0.12233  0.24587  0.27407  Biso   1.000  C
  C775     1.0000 0.91313  0.15567  0.97347  Biso   1.000  C
  C776     1.0000 0.13533  0.28817  0.26137  Biso   1.000  C
  C777     1.0000 0.12653  0.23677  0.30847  Biso   1.000  C
  C778     1.0000 0.93893  0.19807  0.96097  Biso   1.000  C
  C779     1.0000 0.86923  0.12847  0.96257  Biso   1.000  C
  N93      1.0000 0.15313  0.32697  0.28187  Biso   1.000  N
  C780     1.0000 0.13083  0.29997  0.22437  Biso   1.000  C
  N94      1.0000 0.14373  0.26657  0.33447  Biso   1.000  N
  C781     1.0000 0.11283  0.19437  0.32097  Biso   1.000  C
  C782     1.0000 0.98783  0.22597  0.96987  Biso   1.000  C
  N95      1.0000 0.92803  0.22177  0.93877  Biso   1.000  N
  N96      1.0000 0.84333  0.14017  0.94017  Biso   1.000  N
  C783     1.0000 0.83603  0.08097  0.97267  Biso   1.000  C
  C784     1.0000 0.15803  0.35917  0.26017  Biso   1.000  C
  C785     1.0000 0.14643  0.34467  0.22337  Biso   1.000  C
  H400     1.0000 0.11943  0.28037  0.20547  Biso   1.000  H
  C786     1.0000 0.14113  0.24297  0.36567  Biso   1.000  C
  H401     1.0000 0.09933  0.16817  0.30797  Biso   1.000  H
  C787     1.0000 0.12263  0.19817  0.35577  Biso   1.000  C
  C788     1.0000 0.00113  0.26587  0.95697  Biso   1.000  C
  H402     1.0000 0.00503  0.21667  0.98197  Biso   1.000  H
  C789     1.0000 0.96383  0.26327  0.93457  Biso   1.000  C
  C790     1.0000 0.80313  0.10247  0.93707  Biso   1.000  C
  C791     1.0000 0.79743  0.06647  0.95737  Biso   1.000  C
  H403     1.0000 0.84243  0.06397  0.98797  Biso   1.000  H
  C792     1.0000 0.17743  0.40487  0.26957  Biso   1.000  C
  H404     1.0000 0.14913  0.36207  0.20377  Biso   1.000  H
  H405     1.0000 0.11803  0.17497  0.37067  Biso   1.000  H
  H406     1.0000 0.02863  0.29117  0.96087  Biso   1.000  H
  H407     1.0000 0.77213  0.03857  0.95957  Biso   1.000  H
  H408     1.0000 0.18003  0.42407  0.25147  Biso   1.000  H
  Zn25     1.0000 0.63628  0.27186  0.47162  Biso   1.000  Zn
  O97      1.0000 0.58570  0.26100  0.50202  Biso   1.000  O
  O98      1.0000 0.58450  0.32490  0.50071  Biso   1.000  O
  O99      1.0000 0.60730  0.22980  0.43251  Biso   1.000  O
  C793     1.0000 0.57050  0.28650  0.50990  Biso   1.000  C
  C794     1.0000 0.60660  0.23820  0.39970  Biso   1.000  C
  O100     1.0000 0.62840  0.27610  0.38569  Biso   1.000  O
  C795     1.0000 0.53100  0.26360  0.53500  Biso   1.000  C
  C796     1.0000 0.57990  0.20180  0.37560  Biso   1.000  C
  C797     1.0000 0.51220  0.28860  0.54700  Biso   1.000  C
  C798     1.0000 0.51350  0.22080  0.54610  Biso   1.000  C
  C799     1.0000 0.55130  0.15930  0.38740  Biso   1.000  C
  C800     1.0000 0.58180  0.20720  0.34120  Biso   1.000  C
  H409     1.0000 0.52420  0.31810  0.53990  Biso   1.000  H
  C801     1.0000 0.47510  0.26920  0.57020  Biso   1.000  C
  C802     1.0000 0.47800  0.20420  0.56860  Biso   1.000  C
  H410     1.0000 0.52540  0.20340  0.53870  Biso   1.000  H
  H411     1.0000 0.54620  0.15380  0.41150  Biso   1.000  H
  C803     1.0000 0.53010  0.12460  0.36380  Biso   1.000  C
  C804     1.0000 0.55820  0.17200  0.31790  Biso   1.000  C
  H412     1.0000 0.59950  0.23560  0.33200  Biso   1.000  H
  H413     1.0000 0.46230  0.28580  0.57770  Biso   1.000  H
  C805     1.0000 0.45830  0.22710  0.58120  Biso   1.000  C
  H414     1.0000 0.46630  0.17490  0.57600  Biso   1.000  H
  H415     1.0000 0.51330  0.09600  0.37280  Biso   1.000  H
  C806     1.0000 0.53210  0.12930  0.32970  Biso   1.000  C
  H416     1.0000 0.56030  0.17760  0.29380  Biso   1.000  H
  C807     1.0000 0.42080  0.20980  0.60740  Biso   1.000  C
  C808     1.0000 0.51100  0.09080  0.30680  Biso   1.000  C
  C809     1.0000 0.37850  0.18050  0.59470  Biso   1.000  C
  C810     1.0000 0.42990  0.22310  0.64180  Biso   1.000  C
  C811     1.0000 0.46860  0.07420  0.29430  Biso   1.000  C
  C812     1.0000 0.53820  0.07410  0.29590  Biso   1.000  C
  N97      1.0000 0.33970  0.15950  0.61520  Biso   1.000  N
  C813     1.0000 0.36670  0.16420  0.55770  Biso   1.000  C
  N98      1.0000 0.40010  0.21050  0.66780  Biso   1.000  N
  C814     1.0000 0.47230  0.25180  0.65430  Biso   1.000  C
  C815     1.0000 0.44070  0.09520  0.30320  Biso   1.000  C
  N99      1.0000 0.44490  0.03960  0.27210  Biso   1.000  N
  N100     1.0000 0.52650  0.03650  0.27350  Biso   1.000  N
  C816     1.0000 0.58570  0.08840  0.30600  Biso   1.000  C
  C817     1.0000 0.30750  0.13220  0.59350  Biso   1.000  C
  C818     1.0000 0.32200  0.13510  0.55670  Biso   1.000  C
  H417     1.0000 0.38630  0.17240  0.53880  Biso   1.000  H
  C819     1.0000 0.42370  0.23150  0.69900  Biso   1.000  C
  H418     1.0000 0.49850  0.26450  0.64130  Biso   1.000  H
  C820     1.0000 0.46850  0.25780  0.68910  Biso   1.000  C
  C821     1.0000 0.40080  0.06860  0.29030  Biso   1.000  C
  H419     1.0000 0.45000  0.12170  0.31530  Biso   1.000  H
  C822     1.0000 0.40340  0.03390  0.26790  Biso   1.000  C
  C823     1.0000 0.56420  0.03400  0.27040  Biso   1.000  C
  C824     1.0000 0.60020  0.06430  0.29070  Biso   1.000  C
  H420     1.0000 0.60270  0.11180  0.32130  Biso   1.000  H
  C825     1.0000 0.26180  0.10590  0.60290  Biso   1.000  C
  H421     1.0000 0.30460  0.12040  0.53710  Biso   1.000  H
  H422     1.0000 0.49170  0.27640  0.70400  Biso   1.000  H
  H423     1.0000 0.37550  0.07080  0.29420  Biso   1.000  H
  H424     1.0000 0.62810  0.06690  0.29290  Biso   1.000  H
  H425     1.0000 0.24260  0.08930  0.58480  Biso   1.000  H
  Zn26     1.0000 0.30295  0.60519  0.80495  Biso   1.000  Zn
  O101     1.0000 0.25237  0.59433  0.83535  Biso   1.000  O
  O102     1.0000 0.25117  0.65823  0.83404  Biso   1.000  O
  O103     1.0000 0.27397  0.56313  0.76584  Biso   1.000  O
  C826     1.0000 0.23717  0.61983  0.84323  Biso   1.000  C
  C827     1.0000 0.27327  0.57153  0.73303  Biso   1.000  C
  O104     1.0000 0.29507  0.60943  0.71902  Biso   1.000  O
  C828     1.0000 0.19767  0.59693  0.86833  Biso   1.000  C
  C829     1.0000 0.24657  0.53513  0.70893  Biso   1.000  C
  C830     1.0000 0.17887  0.62193  0.88033  Biso   1.000  C
  C831     1.0000 0.18017  0.55413  0.87943  Biso   1.000  C
  C832     1.0000 0.21797  0.49263  0.72073  Biso   1.000  C
  C833     1.0000 0.24847  0.54053  0.67453  Biso   1.000  C
  H426     1.0000 0.19087  0.65143  0.87323  Biso   1.000  H
  C834     1.0000 0.14177  0.60253  0.90353  Biso   1.000  C
  C835     1.0000 0.14467  0.53753  0.90193  Biso   1.000  C
  H427     1.0000 0.19207  0.53673  0.87203  Biso   1.000  H
  H428     1.0000 0.21287  0.48713  0.74483  Biso   1.000  H
  C836     1.0000 0.19677  0.45793  0.69713  Biso   1.000  C
  C837     1.0000 0.22487  0.50533  0.65123  Biso   1.000  C
  H429     1.0000 0.26617  0.56893  0.66533  Biso   1.000  H
  H430     1.0000 0.12897  0.61913  0.91103  Biso   1.000  H
  C838     1.0000 0.12497  0.56043  0.91453  Biso   1.000  C
  H431     1.0000 0.13297  0.50823  0.90933  Biso   1.000  H
  H432     1.0000 0.17997  0.42933  0.70613  Biso   1.000  H
  C839     1.0000 0.19877  0.46263  0.66303  Biso   1.000  C
  H433     1.0000 0.22697  0.51093  0.62713  Biso   1.000  H
  C840     1.0000 0.08747  0.54313  0.94073  Biso   1.000  C
  C841     1.0000 0.17767  0.42413  0.64013  Biso   1.000  C
  C842     1.0000 0.04517  0.51383  0.92803  Biso   1.000  C
  C843     1.0000 0.09657  0.55643  0.97513  Biso   1.000  C
  C844     1.0000 0.13527  0.40753  0.62763  Biso   1.000  C
  C845     1.0000 0.20487  0.40743  0.62923  Biso   1.000  C
  N101     1.0000 0.00637  0.49283  0.94853  Biso   1.000  N
  C846     1.0000 0.03337  0.49753  0.89103  Biso   1.000  C
  N102     1.0000 0.06677  0.54383  0.00113  Biso   1.000  N
  C847     1.0000 0.13897  0.58513  0.98763  Biso   1.000  C
  C848     1.0000 0.10737  0.42853  0.63653  Biso   1.000  C
  N103     1.0000 0.11157  0.37293  0.60543  Biso   1.000  N
  N104     1.0000 0.19317  0.36983  0.60683  Biso   1.000  N
  C849     1.0000 0.25237  0.42173  0.63933  Biso   1.000  C
  C850     1.0000 0.97417  0.46553  0.92683  Biso   1.000  C
  C851     1.0000 0.98867  0.46843  0.89003  Biso   1.000  C
  H434     1.0000 0.05297  0.50573  0.87213  Biso   1.000  H
  C852     1.0000 0.09037  0.56483  0.03233  Biso   1.000  C
  H435     1.0000 0.16517  0.59783  0.97463  Biso   1.000  H
  C853     1.0000 0.13517  0.59113  0.02243  Biso   1.000  C
  C854     1.0000 0.06747  0.40193  0.62363  Biso   1.000  C
  H436     1.0000 0.11667  0.45503  0.64863  Biso   1.000  H
  C855     1.0000 0.07007  0.36723  0.60123  Biso   1.000  C
  C856     1.0000 0.23087  0.36733  0.60373  Biso   1.000  C
  C857     1.0000 0.26687  0.39763  0.62403  Biso   1.000  C
  H437     1.0000 0.26937  0.44513  0.65463  Biso   1.000  H
  C858     1.0000 0.92847  0.43923  0.93623  Biso   1.000  C
  H438     1.0000 0.97127  0.45373  0.87043  Biso   1.000  H
  H439     1.0000 0.15837  0.60973  0.03733  Biso   1.000  H
  H440     1.0000 0.04217  0.40413  0.62753  Biso   1.000  H
  H441     1.0000 0.29477  0.40023  0.62623  Biso   1.000  H
  H442     1.0000 0.90927  0.42263  0.91813  Biso   1.000  H
  Zn27     1.0000 0.96961  0.93853  0.13829  Biso   1.000  Zn
  O105     1.0000 0.91903  0.92767  0.16869  Biso   1.000  O
  O106     1.0000 0.91783  0.99157  0.16738  Biso   1.000  O
  O107     1.0000 0.94063  0.89647  0.09918  Biso   1.000  O
  C859     1.0000 0.90383  0.95317  0.17657  Biso   1.000  C
  C860     1.0000 0.93993  0.90487  0.06637  Biso   1.000  C
  O108     1.0000 0.96173  0.94277  0.05236  Biso   1.000  O
  C861     1.0000 0.86433  0.93027  0.20167  Biso   1.000  C
  C862     1.0000 0.91323  0.86847  0.04227  Biso   1.000  C
  C863     1.0000 0.84553  0.95527  0.21367  Biso   1.000  C
  C864     1.0000 0.84683  0.88747  0.21277  Biso   1.000  C
  C865     1.0000 0.88463  0.82597  0.05407  Biso   1.000  C
  C866     1.0000 0.91513  0.87387  0.00787  Biso   1.000  C
  H443     1.0000 0.85753  0.98477  0.20657  Biso   1.000  H
  C867     1.0000 0.80843  0.93587  0.23687  Biso   1.000  C
  C868     1.0000 0.81133  0.87087  0.23527  Biso   1.000  C
  H444     1.0000 0.85873  0.87007  0.20537  Biso   1.000  H
  H445     1.0000 0.87953  0.82047  0.07817  Biso   1.000  H
  C869     1.0000 0.86343  0.79127  0.03047  Biso   1.000  C
  C870     1.0000 0.89153  0.83867  0.98457  Biso   1.000  C
  H446     1.0000 0.93283  0.90227  0.99867  Biso   1.000  H
  H447     1.0000 0.79563  0.95247  0.24437  Biso   1.000  H
  C871     1.0000 0.79163  0.89377  0.24787  Biso   1.000  C
  H448     1.0000 0.79963  0.84157  0.24267  Biso   1.000  H
  H449     1.0000 0.84663  0.76267  0.03947  Biso   1.000  H
  C872     1.0000 0.86543  0.79597  0.99637  Biso   1.000  C
  H450     1.0000 0.89363  0.84427  0.96047  Biso   1.000  H
  C873     1.0000 0.75413  0.87647  0.27407  Biso   1.000  C
  C874     1.0000 0.84433  0.75747  0.97347  Biso   1.000  C
  C875     1.0000 0.71183  0.84717  0.26137  Biso   1.000  C
  C876     1.0000 0.76323  0.88977  0.30847  Biso   1.000  C
  C877     1.0000 0.80193  0.74087  0.96097  Biso   1.000  C
  C878     1.0000 0.87153  0.74077  0.96257  Biso   1.000  C
  N105     1.0000 0.67303  0.82617  0.28187  Biso   1.000  N
  C879     1.0000 0.70003  0.83087  0.22437  Biso   1.000  C
  N106     1.0000 0.73343  0.87717  0.33447  Biso   1.000  N
  C880     1.0000 0.80563  0.91847  0.32097  Biso   1.000  C
  C881     1.0000 0.77403  0.76187  0.96987  Biso   1.000  C
  N107     1.0000 0.77823  0.70627  0.93877  Biso   1.000  N
  N108     1.0000 0.85983  0.70317  0.94017  Biso   1.000  N
  C882     1.0000 0.91903  0.75507  0.97267  Biso   1.000  C
  C883     1.0000 0.64083  0.79887  0.26017  Biso   1.000  C
  C884     1.0000 0.65533  0.80177  0.22337  Biso   1.000  C
  H451     1.0000 0.71963  0.83907  0.20547  Biso   1.000  H
  C885     1.0000 0.75703  0.89817  0.36567  Biso   1.000  C
  H452     1.0000 0.83183  0.93117  0.30797  Biso   1.000  H
  C886     1.0000 0.80183  0.92447  0.35577  Biso   1.000  C
  C887     1.0000 0.73413  0.73527  0.95697  Biso   1.000  C
  H453     1.0000 0.78333  0.78837  0.98197  Biso   1.000  H
  C888     1.0000 0.73673  0.70057  0.93457  Biso   1.000  C
  C889     1.0000 0.89753  0.70067  0.93707  Biso   1.000  C
  C890     1.0000 0.93353  0.73097  0.95737  Biso   1.000  C
  H454     1.0000 0.93603  0.77847  0.98797  Biso   1.000  H
  C891     1.0000 0.59513  0.77257  0.26957  Biso   1.000  C
  H455     1.0000 0.63793  0.78707  0.20377  Biso   1.000  H
  H456     1.0000 0.82503  0.94307  0.37067  Biso   1.000  H
  H457     1.0000 0.70883  0.73747  0.96087  Biso   1.000  H
  H458     1.0000 0.96143  0.73357  0.95957  Biso   1.000  H
  H459     1.0000 0.57593  0.75597  0.25147  Biso   1.000  H
  Zn28     1.0000 0.36442  0.72814  0.02838  Biso   1.000  Zn
  O109     1.0000 0.32470  0.73900  0.99798  Biso   1.000  O
  O110     1.0000 0.25960  0.67510  0.99929  Biso   1.000  O
  O111     1.0000 0.37750  0.77020  0.06749  Biso   1.000  O
  C892     1.0000 0.28400  0.71350  0.99010  Biso   1.000  C
  C893     1.0000 0.36840  0.76180  0.10030  Biso   1.000  C
  O112     1.0000 0.35230  0.72390  0.11431  Biso   1.000  O
  C894     1.0000 0.26740  0.73640  0.96500  Biso   1.000  C
  C895     1.0000 0.37810  0.79820  0.12440  Biso   1.000  C
  C896     1.0000 0.22360  0.71140  0.95300  Biso   1.000  C
  C897     1.0000 0.29270  0.77920  0.95390  Biso   1.000  C
  C898     1.0000 0.39200  0.84070  0.11260  Biso   1.000  C
  C899     1.0000 0.37460  0.79280  0.15880  Biso   1.000  C
  H460     1.0000 0.20610  0.68190  0.96010  Biso   1.000  H
  C900     1.0000 0.20590  0.73080  0.92980  Biso   1.000  C
  C901     1.0000 0.27380  0.79580  0.93140  Biso   1.000  C
  H461     1.0000 0.32200  0.79660  0.96130  Biso   1.000  H
  H462     1.0000 0.39240  0.84620  0.08850  Biso   1.000  H
  C902     1.0000 0.40550  0.87540  0.13620  Biso   1.000  C
  C903     1.0000 0.38620  0.82800  0.18210  Biso   1.000  C
  H463     1.0000 0.36390  0.76440  0.16800  Biso   1.000  H
  H464     1.0000 0.17650  0.71420  0.92230  Biso   1.000  H
  C904     1.0000 0.23120  0.77290  0.91880  Biso   1.000  C
  H465     1.0000 0.29140  0.82510  0.92400  Biso   1.000  H
  H466     1.0000 0.41730  0.90400  0.12720  Biso   1.000  H
  C905     1.0000 0.40280  0.87070  0.17030  Biso   1.000  C
  H467     1.0000 0.38270  0.82240  0.20620  Biso   1.000  H
  C906     1.0000 0.21100  0.79020  0.89260  Biso   1.000  C
  C907     1.0000 0.42020  0.90920  0.19320  Biso   1.000  C
  C908     1.0000 0.19800  0.81950  0.90530  Biso   1.000  C
  C909     1.0000 0.20680  0.77690  0.85820  Biso   1.000  C
  C910     1.0000 0.39440  0.92580  0.20570  Biso   1.000  C
  C911     1.0000 0.46410  0.92590  0.20410  Biso   1.000  C
  N109     1.0000 0.18020  0.84050  0.88480  Biso   1.000  N
  C912     1.0000 0.20250  0.83580  0.94230  Biso   1.000  C
  N110     1.0000 0.18960  0.78950  0.83220  Biso   1.000  N
  C913     1.0000 0.22050  0.74820  0.84570  Biso   1.000  C
  C914     1.0000 0.34550  0.90480  0.19680  Biso   1.000  C
  N111     1.0000 0.40530  0.96040  0.22790  Biso   1.000  N
  N112     1.0000 0.49000  0.96350  0.22650  Biso   1.000  N
  C915     1.0000 0.49730  0.91160  0.19400  Biso   1.000  C
  C916     1.0000 0.17530  0.86780  0.90650  Biso   1.000  C
  C917     1.0000 0.18690  0.86490  0.94330  Biso   1.000  C
  H468     1.0000 0.21390  0.82760  0.96120  Biso   1.000  H
  C918     1.0000 0.19220  0.76850  0.80100  Biso   1.000  C
  H469     1.0000 0.23400  0.73550  0.85870  Biso   1.000  H
  C919     1.0000 0.21070  0.74220  0.81090  Biso   1.000  C
  C920     1.0000 0.33220  0.93140  0.20970  Biso   1.000  C
  H470     1.0000 0.32830  0.87830  0.18470  Biso   1.000  H
  C921     1.0000 0.36950  0.96610  0.23210  Biso   1.000  C
  C922     1.0000 0.53020  0.96600  0.22960  Biso   1.000  C
  C923     1.0000 0.53590  0.93570  0.20930  Biso   1.000  C
  H471     1.0000 0.49090  0.88820  0.17870  Biso   1.000  H
  C924     1.0000 0.15590  0.89410  0.89710  Biso   1.000  C
  H472     1.0000 0.18420  0.87960  0.96290  Biso   1.000  H
  H473     1.0000 0.21530  0.72360  0.79600  Biso   1.000  H
  H474     1.0000 0.30470  0.92920  0.20580  Biso   1.000  H
  H475     1.0000 0.56120  0.93310  0.20710  Biso   1.000  H
  H476     1.0000 0.15330  0.91070  0.91520  Biso   1.000  H
  Zn29     1.0000 0.03109  0.06147  0.36171  Biso   1.000  Zn
  O113     1.0000 0.99137  0.07233  0.33131  Biso   1.000  O
  O114     1.0000 0.92627  0.00843  0.33262  Biso   1.000  O
  O115     1.0000 0.04417  0.10353  0.40082  Biso   1.000  O
  C925     1.0000 0.95067  0.04683  0.32343  Biso   1.000  C
  C926     1.0000 0.03507  0.09513  0.43363  Biso   1.000  C
  O116     1.0000 0.01897  0.05723  0.44764  Biso   1.000  O
  C927     1.0000 0.93407  0.06973  0.29833  Biso   1.000  C
  C928     1.0000 0.04477  0.13153  0.45773  Biso   1.000  C
  C929     1.0000 0.89027  0.04473  0.28633  Biso   1.000  C
  C930     1.0000 0.95937  0.11253  0.28723  Biso   1.000  C
  C931     1.0000 0.05867  0.17403  0.44593  Biso   1.000  C
  C932     1.0000 0.04127  0.12613  0.49213  Biso   1.000  C
  H477     1.0000 0.87277  0.01523  0.29343  Biso   1.000  H
  C933     1.0000 0.87257  0.06413  0.26313  Biso   1.000  C
  C934     1.0000 0.94047  0.12913  0.26473  Biso   1.000  C
  H478     1.0000 0.98867  0.12993  0.29463  Biso   1.000  H
  H479     1.0000 0.05907  0.17953  0.42183  Biso   1.000  H
  C935     1.0000 0.07217  0.20873  0.46953  Biso   1.000  C
  C936     1.0000 0.05287  0.16133  0.51543  Biso   1.000  C
  H480     1.0000 0.03057  0.09773  0.50133  Biso   1.000  H
  H481     1.0000 0.84317  0.04753  0.25563  Biso   1.000  H
  C937     1.0000 0.89787  0.10623  0.25213  Biso   1.000  C
  H482     1.0000 0.95807  0.15843  0.25733  Biso   1.000  H
  H483     1.0000 0.08397  0.23733  0.46053  Biso   1.000  H
  C938     1.0000 0.06947  0.20403  0.50363  Biso   1.000  C
  H484     1.0000 0.04937  0.15573  0.53953  Biso   1.000  H
  C939     1.0000 0.87767  0.12353  0.22593  Biso   1.000  C
  C940     1.0000 0.08687  0.24253  0.52653  Biso   1.000  C
  C941     1.0000 0.86467  0.15283  0.23863  Biso   1.000  C
  C942     1.0000 0.87347  0.11023  0.19153  Biso   1.000  C
  C943     1.0000 0.06107  0.25913  0.53903  Biso   1.000  C
  C944     1.0000 0.13077  0.25923  0.53743  Biso   1.000  C
  N113     1.0000 0.84687  0.17383  0.21813  Biso   1.000  N
  C945     1.0000 0.86917  0.16913  0.27563  Biso   1.000  C
  N114     1.0000 0.85627  0.12283  0.16553  Biso   1.000  N
  C946     1.0000 0.88717  0.08153  0.17903  Biso   1.000  C
  C947     1.0000 0.01217  0.23813  0.53013  Biso   1.000  C
  N115     1.0000 0.07197  0.29373  0.56123  Biso   1.000  N
  N116     1.0000 0.15667  0.29683  0.55983  Biso   1.000  N
  C948     1.0000 0.16397  0.24493  0.52733  Biso   1.000  C
  C949     1.0000 0.84197  0.20113  0.23983  Biso   1.000  C
  C950     1.0000 0.85357  0.19823  0.27663  Biso   1.000  C
  H485     1.0000 0.88057  0.16093  0.29453  Biso   1.000  H
  C951     1.0000 0.85887  0.10183  0.13433  Biso   1.000  C
  H486     1.0000 0.90067  0.06883  0.19203  Biso   1.000  H
  C952     1.0000 0.87737  0.07553  0.14423  Biso   1.000  C
  C953     1.0000 0.99887  0.26473  0.54303  Biso   1.000  C
  H487     1.0000 0.99497  0.21163  0.51803  Biso   1.000  H
  C954     1.0000 0.03617  0.29943  0.56543  Biso   1.000  C
  C955     1.0000 0.19687  0.29933  0.56293  Biso   1.000  C
  C956     1.0000 0.20257  0.26903  0.54263  Biso   1.000  C
  H488     1.0000 0.15757  0.22153  0.51203  Biso   1.000  H
  C957     1.0000 0.82257  0.22743  0.23043  Biso   1.000  C
  H489     1.0000 0.85087  0.21293  0.29623  Biso   1.000  H
  H490     1.0000 0.88197  0.05693  0.12933  Biso   1.000  H
  H491     1.0000 0.97137  0.26253  0.53913  Biso   1.000  H
  H492     1.0000 0.22787  0.26643  0.54043  Biso   1.000  H
  H493     1.0000 0.81997  0.24403  0.24853  Biso   1.000  H
  Zn30     1.0000 0.69775  0.39481  0.69505  Biso   1.000  Zn
  O117     1.0000 0.65803  0.40567  0.66465  Biso   1.000  O
  O118     1.0000 0.59293  0.34177  0.66596  Biso   1.000  O
  O119     1.0000 0.71083  0.43687  0.73416  Biso   1.000  O
  C958     1.0000 0.61733  0.38017  0.65677  Biso   1.000  C
  C959     1.0000 0.70173  0.42847  0.76697  Biso   1.000  C
  O120     1.0000 0.68563  0.39057  0.78098  Biso   1.000  O
  C960     1.0000 0.60073  0.40307  0.63167  Biso   1.000  C
  C961     1.0000 0.71143  0.46487  0.79107  Biso   1.000  C
  C962     1.0000 0.55693  0.37807  0.61967  Biso   1.000  C
  C963     1.0000 0.62603  0.44587  0.62057  Biso   1.000  C
  C964     1.0000 0.72533  0.50737  0.77927  Biso   1.000  C
  C965     1.0000 0.70793  0.45947  0.82547  Biso   1.000  C
  H494     1.0000 0.53943  0.34857  0.62677  Biso   1.000  H
  C966     1.0000 0.53923  0.39747  0.59647  Biso   1.000  C
  C967     1.0000 0.60713  0.46247  0.59807  Biso   1.000  C
  H495     1.0000 0.65533  0.46327  0.62797  Biso   1.000  H
  H496     1.0000 0.72573  0.51287  0.75517  Biso   1.000  H
  C968     1.0000 0.73883  0.54207  0.80287  Biso   1.000  C
  C969     1.0000 0.71953  0.49467  0.84877  Biso   1.000  C
  H497     1.0000 0.69723  0.43107  0.83467  Biso   1.000  H
  H498     1.0000 0.50983  0.38087  0.58897  Biso   1.000  H
  C970     1.0000 0.56453  0.43957  0.58547  Biso   1.000  C
  H499     1.0000 0.62473  0.49177  0.59067  Biso   1.000  H
  H500     1.0000 0.75063  0.57067  0.79387  Biso   1.000  H
  C971     1.0000 0.73613  0.53737  0.83697  Biso   1.000  C
  H501     1.0000 0.71603  0.48907  0.87287  Biso   1.000  H
  C972     1.0000 0.54433  0.45687  0.55927  Biso   1.000  C
  C973     1.0000 0.75353  0.57587  0.85987  Biso   1.000  C
  C974     1.0000 0.53133  0.48617  0.57197  Biso   1.000  C
  C975     1.0000 0.54013  0.44357  0.52487  Biso   1.000  C
  C976     1.0000 0.72773  0.59247  0.87237  Biso   1.000  C
  C977     1.0000 0.79743  0.59257  0.87077  Biso   1.000  C
  N117     1.0000 0.51353  0.50717  0.55147  Biso   1.000  N
  C978     1.0000 0.53583  0.50247  0.60897  Biso   1.000  C
  N118     1.0000 0.52293  0.45617  0.49887  Biso   1.000  N
  C979     1.0000 0.55383  0.41487  0.51237  Biso   1.000  C
  C980     1.0000 0.67883  0.57147  0.86347  Biso   1.000  C
  N119     1.0000 0.73863  0.62707  0.89457  Biso   1.000  N
  N120     1.0000 0.82333  0.63017  0.89317  Biso   1.000  N
  C981     1.0000 0.83063  0.57827  0.86067  Biso   1.000  C
  C982     1.0000 0.50863  0.53447  0.57317  Biso   1.000  C
  C983     1.0000 0.52023  0.53157  0.60997  Biso   1.000  C
  H502     1.0000 0.54723  0.49427  0.62787  Biso   1.000  H
  C984     1.0000 0.52553  0.43517  0.46767  Biso   1.000  C
  H503     1.0000 0.56733  0.40217  0.52537  Biso   1.000  H
  C985     1.0000 0.54403  0.40887  0.47757  Biso   1.000  C
  C986     1.0000 0.66553  0.59807  0.87637  Biso   1.000  C
  H504     1.0000 0.66163  0.54497  0.85137  Biso   1.000  H
  C987     1.0000 0.70283  0.63277  0.89877  Biso   1.000  C
  C988     1.0000 0.86353  0.63267  0.89627  Biso   1.000  C
  C989     1.0000 0.86923  0.60237  0.87597  Biso   1.000  C
  H505     1.0000 0.82423  0.55487  0.84537  Biso   1.000  H
  C990     1.0000 0.48923  0.56077  0.56377  Biso   1.000  C
  H506     1.0000 0.51753  0.54627  0.62957  Biso   1.000  H
  H507     1.0000 0.54863  0.39027  0.46267  Biso   1.000  H
  H508     1.0000 0.63803  0.59587  0.87247  Biso   1.000  H
  H509     1.0000 0.89453  0.59977  0.87377  Biso   1.000  H
  H510     1.0000 0.48663  0.57737  0.58187  Biso   1.000  H
  Zn31     1.0000 0.36372  0.63558  0.02838  Biso   1.000  Zn
  O121     1.0000 0.41430  0.67530  0.99798  Biso   1.000  O
  O122     1.0000 0.41550  0.74040  0.99929  Biso   1.000  O
  O123     1.0000 0.39270  0.62250  0.06749  Biso   1.000  O
  C991     1.0000 0.42950  0.71600  0.99010  Biso   1.000  C
  C992     1.0000 0.39340  0.63160  0.10030  Biso   1.000  C
  O124     1.0000 0.37160  0.64770  0.11431  Biso   1.000  O
  C993     1.0000 0.46900  0.73260  0.96500  Biso   1.000  C
  C994     1.0000 0.42010  0.62190  0.12440  Biso   1.000  C
  C995     1.0000 0.48780  0.77640  0.95300  Biso   1.000  C
  C996     1.0000 0.48650  0.70730  0.95390  Biso   1.000  C
  C997     1.0000 0.44870  0.60800  0.11260  Biso   1.000  C
  C998     1.0000 0.41820  0.62540  0.15880  Biso   1.000  C
  H511     1.0000 0.47580  0.79390  0.96010  Biso   1.000  H
  C999     1.0000 0.52490  0.79410  0.92980  Biso   1.000  C
  C1000    1.0000 0.52200  0.72620  0.93140  Biso   1.000  C
  H512     1.0000 0.47460  0.67800  0.96130  Biso   1.000  H
  H513     1.0000 0.45380  0.60760  0.08850  Biso   1.000  H
  C1001    1.0000 0.46990  0.59450  0.13620  Biso   1.000  C
  C1002    1.0000 0.44180  0.61380  0.18210  Biso   1.000  C
  H514     1.0000 0.40050  0.63610  0.16800  Biso   1.000  H
  H515     1.0000 0.53770  0.82350  0.92230  Biso   1.000  H
  C1003    1.0000 0.54170  0.76880  0.91880  Biso   1.000  C
  H516     1.0000 0.53370  0.70860  0.92400  Biso   1.000  H
  H517     1.0000 0.48670  0.58270  0.12720  Biso   1.000  H
  C1004    1.0000 0.46790  0.59720  0.17030  Biso   1.000  C
  H518     1.0000 0.43970  0.61730  0.20620  Biso   1.000  H
  C1005    1.0000 0.57920  0.78900  0.89260  Biso   1.000  C
  C1006    1.0000 0.48900  0.57980  0.19320  Biso   1.000  C
  C1007    1.0000 0.62150  0.80200  0.90530  Biso   1.000  C
  C1008    1.0000 0.57010  0.79320  0.85820  Biso   1.000  C
  C1009    1.0000 0.53140  0.60560  0.20570  Biso   1.000  C
  C1010    1.0000 0.46180  0.53590  0.20410  Biso   1.000  C
  N121     1.0000 0.66030  0.81980  0.88480  Biso   1.000  N
  C1011    1.0000 0.63330  0.79750  0.94230  Biso   1.000  C
  N122     1.0000 0.59990  0.81040  0.83220  Biso   1.000  N
  C1012    1.0000 0.52770  0.77950  0.84570  Biso   1.000  C
  C1013    1.0000 0.55930  0.65450  0.19680  Biso   1.000  C
  N123     1.0000 0.55510  0.59470  0.22790  Biso   1.000  N
  N124     1.0000 0.47350  0.51000  0.22650  Biso   1.000  N
  C1014    1.0000 0.41430  0.50270  0.19400  Biso   1.000  C
  C1015    1.0000 0.69250  0.82470  0.90650  Biso   1.000  C
  C1016    1.0000 0.67800  0.81310  0.94330  Biso   1.000  C
  H519     1.0000 0.61370  0.78610  0.96120  Biso   1.000  H
  C1017    1.0000 0.57630  0.80780  0.80100  Biso   1.000  C
  H520     1.0000 0.50150  0.76600  0.85870  Biso   1.000  H
  C1018    1.0000 0.53150  0.78930  0.81090  Biso   1.000  C
  C1019    1.0000 0.59920  0.66780  0.20970  Biso   1.000  C
  H521     1.0000 0.55000  0.67170  0.18470  Biso   1.000  H
  C1020    1.0000 0.59660  0.63050  0.23210  Biso   1.000  C
  C1021    1.0000 0.43580  0.46980  0.22960  Biso   1.000  C
  C1022    1.0000 0.39980  0.46410  0.20930  Biso   1.000  C
  H522     1.0000 0.39730  0.50910  0.17870  Biso   1.000  H
  C1023    1.0000 0.73820  0.84410  0.89710  Biso   1.000  C
  H523     1.0000 0.69540  0.81580  0.96290  Biso   1.000  H
  H524     1.0000 0.50830  0.78470  0.79600  Biso   1.000  H
  H525     1.0000 0.62450  0.69530  0.20580  Biso   1.000  H
  H526     1.0000 0.37190  0.43880  0.20710  Biso   1.000  H
  H527     1.0000 0.75740  0.84670  0.91520  Biso   1.000  H
  Zn32     1.0000 0.03039  0.96891  0.36171  Biso   1.000  Zn
  O125     1.0000 0.08097  0.00863  0.33131  Biso   1.000  O
  O126     1.0000 0.08217  0.07373  0.33262  Biso   1.000  O
  O127     1.0000 0.05937  0.95583  0.40082  Biso   1.000  O
  C1024    1.0000 0.09617  0.04933  0.32343  Biso   1.000  C
  C1025    1.0000 0.06007  0.96493  0.43363  Biso   1.000  C
  O128     1.0000 0.03827  0.98103  0.44764  Biso   1.000  O
  C1026    1.0000 0.13567  0.06593  0.29833  Biso   1.000  C
  C1027    1.0000 0.08677  0.95523  0.45773  Biso   1.000  C
  C1028    1.0000 0.15447  0.10973  0.28633  Biso   1.000  C
  C1029    1.0000 0.15317  0.04063  0.28723  Biso   1.000  C
  C1030    1.0000 0.11537  0.94133  0.44593  Biso   1.000  C
  C1031    1.0000 0.08487  0.95873  0.49213  Biso   1.000  C
  H528     1.0000 0.14247  0.12723  0.29343  Biso   1.000  H
  C1032    1.0000 0.19157  0.12743  0.26313  Biso   1.000  C
  C1033    1.0000 0.18867  0.05953  0.26473  Biso   1.000  C
  H529     1.0000 0.14127  0.01133  0.29463  Biso   1.000  H
  H530     1.0000 0.12047  0.94093  0.42183  Biso   1.000  H
  C1034    1.0000 0.13657  0.92783  0.46953  Biso   1.000  C
  C1035    1.0000 0.10847  0.94713  0.51543  Biso   1.000  C
  H531     1.0000 0.06717  0.96943  0.50133  Biso   1.000  H
  H532     1.0000 0.20437  0.15683  0.25563  Biso   1.000  H
  C1036    1.0000 0.20837  0.10213  0.25213  Biso   1.000  C
  H533     1.0000 0.20037  0.04193  0.25733  Biso   1.000  H
  H534     1.0000 0.15337  0.91603  0.46053  Biso   1.000  H
  C1037    1.0000 0.13457  0.93053  0.50363  Biso   1.000  C
  H535     1.0000 0.10637  0.95063  0.53953  Biso   1.000  H
  C1038    1.0000 0.24587  0.12233  0.22593  Biso   1.000  C
  C1039    1.0000 0.15567  0.91313  0.52653  Biso   1.000  C
  C1040    1.0000 0.28817  0.13533  0.23863  Biso   1.000  C
  C1041    1.0000 0.23677  0.12653  0.19153  Biso   1.000  C
  C1042    1.0000 0.19807  0.93893  0.53903  Biso   1.000  C
  C1043    1.0000 0.12847  0.86923  0.53743  Biso   1.000  C
  N125     1.0000 0.32697  0.15313  0.21813  Biso   1.000  N
  C1044    1.0000 0.29997  0.13083  0.27563  Biso   1.000  C
  N126     1.0000 0.26657  0.14373  0.16553  Biso   1.000  N
  C1045    1.0000 0.19437  0.11283  0.17903  Biso   1.000  C
  C1046    1.0000 0.22597  0.98783  0.53013  Biso   1.000  C
  N127     1.0000 0.22177  0.92803  0.56123  Biso   1.000  N
  N128     1.0000 0.14017  0.84333  0.55983  Biso   1.000  N
  C1047    1.0000 0.08097  0.83603  0.52733  Biso   1.000  C
  C1048    1.0000 0.35917  0.15803  0.23983  Biso   1.000  C
  C1049    1.0000 0.34467  0.14643  0.27663  Biso   1.000  C
  H536     1.0000 0.28037  0.11943  0.29453  Biso   1.000  H
  C1050    1.0000 0.24297  0.14113  0.13433  Biso   1.000  C
  H537     1.0000 0.16817  0.09933  0.19203  Biso   1.000  H
  C1051    1.0000 0.19817  0.12263  0.14423  Biso   1.000  C
  C1052    1.0000 0.26587  0.00113  0.54303  Biso   1.000  C
  H538     1.0000 0.21667  0.00503  0.51803  Biso   1.000  H
  C1053    1.0000 0.26327  0.96383  0.56543  Biso   1.000  C
  C1054    1.0000 0.10247  0.80313  0.56293  Biso   1.000  C
  C1055    1.0000 0.06647  0.79743  0.54263  Biso   1.000  C
  H539     1.0000 0.06397  0.84243  0.51203  Biso   1.000  H
  C1056    1.0000 0.40487  0.17743  0.23043  Biso   1.000  C
  H540     1.0000 0.36207  0.14913  0.29623  Biso   1.000  H
  H541     1.0000 0.17497  0.11803  0.12933  Biso   1.000  H
  H542     1.0000 0.29117  0.02863  0.53913  Biso   1.000  H
  H543     1.0000 0.03857  0.77213  0.54043  Biso   1.000  H
  H544     1.0000 0.42407  0.18003  0.24853  Biso   1.000  H
  Zn33     1.0000 0.69705  0.30225  0.69505  Biso   1.000  Zn
  O129     1.0000 0.74763  0.34197  0.66465  Biso   1.000  O
  O130     1.0000 0.74883  0.40707  0.66596  Biso   1.000  O
  O131     1.0000 0.72603  0.28917  0.73416  Biso   1.000  O
  C1057    1.0000 0.76283  0.38267  0.65677  Biso   1.000  C
  C1058    1.0000 0.72673  0.29827  0.76697  Biso   1.000  C
  O132     1.0000 0.70493  0.31437  0.78098  Biso   1.000  O
  C1059    1.0000 0.80233  0.39927  0.63167  Biso   1.000  C
  C1060    1.0000 0.75343  0.28857  0.79107  Biso   1.000  C
  C1061    1.0000 0.82113  0.44307  0.61967  Biso   1.000  C
  C1062    1.0000 0.81983  0.37397  0.62057  Biso   1.000  C
  C1063    1.0000 0.78203  0.27467  0.77927  Biso   1.000  C
  C1064    1.0000 0.75153  0.29207  0.82547  Biso   1.000  C
  H545     1.0000 0.80913  0.46057  0.62677  Biso   1.000  H
  C1065    1.0000 0.85823  0.46077  0.59647  Biso   1.000  C
  C1066    1.0000 0.85533  0.39287  0.59807  Biso   1.000  C
  H546     1.0000 0.80793  0.34467  0.62797  Biso   1.000  H
  H547     1.0000 0.78713  0.27427  0.75517  Biso   1.000  H
  C1067    1.0000 0.80323  0.26117  0.80287  Biso   1.000  C
  C1068    1.0000 0.77513  0.28047  0.84877  Biso   1.000  C
  H548     1.0000 0.73383  0.30277  0.83467  Biso   1.000  H
  H549     1.0000 0.87103  0.49017  0.58897  Biso   1.000  H
  C1069    1.0000 0.87503  0.43547  0.58547  Biso   1.000  C
  H550     1.0000 0.86703  0.37527  0.59067  Biso   1.000  H
  H551     1.0000 0.82003  0.24937  0.79387  Biso   1.000  H
  C1070    1.0000 0.80123  0.26387  0.83697  Biso   1.000  C
  H552     1.0000 0.77303  0.28397  0.87287  Biso   1.000  H
  C1071    1.0000 0.91253  0.45567  0.55927  Biso   1.000  C
  C1072    1.0000 0.82233  0.24647  0.85987  Biso   1.000  C
  C1073    1.0000 0.95483  0.46867  0.57197  Biso   1.000  C
  C1074    1.0000 0.90343  0.45987  0.52487  Biso   1.000  C
  C1075    1.0000 0.86473  0.27227  0.87237  Biso   1.000  C
  C1076    1.0000 0.79513  0.20257  0.87077  Biso   1.000  C
  N129     1.0000 0.99363  0.48647  0.55147  Biso   1.000  N
  C1077    1.0000 0.96663  0.46417  0.60897  Biso   1.000  C
  N130     1.0000 0.93323  0.47707  0.49887  Biso   1.000  N
  C1078    1.0000 0.86103  0.44617  0.51237  Biso   1.000  C
  C1079    1.0000 0.89263  0.32117  0.86347  Biso   1.000  C
  N131     1.0000 0.88843  0.26137  0.89457  Biso   1.000  N
  N132     1.0000 0.80683  0.17667  0.89317  Biso   1.000  N
  C1080    1.0000 0.74763  0.16937  0.86067  Biso   1.000  C
  C1081    1.0000 0.02583  0.49137  0.57317  Biso   1.000  C
  C1082    1.0000 0.01133  0.47977  0.60997  Biso   1.000  C
  H553     1.0000 0.94703  0.45277  0.62787  Biso   1.000  H
  C1083    1.0000 0.90963  0.47447  0.46767  Biso   1.000  C
  H554     1.0000 0.83483  0.43267  0.52537  Biso   1.000  H
  C1084    1.0000 0.86483  0.45597  0.47757  Biso   1.000  C
  C1085    1.0000 0.93253  0.33447  0.87637  Biso   1.000  C
  H555     1.0000 0.88333  0.33837  0.85137  Biso   1.000  H
  C1086    1.0000 0.92993  0.29717  0.89877  Biso   1.000  C
  C1087    1.0000 0.76913  0.13647  0.89627  Biso   1.000  C
  C1088    1.0000 0.73313  0.13077  0.87597  Biso   1.000  C
  H556     1.0000 0.73063  0.17577  0.84537  Biso   1.000  H
  C1089    1.0000 0.07153  0.51077  0.56377  Biso   1.000  C
  H557     1.0000 0.02873  0.48247  0.62957  Biso   1.000  H
  H558     1.0000 0.84163  0.45137  0.46267  Biso   1.000  H
  H559     1.0000 0.95783  0.36197  0.87247  Biso   1.000  H
  H560     1.0000 0.70523  0.10547  0.87377  Biso   1.000  H
  H561     1.0000 0.09073  0.51337  0.58187  Biso   1.000  H
  Zn34     1.0000 0.27186  0.63628  0.02838  Biso   1.000  Zn
  O133     1.0000 0.26100  0.58570  0.99798  Biso   1.000  O
  O134     1.0000 0.32490  0.58450  0.99929  Biso   1.000  O
  O135     1.0000 0.22980  0.60730  0.06749  Biso   1.000  O
  C1090    1.0000 0.28650  0.57050  0.99010  Biso   1.000  C
  C1091    1.0000 0.23820  0.60660  0.10030  Biso   1.000  C
  O136     1.0000 0.27610  0.62840  0.11431  Biso   1.000  O
  C1092    1.0000 0.26360  0.53100  0.96500  Biso   1.000  C
  C1093    1.0000 0.20180  0.57990  0.12440  Biso   1.000  C
  C1094    1.0000 0.28860  0.51220  0.95300  Biso   1.000  C
  C1095    1.0000 0.22080  0.51350  0.95390  Biso   1.000  C
  C1096    1.0000 0.15930  0.55130  0.11260  Biso   1.000  C
  C1097    1.0000 0.20720  0.58180  0.15880  Biso   1.000  C
  H562     1.0000 0.31810  0.52420  0.96010  Biso   1.000  H
  C1098    1.0000 0.26920  0.47510  0.92980  Biso   1.000  C
  C1099    1.0000 0.20420  0.47800  0.93140  Biso   1.000  C
  H563     1.0000 0.20340  0.52540  0.96130  Biso   1.000  H
  H564     1.0000 0.15380  0.54620  0.08850  Biso   1.000  H
  C1100    1.0000 0.12460  0.53010  0.13620  Biso   1.000  C
  C1101    1.0000 0.17200  0.55820  0.18210  Biso   1.000  C
  H565     1.0000 0.23560  0.59950  0.16800  Biso   1.000  H
  H566     1.0000 0.28580  0.46230  0.92230  Biso   1.000  H
  C1102    1.0000 0.22710  0.45830  0.91880  Biso   1.000  C
  H567     1.0000 0.17490  0.46630  0.92400  Biso   1.000  H
  H568     1.0000 0.09600  0.51330  0.12720  Biso   1.000  H
  C1103    1.0000 0.12930  0.53210  0.17030  Biso   1.000  C
  H569     1.0000 0.17760  0.56030  0.20620  Biso   1.000  H
  C1104    1.0000 0.20980  0.42080  0.89260  Biso   1.000  C
  C1105    1.0000 0.09080  0.51100  0.19320  Biso   1.000  C
  C1106    1.0000 0.18050  0.37850  0.90530  Biso   1.000  C
  C1107    1.0000 0.22310  0.42990  0.85820  Biso   1.000  C
  C1108    1.0000 0.07420  0.46860  0.20570  Biso   1.000  C
  C1109    1.0000 0.07410  0.53820  0.20410  Biso   1.000  C
  N133     1.0000 0.15950  0.33970  0.88480  Biso   1.000  N
  C1110    1.0000 0.16420  0.36670  0.94230  Biso   1.000  C
  N134     1.0000 0.21050  0.40010  0.83220  Biso   1.000  N
  C1111    1.0000 0.25180  0.47230  0.84570  Biso   1.000  C
  C1112    1.0000 0.09520  0.44070  0.19680  Biso   1.000  C
  N135     1.0000 0.03960  0.44490  0.22790  Biso   1.000  N
  N136     1.0000 0.03650  0.52650  0.22650  Biso   1.000  N
  C1113    1.0000 0.08840  0.58570  0.19400  Biso   1.000  C
  C1114    1.0000 0.13220  0.30750  0.90650  Biso   1.000  C
  C1115    1.0000 0.13510  0.32200  0.94330  Biso   1.000  C
  H570     1.0000 0.17240  0.38630  0.96120  Biso   1.000  H
  C1116    1.0000 0.23150  0.42370  0.80100  Biso   1.000  C
  H571     1.0000 0.26450  0.49850  0.85870  Biso   1.000  H
  C1117    1.0000 0.25780  0.46850  0.81090  Biso   1.000  C
  C1118    1.0000 0.06860  0.40080  0.20970  Biso   1.000  C
  H572     1.0000 0.12170  0.45000  0.18470  Biso   1.000  H
  C1119    1.0000 0.03390  0.40340  0.23210  Biso   1.000  C
  C1120    1.0000 0.03400  0.56420  0.22960  Biso   1.000  C
  C1121    1.0000 0.06430  0.60020  0.20930  Biso   1.000  C
  H573     1.0000 0.11180  0.60270  0.17870  Biso   1.000  H
  C1122    1.0000 0.10590  0.26180  0.89710  Biso   1.000  C
  H574     1.0000 0.12040  0.30460  0.96290  Biso   1.000  H
  H575     1.0000 0.27640  0.49170  0.79600  Biso   1.000  H
  H576     1.0000 0.07080  0.37550  0.20580  Biso   1.000  H
  H577     1.0000 0.06690  0.62810  0.20710  Biso   1.000  H
  H578     1.0000 0.08930  0.24260  0.91520  Biso   1.000  H
  Zn35     1.0000 0.93853  0.96961  0.36171  Biso   1.000  Zn
  O137     1.0000 0.92767  0.91903  0.33131  Biso   1.000  O
  O138     1.0000 0.99157  0.91783  0.33262  Biso   1.000  O
  O139     1.0000 0.89647  0.94063  0.40082  Biso   1.000  O
  C1123    1.0000 0.95317  0.90383  0.32343  Biso   1.000  C
  C1124    1.0000 0.90487  0.93993  0.43363  Biso   1.000  C
  O140     1.0000 0.94277  0.96173  0.44764  Biso   1.000  O
  C1125    1.0000 0.93027  0.86433  0.29833  Biso   1.000  C
  C1126    1.0000 0.86847  0.91323  0.45773  Biso   1.000  C
  C1127    1.0000 0.95527  0.84553  0.28633  Biso   1.000  C
  C1128    1.0000 0.88747  0.84683  0.28723  Biso   1.000  C
  C1129    1.0000 0.82597  0.88463  0.44593  Biso   1.000  C
  C1130    1.0000 0.87387  0.91513  0.49213  Biso   1.000  C
  H579     1.0000 0.98477  0.85753  0.29343  Biso   1.000  H
  C1131    1.0000 0.93587  0.80843  0.26313  Biso   1.000  C
  C1132    1.0000 0.87087  0.81133  0.26473  Biso   1.000  C
  H580     1.0000 0.87007  0.85873  0.29463  Biso   1.000  H
  H581     1.0000 0.82047  0.87953  0.42183  Biso   1.000  H
  C1133    1.0000 0.79127  0.86343  0.46953  Biso   1.000  C
  C1134    1.0000 0.83867  0.89153  0.51543  Biso   1.000  C
  H582     1.0000 0.90227  0.93283  0.50133  Biso   1.000  H
  H583     1.0000 0.95247  0.79563  0.25563  Biso   1.000  H
  C1135    1.0000 0.89377  0.79163  0.25213  Biso   1.000  C
  H584     1.0000 0.84157  0.79963  0.25733  Biso   1.000  H
  H585     1.0000 0.76267  0.84663  0.46053  Biso   1.000  H
  C1136    1.0000 0.79597  0.86543  0.50363  Biso   1.000  C
  H586     1.0000 0.84427  0.89363  0.53953  Biso   1.000  H
  C1137    1.0000 0.87647  0.75413  0.22593  Biso   1.000  C
  C1138    1.0000 0.75747  0.84433  0.52653  Biso   1.000  C
  C1139    1.0000 0.84717  0.71183  0.23863  Biso   1.000  C
  C1140    1.0000 0.88977  0.76323  0.19153  Biso   1.000  C
  C1141    1.0000 0.74087  0.80193  0.53903  Biso   1.000  C
  C1142    1.0000 0.74077  0.87153  0.53743  Biso   1.000  C
  N137     1.0000 0.82617  0.67303  0.21813  Biso   1.000  N
  C1143    1.0000 0.83087  0.70003  0.27563  Biso   1.000  C
  N138     1.0000 0.87717  0.73343  0.16553  Biso   1.000  N
  C1144    1.0000 0.91847  0.80563  0.17903  Biso   1.000  C
  C1145    1.0000 0.76187  0.77403  0.53013  Biso   1.000  C
  N139     1.0000 0.70627  0.77823  0.56123  Biso   1.000  N
  N140     1.0000 0.70317  0.85983  0.55983  Biso   1.000  N
  C1146    1.0000 0.75507  0.91903  0.52733  Biso   1.000  C
  C1147    1.0000 0.79887  0.64083  0.23983  Biso   1.000  C
  C1148    1.0000 0.80177  0.65533  0.27663  Biso   1.000  C
  H587     1.0000 0.83907  0.71963  0.29453  Biso   1.000  H
  C1149    1.0000 0.89817  0.75703  0.13433  Biso   1.000  C
  H588     1.0000 0.93117  0.83183  0.19203  Biso   1.000  H
  C1150    1.0000 0.92447  0.80183  0.14423  Biso   1.000  C
  C1151    1.0000 0.73527  0.73413  0.54303  Biso   1.000  C
  H589     1.0000 0.78837  0.78333  0.51803  Biso   1.000  H
  C1152    1.0000 0.70057  0.73673  0.56543  Biso   1.000  C
  C1153    1.0000 0.70067  0.89753  0.56293  Biso   1.000  C
  C1154    1.0000 0.73097  0.93353  0.54263  Biso   1.000  C
  H590     1.0000 0.77847  0.93603  0.51203  Biso   1.000  H
  C1155    1.0000 0.77257  0.59513  0.23043  Biso   1.000  C
  H591     1.0000 0.78707  0.63793  0.29623  Biso   1.000  H
  H592     1.0000 0.94307  0.82503  0.12933  Biso   1.000  H
  H593     1.0000 0.73747  0.70883  0.53913  Biso   1.000  H
  H594     1.0000 0.73357  0.96143  0.54043  Biso   1.000  H
  H595     1.0000 0.75597  0.57593  0.24853  Biso   1.000  H
  Zn36     1.0000 0.60519  0.30295  0.69505  Biso   1.000  Zn
  O141     1.0000 0.59433  0.25237  0.66465  Biso   1.000  O
  O142     1.0000 0.65823  0.25117  0.66596  Biso   1.000  O
  O143     1.0000 0.56313  0.27397  0.73416  Biso   1.000  O
  C1156    1.0000 0.61983  0.23717  0.65677  Biso   1.000  C
  C1157    1.0000 0.57153  0.27327  0.76697  Biso   1.000  C
  O144     1.0000 0.60943  0.29507  0.78098  Biso   1.000  O
  C1158    1.0000 0.59693  0.19767  0.63167  Biso   1.000  C
  C1159    1.0000 0.53513  0.24657  0.79107  Biso   1.000  C
  C1160    1.0000 0.62193  0.17887  0.61967  Biso   1.000  C
  C1161    1.0000 0.55413  0.18017  0.62057  Biso   1.000  C
  C1162    1.0000 0.49263  0.21797  0.77927  Biso   1.000  C
  C1163    1.0000 0.54053  0.24847  0.82547  Biso   1.000  C
  H596     1.0000 0.65143  0.19087  0.62677  Biso   1.000  H
  C1164    1.0000 0.60253  0.14177  0.59647  Biso   1.000  C
  C1165    1.0000 0.53753  0.14467  0.59807  Biso   1.000  C
  H597     1.0000 0.53673  0.19207  0.62797  Biso   1.000  H
  H598     1.0000 0.48713  0.21287  0.75517  Biso   1.000  H
  C1166    1.0000 0.45793  0.19677  0.80287  Biso   1.000  C
  C1167    1.0000 0.50533  0.22487  0.84877  Biso   1.000  C
  H599     1.0000 0.56893  0.26617  0.83467  Biso   1.000  H
  H600     1.0000 0.61913  0.12897  0.58897  Biso   1.000  H
  C1168    1.0000 0.56043  0.12497  0.58547  Biso   1.000  C
  H601     1.0000 0.50823  0.13297  0.59067  Biso   1.000  H
  H602     1.0000 0.42933  0.17997  0.79387  Biso   1.000  H
  C1169    1.0000 0.46263  0.19877  0.83697  Biso   1.000  C
  H603     1.0000 0.51093  0.22697  0.87287  Biso   1.000  H
  C1170    1.0000 0.54313  0.08747  0.55927  Biso   1.000  C
  C1171    1.0000 0.42413  0.17767  0.85987  Biso   1.000  C
  C1172    1.0000 0.51383  0.04517  0.57197  Biso   1.000  C
  C1173    1.0000 0.55643  0.09657  0.52487  Biso   1.000  C
  C1174    1.0000 0.40753  0.13527  0.87237  Biso   1.000  C
  C1175    1.0000 0.40743  0.20487  0.87077  Biso   1.000  C
  N141     1.0000 0.49283  0.00637  0.55147  Biso   1.000  N
  C1176    1.0000 0.49753  0.03337  0.60897  Biso   1.000  C
  N142     1.0000 0.54383  0.06677  0.49887  Biso   1.000  N
  C1177    1.0000 0.58513  0.13897  0.51237  Biso   1.000  C
  C1178    1.0000 0.42853  0.10737  0.86347  Biso   1.000  C
  N143     1.0000 0.37293  0.11157  0.89457  Biso   1.000  N
  N144     1.0000 0.36983  0.19317  0.89317  Biso   1.000  N
  C1179    1.0000 0.42173  0.25237  0.86067  Biso   1.000  C
  C1180    1.0000 0.46553  0.97417  0.57317  Biso   1.000  C
  C1181    1.0000 0.46843  0.98867  0.60997  Biso   1.000  C
  H604     1.0000 0.50573  0.05297  0.62787  Biso   1.000  H
  C1182    1.0000 0.56483  0.09037  0.46767  Biso   1.000  C
  H605     1.0000 0.59783  0.16517  0.52537  Biso   1.000  H
  C1183    1.0000 0.59113  0.13517  0.47757  Biso   1.000  C
  C1184    1.0000 0.40193  0.06747  0.87637  Biso   1.000  C
  H606     1.0000 0.45503  0.11667  0.85137  Biso   1.000  H
  C1185    1.0000 0.36723  0.07007  0.89877  Biso   1.000  C
  C1186    1.0000 0.36733  0.23087  0.89627  Biso   1.000  C
  C1187    1.0000 0.39763  0.26687  0.87597  Biso   1.000  C
  H607     1.0000 0.44513  0.26937  0.84537  Biso   1.000  H
  C1188    1.0000 0.43923  0.92847  0.56377  Biso   1.000  C
  H608     1.0000 0.45373  0.97127  0.62957  Biso   1.000  H
  H609     1.0000 0.60973  0.15837  0.46267  Biso   1.000  H
  H610     1.0000 0.40413  0.04217  0.87247  Biso   1.000  H
  H611     1.0000 0.40023  0.29477  0.87377  Biso   1.000  H
  H612     1.0000 0.42263  0.90927  0.58187  Biso   1.000  H
  O145     1.0000 0.33333  0.66667  0.54390  Biso   1.000  O
  Zn37     1.0000 0.33333  0.66667  0.59474  Biso   1.000  Zn
  O146     1.0000 0.00000  0.00000  0.87723  Biso   1.000  O
  Zn38     1.0000 0.00000  0.00000  0.92807  Biso   1.000  Zn
  O147     1.0000 0.66667  0.33333  0.21057  Biso   1.000  O
  Zn39     1.0000 0.66667  0.33333  0.26141  Biso   1.000  Zn
  O148     1.0000 0.66667  0.33333  0.95610  Biso   1.000  O
  Zn40     1.0000 0.66667  0.33333  0.90526  Biso   1.000  Zn
  O149     1.0000 0.33333  0.66667  0.28943  Biso   1.000  O
  Zn41     1.0000 0.33333  0.66667  0.23859  Biso   1.000  Zn
  O150     1.0000 0.00000  0.00000  0.62277  Biso   1.000  O
  Zn42     1.0000 0.00000  0.00000  0.57193  Biso   1.000  Zn
  O151     1.0000 0.66667  0.33333  0.45610  Biso   1.000  O
  Zn43     1.0000 0.66667  0.33333  0.40526  Biso   1.000  Zn
  O152     1.0000 0.33333  0.66667  0.78943  Biso   1.000  O
  Zn44     1.0000 0.33333  0.66667  0.73859  Biso   1.000  Zn
  O153     1.0000 0.00000  0.00000  0.12277  Biso   1.000  O
  Zn45     1.0000 0.00000  0.00000  0.07193  Biso   1.000  Zn
  O154     1.0000 0.33333  0.66667  0.04390  Biso   1.000  O
  Zn46     1.0000 0.33333  0.66667  0.09474  Biso   1.000  Zn
  O155     1.0000 0.00000  0.00000  0.37723  Biso   1.000  O
  Zn47     1.0000 0.00000  0.00000  0.42807  Biso   1.000  Zn
  O156     1.0000 0.66667  0.33333  0.71057  Biso   1.000  O
  Zn48     1.0000 0.66667  0.33333  0.76141  Biso   1.000  Zn
  Zn49     1.0000 0.16667  0.83333  0.33333  Biso   1.000  Zn
  Zn50     1.0000 0.16667  0.33333  0.33333  Biso   1.000  Zn
  Zn51     1.0000 0.66667  0.83333  0.33333  Biso   1.000  Zn
  Zn52     1.0000 0.83333  0.16667  0.16667  Biso   1.000  Zn
  Zn53     1.0000 0.50000  0.50000  0.50000  Biso   1.000  Zn
  Zn54     1.0000 0.33333  0.16667  0.16667  Biso   1.000  Zn
  Zn55     1.0000 0.00000  0.50000  0.50000  Biso   1.000  Zn
  Zn56     1.0000 0.83333  0.66667  0.16667  Biso   1.000  Zn
  Zn57     1.0000 0.50000  0.00000  0.50000  Biso   1.000  Zn
  Zn58     1.0000 0.83333  0.16667  0.66667  Biso   1.000  Zn
  Zn59     1.0000 0.50000  0.50000  0.00000  Biso   1.000  Zn
  Zn60     1.0000 0.83333  0.66667  0.66667  Biso   1.000  Zn
  Zn61     1.0000 0.50000  0.00000  0.00000  Biso   1.000  Zn
  Zn62     1.0000 0.33333  0.16667  0.66667  Biso   1.000  Zn
  Zn63     1.0000 0.00000  0.50000  0.00000  Biso   1.000  Zn
  Zn64     1.0000 0.16667  0.83333  0.83333  Biso   1.000  Zn
  Zn65     1.0000 0.66667  0.83333  0.83333  Biso   1.000  Zn
  Zn66     1.0000 0.16667  0.33333  0.83333  Biso   1.000  Zn
  Zn67     1.0000 1.00000  0.53267  0.75000  Biso   1.000  Zn
  C1189    1.0000 0.00000  0.63140  0.75000  Biso   1.000  C
  C1190    1.0000 0.00000  0.43720  0.75000  Biso   1.000  C
  H613     1.0000 0.00000  0.65820  0.75000  Biso   1.000  H
  H614     1.0000 0.00000  0.41040  0.75000  Biso   1.000  H
  Zn68     1.0000 0.66667  0.86600  0.08333  Biso   1.000  Zn
  C1191    1.0000 0.66667  0.96473  0.08333  Biso   1.000  C
  C1192    1.0000 0.66667  0.77053  0.08333  Biso   1.000  C
  H615     1.0000 0.66667  0.99153  0.08333  Biso   1.000  H
  H616     1.0000 0.66667  0.74373  0.08333  Biso   1.000  H
  Zn69     1.0000 0.33333  0.19934  0.41667  Biso   1.000  Zn
  C1193    1.0000 0.33333  0.29807  0.41667  Biso   1.000  C
  C1194    1.0000 0.33333  0.10387  0.41667  Biso   1.000  C
  H617     1.0000 0.33333  0.32487  0.41667  Biso   1.000  H
  H618     1.0000 0.33333  0.07707  0.41667  Biso   1.000  H
  Zn70     1.0000 0.46733  0.46733  0.75000  Biso   1.000  Zn
  C1195    1.0000 0.36860  0.36860  0.75000  Biso   1.000  C
  C1196    1.0000 0.56280  0.56280  0.75000  Biso   1.000  C
  H619     1.0000 0.34180  0.34180  0.75000  Biso   1.000  H
  H620     1.0000 0.58960  0.58960  0.75000  Biso   1.000  H
  Zn71     1.0000 0.13400  0.80066  0.08333  Biso   1.000  Zn
  C1197    1.0000 0.03527  0.70193  0.08333  Biso   1.000  C
  C1198    1.0000 0.22947  0.89613  0.08333  Biso   1.000  C
  H621     1.0000 0.00847  0.67513  0.08333  Biso   1.000  H
  H622     1.0000 0.25627  0.92293  0.08333  Biso   1.000  H
  Zn72     1.0000 0.80066  0.13400  0.41667  Biso   1.000  Zn
  C1199    1.0000 0.70193  0.03527  0.41667  Biso   1.000  C
  C1200    1.0000 0.89613  0.22947  0.41667  Biso   1.000  C
  H623     1.0000 0.67513  0.00847  0.41667  Biso   1.000  H
  H624     1.0000 0.92293  0.25627  0.41667  Biso   1.000  H
  Zn73     1.0000 0.53267  0.00000  0.75000  Biso   1.000  Zn
  C1201    1.0000 0.63140  0.00000  0.75000  Biso   1.000  C
  C1202    1.0000 0.43720  0.00000  0.75000  Biso   1.000  C
  H625     1.0000 0.65820  0.00000  0.75000  Biso   1.000  H
  H626     1.0000 0.41040  0.00000  0.75000  Biso   1.000  H
  Zn74     1.0000 0.19934  0.33333  0.08333  Biso   1.000  Zn
  C1203    1.0000 0.29807  0.33333  0.08333  Biso   1.000  C
  C1204    1.0000 0.10387  0.33333  0.08333  Biso   1.000  C
  H627     1.0000 0.32487  0.33333  0.08333  Biso   1.000  H
  H628     1.0000 0.07707  0.33333  0.08333  Biso   1.000  H
  Zn75     1.0000 0.86600  0.66667  0.41667  Biso   1.000  Zn
  C1205    1.0000 0.96473  0.66667  0.41667  Biso   1.000  C
  C1206    1.0000 0.77053  0.66667  0.41667  Biso   1.000  C
  H629     1.0000 0.99153  0.66667  0.41667  Biso   1.000  H
  H630     1.0000 0.74373  0.66667  0.41667  Biso   1.000  H
  Zn76     1.0000 0.00000  0.46733  0.25000  Biso   1.000  Zn
  C1207    1.0000 0.00000  0.36860  0.25000  Biso   1.000  C
  C1208    1.0000 1.00000  0.56280  0.25000  Biso   1.000  C
  H631     1.0000 0.00000  0.34180  0.25000  Biso   1.000  H
  H632     1.0000 0.00000  0.58960  0.25000  Biso   1.000  H
  Zn77     1.0000 0.66667  0.80066  0.58333  Biso   1.000  Zn
  C1209    1.0000 0.66667  0.70193  0.58333  Biso   1.000  C
  C1210    1.0000 0.66667  0.89613  0.58333  Biso   1.000  C
  H633     1.0000 0.66667  0.67513  0.58333  Biso   1.000  H
  H634     1.0000 0.66667  0.92293  0.58333  Biso   1.000  H
  Zn78     1.0000 0.33333  0.13400  0.91667  Biso   1.000  Zn
  C1211    1.0000 0.33333  0.03527  0.91667  Biso   1.000  C
  C1212    1.0000 0.33333  0.22947  0.91667  Biso   1.000  C
  H635     1.0000 0.33333  0.00847  0.91667  Biso   1.000  H
  H636     1.0000 0.33333  0.25627  0.91667  Biso   1.000  H
  Zn79     1.0000 0.53267  0.53267  0.25000  Biso   1.000  Zn
  C1213    1.0000 0.63140  0.63140  0.25000  Biso   1.000  C
  C1214    1.0000 0.43720  0.43720  0.25000  Biso   1.000  C
  H637     1.0000 0.65820  0.65820  0.25000  Biso   1.000  H
  H638     1.0000 0.41040  0.41040  0.25000  Biso   1.000  H
  Zn80     1.0000 0.19934  0.86600  0.58333  Biso   1.000  Zn
  C1215    1.0000 0.29807  0.96473  0.58333  Biso   1.000  C
  C1216    1.0000 0.10387  0.77053  0.58333  Biso   1.000  C
  H639     1.0000 0.32487  0.99153  0.58333  Biso   1.000  H
  H640     1.0000 0.07707  0.74373  0.58333  Biso   1.000  H
  Zn81     1.0000 0.86600  0.19934  0.91667  Biso   1.000  Zn
  C1217    1.0000 0.96473  0.29807  0.91667  Biso   1.000  C
  C1218    1.0000 0.77053  0.10387  0.91667  Biso   1.000  C
  H641     1.0000 0.99153  0.32487  0.91667  Biso   1.000  H
  H642     1.0000 0.74373  0.07707  0.91667  Biso   1.000  H
  Zn82     1.0000 0.46733  0.00000  0.25000  Biso   1.000  Zn
  C1219    1.0000 0.36860  0.00000  0.25000  Biso   1.000  C
  C1220    1.0000 0.56280  0.00000  0.25000  Biso   1.000  C
  H643     1.0000 0.34180  0.00000  0.25000  Biso   1.000  H
  H644     1.0000 0.58960  0.00000  0.25000  Biso   1.000  H
  Zn83     1.0000 0.13400  0.33333  0.58333  Biso   1.000  Zn
  C1221    1.0000 0.03527  0.33333  0.58333  Biso   1.000  C
  C1222    1.0000 0.22947  0.33333  0.58333  Biso   1.000  C
  H645     1.0000 0.00847  0.33333  0.58333  Biso   1.000  H
  H646     1.0000 0.25627  0.33333  0.58333  Biso   1.000  H
  Zn84     1.0000 0.80066  0.66667  0.91667  Biso   1.000  Zn
  C1223    1.0000 0.70193  0.66667  0.91667  Biso   1.000  C
  C1224    1.0000 0.89613  0.66667  0.91667  Biso   1.000  C
  H647     1.0000 0.67513  0.66667  0.91667  Biso   1.000  H
  H648     1.0000 0.92293  0.66667  0.91667  Biso   1.000  H
