data_image0
_cell_length_a       27.581
_cell_length_b       27.581
_cell_length_c       43.468
_cell_angle_alpha    90
_cell_angle_beta     90
_cell_angle_gamma    90

_symmetry_space_group_name_H-M    "P 1"
_symmetry_int_tables_number       1

loop_
  _symmetry_equiv_pos_as_xyz
  'x, y, z'

loop_
  _atom_site_label
  _atom_site_occupancy
  _atom_site_fract_x
  _atom_site_fract_y
  _atom_site_fract_z
  _atom_site_thermal_displace_type
  _atom_site_B_iso_or_equiv
  _atom_site_type_symbol
  C1       1.0000 0.22140  0.23970  0.27654  Biso   1.000  C
  C2       1.0000 0.20020  0.25890  0.25041  Biso   1.000  C
  C3       1.0000 0.16150  0.23540  0.23670  Biso   1.000  C
  H1       1.0000 0.14690  0.24860  0.21880  Biso   1.000  H
  C4       1.0000 0.14400  0.19260  0.24910  Biso   1.000  C
  H2       1.0000 0.11750  0.17640  0.23970  Biso   1.000  H
  C5       1.0000 0.16530  0.17330  0.27520  Biso   1.000  C
  H3       1.0000 0.15330  0.14400  0.28370  Biso   1.000  H
  C6       1.0000 0.20400  0.19690  0.28900  Biso   1.000  C
  C7       1.0000 0.22730  0.16810  0.31750  Biso   1.000  C
  H4       1.0000 0.25620  0.18830  0.32290  Biso   1.000  H
  C8       1.0000 0.20460  0.15660  0.34920  Biso   1.000  C
  H5       1.0000 0.22880  0.14040  0.36220  Biso   1.000  H
  H6       1.0000 0.17660  0.13520  0.34640  Biso   1.000  H
  H7       1.0000 0.19420  0.18680  0.35900  Biso   1.000  H
  C9       1.0000 0.24990  0.12360  0.30200  Biso   1.000  C
  H8       1.0000 0.26820  0.10490  0.31730  Biso   1.000  H
  H9       1.0000 0.27180  0.13420  0.28550  Biso   1.000  H
  H10      1.0000 0.22420  0.10330  0.29330  Biso   1.000  H
  C10      1.0000 0.22100  0.30490  0.23680  Biso   1.000  C
  H11      1.0000 0.25430  0.31310  0.24430  Biso   1.000  H
  C11      1.0000 0.18400  0.34390  0.24230  Biso   1.000  C
  H12      1.0000 0.17780  0.34680  0.26440  Biso   1.000  H
  H13      1.0000 0.15380  0.33550  0.23170  Biso   1.000  H
  H14      1.0000 0.19620  0.37480  0.23440  Biso   1.000  H
  C12      1.0000 0.21750  0.29920  0.20170  Biso   1.000  C
  H15      1.0000 0.24120  0.27510  0.19470  Biso   1.000  H
  H16      1.0000 0.22420  0.33040  0.19180  Biso   1.000  H
  H17      1.0000 0.18480  0.28840  0.19620  Biso   1.000  H
  C13      1.0000 0.38570  0.49377  0.40065  Biso   1.000  C
  C14      1.0000 0.37180  0.53740  0.38898  Biso   1.000  C
  C15      1.0000 0.37240  0.57750  0.40712  Biso   1.000  C
  H18      1.0000 0.36270  0.60790  0.39900  Biso   1.000  H
  C16      1.0000 0.38690  0.57410  0.43694  Biso   1.000  C
  H19      1.0000 0.38740  0.60210  0.44960  Biso   1.000  H
  C17      1.0000 0.40090  0.53050  0.44862  Biso   1.000  C
  H20      1.0000 0.41100  0.52810  0.46940  Biso   1.000  H
  C18      1.0000 0.40030  0.49035  0.43047  Biso   1.000  C
  C19      1.0000 0.41580  0.44140  0.44270  Biso   1.000  C
  H21      1.0000 0.40830  0.41540  0.42740  Biso   1.000  H
  C20      1.0000 0.39430  0.42880  0.47410  Biso   1.000  C
  H22      1.0000 0.35890  0.42850  0.47260  Biso   1.000  H
  H23      1.0000 0.40450  0.45310  0.48920  Biso   1.000  H
  H24      1.0000 0.40590  0.39670  0.48050  Biso   1.000  H
  C21      1.0000 0.46700  0.43630  0.45420  Biso   1.000  C
  H25      1.0000 0.47230  0.40300  0.46120  Biso   1.000  H
  H26      1.0000 0.47230  0.45880  0.47130  Biso   1.000  H
  H27      1.0000 0.48970  0.44380  0.43750  Biso   1.000  H
  C22      1.0000 0.43160  0.22090  0.41250  Biso   1.000  C
  H28      1.0000 0.43240  0.19630  0.39730  Biso   1.000  H
  C23      1.0000 0.46100  0.21690  0.43770  Biso   1.000  C
  H29      1.0000 0.48360  0.19100  0.43940  Biso   1.000  H
  C24      1.0000 0.45710  0.25240  0.46139  Biso   1.000  C
  C25      1.0000 0.48900  0.24770  0.48963  Biso   1.000  C
  C26      1.0000 0.42510  0.28870  0.45782  Biso   1.000  C
  H30      1.0000 0.42130  0.31220  0.47360  Biso   1.000  H
  C27      1.0000 0.39770  0.29160  0.43120  Biso   1.000  C
  H31      1.0000 0.37550  0.31770  0.42860  Biso   1.000  H
  C28      1.0000 0.50640  0.26860  0.54157  Biso   1.000  C
  H32      1.0000 0.49700  0.28550  0.55970  Biso   1.000  H
  C29      1.0000 0.47570  0.26850  0.51670  Biso   1.000  C
  H33      1.0000 0.44470  0.28330  0.51840  Biso   1.000  H
  C30      1.0000 0.53170  0.22340  0.48880  Biso   1.000  C
  H34      1.0000 0.54140  0.20640  0.47080  Biso   1.000  H
  C31      1.0000 0.56160  0.22370  0.51506  Biso   1.000  C
  H35      1.0000 0.59200  0.20760  0.51420  Biso   1.000  H
  N1       1.0000 0.40220  0.25840  0.40904  Biso   1.000  N
  N2       1.0000 0.54860  0.24590  0.54115  Biso   1.000  N
  O1       1.0000 0.38500  0.45330  0.38200  Biso   1.000  O
  O2       1.0000 0.35572  0.36703  0.38072  Biso   1.000  O
  O3       1.0000 0.31630  0.42930  0.34766  Biso   1.000  O
  O4       1.0000 0.30470  0.43270  0.40489  Biso   1.000  O
  O5       1.0000 0.26290  0.26010  0.28883  Biso   1.000  O
  O6       1.0000 0.30130  0.28113  0.33846  Biso   1.000  O
  O7       1.0000 0.26320  0.34626  0.30674  Biso   1.000  O
  O8       1.0000 0.21050  0.28500  0.33312  Biso   1.000  O
  O9       1.0000 0.37640  0.26350  0.38316  Biso   1.000  O
  P1       1.0000 0.33592  0.41791  0.37871  Biso   1.000  P
  P2       1.0000 0.25889  0.29618  0.31924  Biso   1.000  P
  Zn1      1.0000 0.31648  0.30863  0.37807  Biso   1.000  Zn
  Zn2      1.0000 0.25624  0.40563  0.33049  Biso   1.000  Zn
  C32      1.0000 0.35650  0.54280  0.35550  Biso   1.000  C
  H36      1.0000 0.35910  0.51070  0.34500  Biso   1.000  H
  C33      1.0000 0.30310  0.55880  0.35600  Biso   1.000  C
  H37      1.0000 0.29150  0.56280  0.33480  Biso   1.000  H
  H38      1.0000 0.30020  0.58970  0.36690  Biso   1.000  H
  H39      1.0000 0.28360  0.53410  0.36640  Biso   1.000  H
  C34      1.0000 0.39310  0.57910  0.34040  Biso   1.000  C
  H40      1.0000 0.42620  0.56680  0.34300  Biso   1.000  H
  H41      1.0000 0.39030  0.61080  0.35050  Biso   1.000  H
  H42      1.0000 0.38570  0.58240  0.31850  Biso   1.000  H
  C35      1.0000 0.72140  0.73970  0.77654  Biso   1.000  C
  C36      1.0000 0.70020  0.75890  0.75041  Biso   1.000  C
  C37      1.0000 0.66150  0.73540  0.73670  Biso   1.000  C
  H43      1.0000 0.64690  0.74860  0.71880  Biso   1.000  H
  C38      1.0000 0.64400  0.69260  0.74910  Biso   1.000  C
  H44      1.0000 0.61750  0.67640  0.73970  Biso   1.000  H
  C39      1.0000 0.66530  0.67330  0.77520  Biso   1.000  C
  H45      1.0000 0.65330  0.64400  0.78370  Biso   1.000  H
  C40      1.0000 0.70400  0.69690  0.78900  Biso   1.000  C
  C41      1.0000 0.72730  0.66810  0.81750  Biso   1.000  C
  H46      1.0000 0.75620  0.68830  0.82290  Biso   1.000  H
  C42      1.0000 0.70460  0.65660  0.84920  Biso   1.000  C
  H47      1.0000 0.72880  0.64040  0.86220  Biso   1.000  H
  H48      1.0000 0.67660  0.63520  0.84640  Biso   1.000  H
  H49      1.0000 0.69420  0.68680  0.85900  Biso   1.000  H
  C43      1.0000 0.74990  0.62360  0.80200  Biso   1.000  C
  H50      1.0000 0.76820  0.60490  0.81730  Biso   1.000  H
  H51      1.0000 0.77180  0.63420  0.78550  Biso   1.000  H
  H52      1.0000 0.72420  0.60330  0.79330  Biso   1.000  H
  C44      1.0000 0.72100  0.80490  0.73680  Biso   1.000  C
  H53      1.0000 0.75430  0.81310  0.74430  Biso   1.000  H
  C45      1.0000 0.68400  0.84390  0.74230  Biso   1.000  C
  H54      1.0000 0.67780  0.84680  0.76440  Biso   1.000  H
  H55      1.0000 0.65380  0.83550  0.73170  Biso   1.000  H
  H56      1.0000 0.69620  0.87480  0.73440  Biso   1.000  H
  C46      1.0000 0.71750  0.79920  0.70170  Biso   1.000  C
  H57      1.0000 0.74120  0.77510  0.69470  Biso   1.000  H
  H58      1.0000 0.72420  0.83040  0.69180  Biso   1.000  H
  H59      1.0000 0.68480  0.78840  0.69620  Biso   1.000  H
  C47      1.0000 0.88570  0.99377  0.90065  Biso   1.000  C
  C48      1.0000 0.87180  0.03740  0.88898  Biso   1.000  C
  C49      1.0000 0.87240  0.07750  0.90712  Biso   1.000  C
  H60      1.0000 0.86270  0.10790  0.89900  Biso   1.000  H
  C50      1.0000 0.88690  0.07410  0.93694  Biso   1.000  C
  H61      1.0000 0.88740  0.10210  0.94960  Biso   1.000  H
  C51      1.0000 0.90090  0.03050  0.94862  Biso   1.000  C
  H62      1.0000 0.91100  0.02810  0.96940  Biso   1.000  H
  C52      1.0000 0.90030  0.99035  0.93047  Biso   1.000  C
  C53      1.0000 0.91580  0.94140  0.94270  Biso   1.000  C
  H63      1.0000 0.90830  0.91540  0.92740  Biso   1.000  H
  C54      1.0000 0.89430  0.92880  0.97410  Biso   1.000  C
  H64      1.0000 0.85890  0.92850  0.97260  Biso   1.000  H
  H65      1.0000 0.90450  0.95310  0.98920  Biso   1.000  H
  H66      1.0000 0.90590  0.89670  0.98050  Biso   1.000  H
  C55      1.0000 0.96700  0.93630  0.95420  Biso   1.000  C
  H67      1.0000 0.97230  0.90300  0.96120  Biso   1.000  H
  H68      1.0000 0.97230  0.95880  0.97130  Biso   1.000  H
  H69      1.0000 0.98970  0.94380  0.93750  Biso   1.000  H
  C56      1.0000 0.93160  0.72090  0.91250  Biso   1.000  C
  H70      1.0000 0.93240  0.69630  0.89730  Biso   1.000  H
  C57      1.0000 0.96100  0.71690  0.93770  Biso   1.000  C
  H71      1.0000 0.98360  0.69100  0.93940  Biso   1.000  H
  C58      1.0000 0.95710  0.75240  0.96139  Biso   1.000  C
  C59      1.0000 0.98900  0.74770  0.98963  Biso   1.000  C
  C60      1.0000 0.92510  0.78870  0.95782  Biso   1.000  C
  H72      1.0000 0.92130  0.81220  0.97360  Biso   1.000  H
  C61      1.0000 0.89770  0.79160  0.93120  Biso   1.000  C
  H73      1.0000 0.87550  0.81770  0.92860  Biso   1.000  H
  C62      1.0000 0.00640  0.76860  0.04157  Biso   1.000  C
  H74      1.0000 0.99700  0.78550  0.05970  Biso   1.000  H
  C63      1.0000 0.97570  0.76850  0.01670  Biso   1.000  C
  H75      1.0000 0.94470  0.78330  0.01840  Biso   1.000  H
  C64      1.0000 0.03170  0.72340  0.98880  Biso   1.000  C
  H76      1.0000 0.04140  0.70640  0.97080  Biso   1.000  H
  C65      1.0000 0.06160  0.72370  0.01506  Biso   1.000  C
  H77      1.0000 0.09200  0.70760  0.01420  Biso   1.000  H
  N3       1.0000 0.90220  0.75840  0.90904  Biso   1.000  N
  N4       1.0000 0.04860  0.74590  0.04115  Biso   1.000  N
  O10      1.0000 0.88500  0.95330  0.88200  Biso   1.000  O
  O11      1.0000 0.85572  0.86703  0.88072  Biso   1.000  O
  O12      1.0000 0.81630  0.92930  0.84766  Biso   1.000  O
  O13      1.0000 0.80470  0.93270  0.90489  Biso   1.000  O
  O14      1.0000 0.76290  0.76010  0.78883  Biso   1.000  O
  O15      1.0000 0.80130  0.78113  0.83846  Biso   1.000  O
  O16      1.0000 0.76320  0.84626  0.80674  Biso   1.000  O
  O17      1.0000 0.71050  0.78500  0.83312  Biso   1.000  O
  O18      1.0000 0.87640  0.76350  0.88316  Biso   1.000  O
  P3       1.0000 0.83592  0.91791  0.87871  Biso   1.000  P
  P4       1.0000 0.75889  0.79618  0.81924  Biso   1.000  P
  Zn3      1.0000 0.81648  0.80863  0.87807  Biso   1.000  Zn
  Zn4      1.0000 0.75624  0.90563  0.83049  Biso   1.000  Zn
  C66      1.0000 0.85650  0.04280  0.85550  Biso   1.000  C
  H78      1.0000 0.85910  0.01070  0.84500  Biso   1.000  H
  C67      1.0000 0.80310  0.05880  0.85600  Biso   1.000  C
  H79      1.0000 0.79150  0.06280  0.83480  Biso   1.000  H
  H80      1.0000 0.80020  0.08970  0.86690  Biso   1.000  H
  H81      1.0000 0.78360  0.03410  0.86640  Biso   1.000  H
  C68      1.0000 0.89310  0.07910  0.84040  Biso   1.000  C
  H82      1.0000 0.92620  0.06680  0.84300  Biso   1.000  H
  H83      1.0000 0.89030  0.11080  0.85050  Biso   1.000  H
  H84      1.0000 0.88570  0.08240  0.81850  Biso   1.000  H
  C69      1.0000 0.77860  0.76030  0.27654  Biso   1.000  C
  C70      1.0000 0.79980  0.74110  0.25041  Biso   1.000  C
  C71      1.0000 0.83850  0.76460  0.23670  Biso   1.000  C
  H85      1.0000 0.85310  0.75140  0.21880  Biso   1.000  H
  C72      1.0000 0.85600  0.80740  0.24910  Biso   1.000  C
  H86      1.0000 0.88250  0.82360  0.23970  Biso   1.000  H
  C73      1.0000 0.83470  0.82670  0.27520  Biso   1.000  C
  H87      1.0000 0.84670  0.85600  0.28370  Biso   1.000  H
  C74      1.0000 0.79600  0.80310  0.28900  Biso   1.000  C
  C75      1.0000 0.77270  0.83190  0.31750  Biso   1.000  C
  H88      1.0000 0.74380  0.81170  0.32290  Biso   1.000  H
  C76      1.0000 0.79540  0.84340  0.34920  Biso   1.000  C
  H89      1.0000 0.77120  0.85960  0.36220  Biso   1.000  H
  H90      1.0000 0.82340  0.86480  0.34640  Biso   1.000  H
  H91      1.0000 0.80580  0.81320  0.35900  Biso   1.000  H
  C77      1.0000 0.75010  0.87640  0.30200  Biso   1.000  C
  H92      1.0000 0.73180  0.89510  0.31730  Biso   1.000  H
  H93      1.0000 0.72820  0.86580  0.28550  Biso   1.000  H
  H94      1.0000 0.77580  0.89670  0.29330  Biso   1.000  H
  C78      1.0000 0.77900  0.69510  0.23680  Biso   1.000  C
  H95      1.0000 0.74570  0.68690  0.24430  Biso   1.000  H
  C79      1.0000 0.81600  0.65610  0.24230  Biso   1.000  C
  H96      1.0000 0.82220  0.65320  0.26440  Biso   1.000  H
  H97      1.0000 0.84620  0.66450  0.23170  Biso   1.000  H
  H98      1.0000 0.80380  0.62520  0.23440  Biso   1.000  H
  C80      1.0000 0.78250  0.70080  0.20170  Biso   1.000  C
  H99      1.0000 0.75880  0.72490  0.19470  Biso   1.000  H
  H100     1.0000 0.77580  0.66960  0.19180  Biso   1.000  H
  H101     1.0000 0.81520  0.71160  0.19620  Biso   1.000  H
  C81      1.0000 0.61430  0.50623  0.40065  Biso   1.000  C
  C82      1.0000 0.62820  0.46260  0.38898  Biso   1.000  C
  C83      1.0000 0.62760  0.42250  0.40712  Biso   1.000  C
  H102     1.0000 0.63730  0.39210  0.39900  Biso   1.000  H
  C84      1.0000 0.61310  0.42590  0.43694  Biso   1.000  C
  H103     1.0000 0.61260  0.39790  0.44960  Biso   1.000  H
  C85      1.0000 0.59910  0.46950  0.44862  Biso   1.000  C
  H104     1.0000 0.58900  0.47190  0.46940  Biso   1.000  H
  C86      1.0000 0.59970  0.50965  0.43047  Biso   1.000  C
  C87      1.0000 0.58420  0.55860  0.44270  Biso   1.000  C
  H105     1.0000 0.59170  0.58460  0.42740  Biso   1.000  H
  C88      1.0000 0.60570  0.57120  0.47410  Biso   1.000  C
  H106     1.0000 0.64110  0.57150  0.47260  Biso   1.000  H
  H107     1.0000 0.59550  0.54690  0.48920  Biso   1.000  H
  H108     1.0000 0.59410  0.60330  0.48050  Biso   1.000  H
  C89      1.0000 0.53300  0.56370  0.45420  Biso   1.000  C
  H109     1.0000 0.52770  0.59700  0.46120  Biso   1.000  H
  H110     1.0000 0.52770  0.54120  0.47130  Biso   1.000  H
  H111     1.0000 0.51030  0.55620  0.43750  Biso   1.000  H
  C90      1.0000 0.56840  0.77910  0.41250  Biso   1.000  C
  H112     1.0000 0.56760  0.80370  0.39730  Biso   1.000  H
  C91      1.0000 0.53900  0.78310  0.43770  Biso   1.000  C
  H113     1.0000 0.51640  0.80900  0.43940  Biso   1.000  H
  C92      1.0000 0.54290  0.74760  0.46139  Biso   1.000  C
  C93      1.0000 0.51100  0.75230  0.48963  Biso   1.000  C
  C94      1.0000 0.57490  0.71130  0.45782  Biso   1.000  C
  H114     1.0000 0.57870  0.68780  0.47360  Biso   1.000  H
  C95      1.0000 0.60230  0.70840  0.43120  Biso   1.000  C
  H115     1.0000 0.62450  0.68230  0.42860  Biso   1.000  H
  C96      1.0000 0.49360  0.73140  0.54157  Biso   1.000  C
  H116     1.0000 0.50300  0.71450  0.55970  Biso   1.000  H
  C97      1.0000 0.52430  0.73150  0.51670  Biso   1.000  C
  H117     1.0000 0.55530  0.71670  0.51840  Biso   1.000  H
  C98      1.0000 0.46830  0.77660  0.48880  Biso   1.000  C
  H118     1.0000 0.45860  0.79360  0.47080  Biso   1.000  H
  C99      1.0000 0.43840  0.77630  0.51506  Biso   1.000  C
  H119     1.0000 0.40800  0.79240  0.51420  Biso   1.000  H
  N5       1.0000 0.59780  0.74160  0.40904  Biso   1.000  N
  N6       1.0000 0.45140  0.75410  0.54115  Biso   1.000  N
  O19      1.0000 0.61500  0.54670  0.38200  Biso   1.000  O
  O20      1.0000 0.64428  0.63297  0.38072  Biso   1.000  O
  O21      1.0000 0.68370  0.57070  0.34766  Biso   1.000  O
  O22      1.0000 0.69530  0.56730  0.40489  Biso   1.000  O
  O23      1.0000 0.73710  0.73990  0.28883  Biso   1.000  O
  O24      1.0000 0.69870  0.71887  0.33846  Biso   1.000  O
  O25      1.0000 0.73680  0.65374  0.30674  Biso   1.000  O
  O26      1.0000 0.78950  0.71500  0.33312  Biso   1.000  O
  O27      1.0000 0.62360  0.73650  0.38316  Biso   1.000  O
  P5       1.0000 0.66408  0.58209  0.37871  Biso   1.000  P
  P6       1.0000 0.74111  0.70382  0.31924  Biso   1.000  P
  Zn5      1.0000 0.68352  0.69137  0.37807  Biso   1.000  Zn
  Zn6      1.0000 0.74376  0.59437  0.33049  Biso   1.000  Zn
  C100     1.0000 0.64350  0.45720  0.35550  Biso   1.000  C
  H120     1.0000 0.64090  0.48930  0.34500  Biso   1.000  H
  C101     1.0000 0.69690  0.44120  0.35600  Biso   1.000  C
  H121     1.0000 0.70850  0.43720  0.33480  Biso   1.000  H
  H122     1.0000 0.69980  0.41030  0.36690  Biso   1.000  H
  H123     1.0000 0.71640  0.46590  0.36640  Biso   1.000  H
  C102     1.0000 0.60690  0.42090  0.34040  Biso   1.000  C
  H124     1.0000 0.57380  0.43320  0.34300  Biso   1.000  H
  H125     1.0000 0.60970  0.38920  0.35050  Biso   1.000  H
  H126     1.0000 0.61430  0.41760  0.31850  Biso   1.000  H
  C103     1.0000 0.27860  0.26030  0.77654  Biso   1.000  C
  C104     1.0000 0.29980  0.24110  0.75041  Biso   1.000  C
  C105     1.0000 0.33850  0.26460  0.73670  Biso   1.000  C
  H127     1.0000 0.35310  0.25140  0.71880  Biso   1.000  H
  C106     1.0000 0.35600  0.30740  0.74910  Biso   1.000  C
  H128     1.0000 0.38250  0.32360  0.73970  Biso   1.000  H
  C107     1.0000 0.33470  0.32670  0.77520  Biso   1.000  C
  H129     1.0000 0.34670  0.35600  0.78370  Biso   1.000  H
  C108     1.0000 0.29600  0.30310  0.78900  Biso   1.000  C
  C109     1.0000 0.27270  0.33190  0.81750  Biso   1.000  C
  H130     1.0000 0.24380  0.31170  0.82290  Biso   1.000  H
  C110     1.0000 0.29540  0.34340  0.84920  Biso   1.000  C
  H131     1.0000 0.27120  0.35960  0.86220  Biso   1.000  H
  H132     1.0000 0.32340  0.36480  0.84640  Biso   1.000  H
  H133     1.0000 0.30580  0.31320  0.85900  Biso   1.000  H
  C111     1.0000 0.25010  0.37640  0.80200  Biso   1.000  C
  H134     1.0000 0.23180  0.39510  0.81730  Biso   1.000  H
  H135     1.0000 0.22820  0.36580  0.78550  Biso   1.000  H
  H136     1.0000 0.27580  0.39670  0.79330  Biso   1.000  H
  C112     1.0000 0.27900  0.19510  0.73680  Biso   1.000  C
  H137     1.0000 0.24570  0.18690  0.74430  Biso   1.000  H
  C113     1.0000 0.31600  0.15610  0.74230  Biso   1.000  C
  H138     1.0000 0.32220  0.15320  0.76440  Biso   1.000  H
  H139     1.0000 0.34620  0.16450  0.73170  Biso   1.000  H
  H140     1.0000 0.30380  0.12520  0.73440  Biso   1.000  H
  C114     1.0000 0.28250  0.20080  0.70170  Biso   1.000  C
  H141     1.0000 0.25880  0.22490  0.69470  Biso   1.000  H
  H142     1.0000 0.27580  0.16960  0.69180  Biso   1.000  H
  H143     1.0000 0.31520  0.21160  0.69620  Biso   1.000  H
  C115     1.0000 0.11430  0.00623  0.90065  Biso   1.000  C
  C116     1.0000 0.12820  0.96260  0.88898  Biso   1.000  C
  C117     1.0000 0.12760  0.92250  0.90712  Biso   1.000  C
  H144     1.0000 0.13730  0.89210  0.89900  Biso   1.000  H
  C118     1.0000 0.11310  0.92590  0.93694  Biso   1.000  C
  H145     1.0000 0.11260  0.89790  0.94960  Biso   1.000  H
  C119     1.0000 0.09910  0.96950  0.94862  Biso   1.000  C
  H146     1.0000 0.08900  0.97190  0.96940  Biso   1.000  H
  C120     1.0000 0.09970  0.00965  0.93047  Biso   1.000  C
  C121     1.0000 0.08420  0.05860  0.94270  Biso   1.000  C
  H147     1.0000 0.09170  0.08460  0.92740  Biso   1.000  H
  C122     1.0000 0.10570  0.07120  0.97410  Biso   1.000  C
  H148     1.0000 0.14110  0.07150  0.97260  Biso   1.000  H
  H149     1.0000 0.09550  0.04690  0.98920  Biso   1.000  H
  H150     1.0000 0.09410  0.10330  0.98050  Biso   1.000  H
  C123     1.0000 0.03300  0.06370  0.95420  Biso   1.000  C
  H151     1.0000 0.02770  0.09700  0.96120  Biso   1.000  H
  H152     1.0000 0.02770  0.04120  0.97130  Biso   1.000  H
  H153     1.0000 0.01030  0.05620  0.93750  Biso   1.000  H
  C124     1.0000 0.06840  0.27910  0.91250  Biso   1.000  C
  H154     1.0000 0.06760  0.30370  0.89730  Biso   1.000  H
  C125     1.0000 0.03900  0.28310  0.93770  Biso   1.000  C
  H155     1.0000 0.01640  0.30900  0.93940  Biso   1.000  H
  C126     1.0000 0.04290  0.24760  0.96139  Biso   1.000  C
  C127     1.0000 0.01100  0.25230  0.98963  Biso   1.000  C
  C128     1.0000 0.07490  0.21130  0.95782  Biso   1.000  C
  H156     1.0000 0.07870  0.18780  0.97360  Biso   1.000  H
  C129     1.0000 0.10230  0.20840  0.93120  Biso   1.000  C
  H157     1.0000 0.12450  0.18230  0.92860  Biso   1.000  H
  C130     1.0000 0.99360  0.23140  0.04157  Biso   1.000  C
  H158     1.0000 0.00300  0.21450  0.05970  Biso   1.000  H
  C131     1.0000 0.02430  0.23150  0.01670  Biso   1.000  C
  H159     1.0000 0.05530  0.21670  0.01840  Biso   1.000  H
  C132     1.0000 0.96830  0.27660  0.98880  Biso   1.000  C
  H160     1.0000 0.95860  0.29360  0.97080  Biso   1.000  H
  C133     1.0000 0.93840  0.27630  0.01506  Biso   1.000  C
  H161     1.0000 0.90800  0.29240  0.01420  Biso   1.000  H
  N7       1.0000 0.09780  0.24160  0.90904  Biso   1.000  N
  N8       1.0000 0.95140  0.25410  0.04115  Biso   1.000  N
  O28      1.0000 0.11500  0.04670  0.88200  Biso   1.000  O
  O29      1.0000 0.14428  0.13297  0.88072  Biso   1.000  O
  O30      1.0000 0.18370  0.07070  0.84766  Biso   1.000  O
  O31      1.0000 0.19530  0.06730  0.90489  Biso   1.000  O
  O32      1.0000 0.23710  0.23990  0.78883  Biso   1.000  O
  O33      1.0000 0.19870  0.21887  0.83846  Biso   1.000  O
  O34      1.0000 0.23680  0.15374  0.80674  Biso   1.000  O
  O35      1.0000 0.28950  0.21500  0.83312  Biso   1.000  O
  O36      1.0000 0.12360  0.23650  0.88316  Biso   1.000  O
  P7       1.0000 0.16408  0.08209  0.87871  Biso   1.000  P
  P8       1.0000 0.24111  0.20382  0.81924  Biso   1.000  P
  Zn7      1.0000 0.18352  0.19137  0.87807  Biso   1.000  Zn
  Zn8      1.0000 0.24376  0.09437  0.83049  Biso   1.000  Zn
  C134     1.0000 0.14350  0.95720  0.85550  Biso   1.000  C
  H162     1.0000 0.14090  0.98930  0.84500  Biso   1.000  H
  C135     1.0000 0.19690  0.94120  0.85600  Biso   1.000  C
  H163     1.0000 0.20850  0.93720  0.83480  Biso   1.000  H
  H164     1.0000 0.19980  0.91030  0.86690  Biso   1.000  H
  H165     1.0000 0.21640  0.96590  0.86640  Biso   1.000  H
  C136     1.0000 0.10690  0.92090  0.84040  Biso   1.000  C
  H166     1.0000 0.07380  0.93320  0.84300  Biso   1.000  H
  H167     1.0000 0.10970  0.88920  0.85050  Biso   1.000  H
  H168     1.0000 0.11430  0.91760  0.81850  Biso   1.000  H
  C137     1.0000 0.23970  0.77860  0.72346  Biso   1.000  C
  C138     1.0000 0.25890  0.79980  0.74959  Biso   1.000  C
  C139     1.0000 0.23540  0.83850  0.76330  Biso   1.000  C
  H169     1.0000 0.24860  0.85310  0.78120  Biso   1.000  H
  C140     1.0000 0.19260  0.85600  0.75090  Biso   1.000  C
  H170     1.0000 0.17640  0.88250  0.76030  Biso   1.000  H
  C141     1.0000 0.17330  0.83470  0.72480  Biso   1.000  C
  H171     1.0000 0.14400  0.84670  0.71630  Biso   1.000  H
  C142     1.0000 0.19690  0.79600  0.71100  Biso   1.000  C
  C143     1.0000 0.16810  0.77270  0.68250  Biso   1.000  C
  H172     1.0000 0.18830  0.74380  0.67710  Biso   1.000  H
  C144     1.0000 0.15660  0.79540  0.65080  Biso   1.000  C
  H173     1.0000 0.14040  0.77120  0.63780  Biso   1.000  H
  H174     1.0000 0.13520  0.82340  0.65360  Biso   1.000  H
  H175     1.0000 0.18680  0.80580  0.64100  Biso   1.000  H
  C145     1.0000 0.12360  0.75010  0.69800  Biso   1.000  C
  H176     1.0000 0.10490  0.73180  0.68270  Biso   1.000  H
  H177     1.0000 0.13420  0.72820  0.71450  Biso   1.000  H
  H178     1.0000 0.10330  0.77580  0.70670  Biso   1.000  H
  C146     1.0000 0.30490  0.77900  0.76320  Biso   1.000  C
  H179     1.0000 0.31310  0.74570  0.75570  Biso   1.000  H
  C147     1.0000 0.34390  0.81600  0.75770  Biso   1.000  C
  H180     1.0000 0.34680  0.82220  0.73560  Biso   1.000  H
  H181     1.0000 0.33550  0.84620  0.76830  Biso   1.000  H
  H182     1.0000 0.37480  0.80380  0.76560  Biso   1.000  H
  C148     1.0000 0.29920  0.78250  0.79830  Biso   1.000  C
  H183     1.0000 0.27510  0.75880  0.80530  Biso   1.000  H
  H184     1.0000 0.33040  0.77580  0.80820  Biso   1.000  H
  H185     1.0000 0.28840  0.81520  0.80380  Biso   1.000  H
  C149     1.0000 0.49377  0.61430  0.59935  Biso   1.000  C
  C150     1.0000 0.53740  0.62820  0.61102  Biso   1.000  C
  C151     1.0000 0.57750  0.62760  0.59288  Biso   1.000  C
  H186     1.0000 0.60790  0.63730  0.60100  Biso   1.000  H
  C152     1.0000 0.57410  0.61310  0.56306  Biso   1.000  C
  H187     1.0000 0.60210  0.61260  0.55040  Biso   1.000  H
  C153     1.0000 0.53050  0.59910  0.55138  Biso   1.000  C
  H188     1.0000 0.52810  0.58900  0.53060  Biso   1.000  H
  C154     1.0000 0.49035  0.59970  0.56953  Biso   1.000  C
  C155     1.0000 0.44140  0.58420  0.55730  Biso   1.000  C
  H189     1.0000 0.41540  0.59170  0.57260  Biso   1.000  H
  C156     1.0000 0.42880  0.60570  0.52590  Biso   1.000  C
  H190     1.0000 0.42850  0.64110  0.52740  Biso   1.000  H
  H191     1.0000 0.45310  0.59550  0.51080  Biso   1.000  H
  H192     1.0000 0.39670  0.59410  0.51950  Biso   1.000  H
  C157     1.0000 0.43630  0.53300  0.54580  Biso   1.000  C
  H193     1.0000 0.40300  0.52770  0.53880  Biso   1.000  H
  H194     1.0000 0.45880  0.52770  0.52870  Biso   1.000  H
  H195     1.0000 0.44380  0.51030  0.56250  Biso   1.000  H
  C158     1.0000 0.22090  0.56840  0.58750  Biso   1.000  C
  H196     1.0000 0.19630  0.56760  0.60270  Biso   1.000  H
  C159     1.0000 0.21690  0.53900  0.56230  Biso   1.000  C
  H197     1.0000 0.19100  0.51640  0.56060  Biso   1.000  H
  C160     1.0000 0.25240  0.54290  0.53861  Biso   1.000  C
  C161     1.0000 0.24770  0.51100  0.51037  Biso   1.000  C
  C162     1.0000 0.28870  0.57490  0.54218  Biso   1.000  C
  H198     1.0000 0.31220  0.57870  0.52640  Biso   1.000  H
  C163     1.0000 0.29160  0.60230  0.56880  Biso   1.000  C
  H199     1.0000 0.31770  0.62450  0.57140  Biso   1.000  H
  C164     1.0000 0.26860  0.49360  0.45843  Biso   1.000  C
  H200     1.0000 0.28550  0.50300  0.44030  Biso   1.000  H
  C165     1.0000 0.26850  0.52430  0.48330  Biso   1.000  C
  H201     1.0000 0.28330  0.55530  0.48160  Biso   1.000  H
  C166     1.0000 0.22340  0.46830  0.51120  Biso   1.000  C
  H202     1.0000 0.20640  0.45860  0.52920  Biso   1.000  H
  C167     1.0000 0.22370  0.43840  0.48494  Biso   1.000  C
  H203     1.0000 0.20760  0.40800  0.48580  Biso   1.000  H
  N9       1.0000 0.25840  0.59780  0.59096  Biso   1.000  N
  N10      1.0000 0.24590  0.45140  0.45885  Biso   1.000  N
  O37      1.0000 0.45330  0.61500  0.61800  Biso   1.000  O
  O38      1.0000 0.36703  0.64428  0.61928  Biso   1.000  O
  O39      1.0000 0.42930  0.68370  0.65234  Biso   1.000  O
  O40      1.0000 0.43270  0.69530  0.59511  Biso   1.000  O
  O41      1.0000 0.26010  0.73710  0.71117  Biso   1.000  O
  O42      1.0000 0.28113  0.69870  0.66154  Biso   1.000  O
  O43      1.0000 0.34626  0.73680  0.69326  Biso   1.000  O
  O44      1.0000 0.28500  0.78950  0.66688  Biso   1.000  O
  O45      1.0000 0.26350  0.62360  0.61684  Biso   1.000  O
  P9       1.0000 0.41791  0.66408  0.62129  Biso   1.000  P
  P10      1.0000 0.29618  0.74111  0.68076  Biso   1.000  P
  Zn9      1.0000 0.30863  0.68352  0.62193  Biso   1.000  Zn
  Zn10     1.0000 0.40563  0.74376  0.66951  Biso   1.000  Zn
  C168     1.0000 0.54280  0.64350  0.64450  Biso   1.000  C
  H204     1.0000 0.51070  0.64090  0.65500  Biso   1.000  H
  C169     1.0000 0.55880  0.69690  0.64400  Biso   1.000  C
  H205     1.0000 0.56280  0.70850  0.66520  Biso   1.000  H
  H206     1.0000 0.58970  0.69980  0.63310  Biso   1.000  H
  H207     1.0000 0.53410  0.71640  0.63360  Biso   1.000  H
  C170     1.0000 0.57910  0.60690  0.65960  Biso   1.000  C
  H208     1.0000 0.56680  0.57380  0.65700  Biso   1.000  H
  H209     1.0000 0.61080  0.60970  0.64950  Biso   1.000  H
  H210     1.0000 0.58240  0.61430  0.68150  Biso   1.000  H
  C171     1.0000 0.73970  0.27860  0.22346  Biso   1.000  C
  C172     1.0000 0.75890  0.29980  0.24959  Biso   1.000  C
  C173     1.0000 0.73540  0.33850  0.26330  Biso   1.000  C
  H211     1.0000 0.74860  0.35310  0.28120  Biso   1.000  H
  C174     1.0000 0.69260  0.35600  0.25090  Biso   1.000  C
  H212     1.0000 0.67640  0.38250  0.26030  Biso   1.000  H
  C175     1.0000 0.67330  0.33470  0.22480  Biso   1.000  C
  H213     1.0000 0.64400  0.34670  0.21630  Biso   1.000  H
  C176     1.0000 0.69690  0.29600  0.21100  Biso   1.000  C
  C177     1.0000 0.66810  0.27270  0.18250  Biso   1.000  C
  H214     1.0000 0.68830  0.24380  0.17710  Biso   1.000  H
  C178     1.0000 0.65660  0.29540  0.15080  Biso   1.000  C
  H215     1.0000 0.64040  0.27120  0.13780  Biso   1.000  H
  H216     1.0000 0.63520  0.32340  0.15360  Biso   1.000  H
  H217     1.0000 0.68680  0.30580  0.14100  Biso   1.000  H
  C179     1.0000 0.62360  0.25010  0.19800  Biso   1.000  C
  H218     1.0000 0.60490  0.23180  0.18270  Biso   1.000  H
  H219     1.0000 0.63420  0.22820  0.21450  Biso   1.000  H
  H220     1.0000 0.60330  0.27580  0.20670  Biso   1.000  H
  C180     1.0000 0.80490  0.27900  0.26320  Biso   1.000  C
  H221     1.0000 0.81310  0.24570  0.25570  Biso   1.000  H
  C181     1.0000 0.84390  0.31600  0.25770  Biso   1.000  C
  H222     1.0000 0.84680  0.32220  0.23560  Biso   1.000  H
  H223     1.0000 0.83550  0.34620  0.26830  Biso   1.000  H
  H224     1.0000 0.87480  0.30380  0.26560  Biso   1.000  H
  C182     1.0000 0.79920  0.28250  0.29830  Biso   1.000  C
  H225     1.0000 0.77510  0.25880  0.30530  Biso   1.000  H
  H226     1.0000 0.83040  0.27580  0.30820  Biso   1.000  H
  H227     1.0000 0.78840  0.31520  0.30380  Biso   1.000  H
  C183     1.0000 0.99377  0.11430  0.09935  Biso   1.000  C
  C184     1.0000 0.03740  0.12820  0.11102  Biso   1.000  C
  C185     1.0000 0.07750  0.12760  0.09288  Biso   1.000  C
  H228     1.0000 0.10790  0.13730  0.10100  Biso   1.000  H
  C186     1.0000 0.07410  0.11310  0.06306  Biso   1.000  C
  H229     1.0000 0.10210  0.11260  0.05040  Biso   1.000  H
  C187     1.0000 0.03050  0.09910  0.05138  Biso   1.000  C
  H230     1.0000 0.02810  0.08900  0.03060  Biso   1.000  H
  C188     1.0000 0.99035  0.09970  0.06953  Biso   1.000  C
  C189     1.0000 0.94140  0.08420  0.05730  Biso   1.000  C
  H231     1.0000 0.91540  0.09170  0.07260  Biso   1.000  H
  C190     1.0000 0.92880  0.10570  0.02590  Biso   1.000  C
  H232     1.0000 0.92850  0.14110  0.02740  Biso   1.000  H
  H233     1.0000 0.95310  0.09550  0.01080  Biso   1.000  H
  H234     1.0000 0.89670  0.09410  0.01950  Biso   1.000  H
  C191     1.0000 0.93630  0.03300  0.04580  Biso   1.000  C
  H235     1.0000 0.90300  0.02770  0.03880  Biso   1.000  H
  H236     1.0000 0.95880  0.02770  0.02870  Biso   1.000  H
  H237     1.0000 0.94380  0.01030  0.06250  Biso   1.000  H
  C192     1.0000 0.72090  0.06840  0.08750  Biso   1.000  C
  H238     1.0000 0.69630  0.06760  0.10270  Biso   1.000  H
  C193     1.0000 0.71690  0.03900  0.06230  Biso   1.000  C
  H239     1.0000 0.69100  0.01640  0.06060  Biso   1.000  H
  C194     1.0000 0.75240  0.04290  0.03861  Biso   1.000  C
  C195     1.0000 0.74770  0.01100  0.01037  Biso   1.000  C
  C196     1.0000 0.78870  0.07490  0.04218  Biso   1.000  C
  H240     1.0000 0.81220  0.07870  0.02640  Biso   1.000  H
  C197     1.0000 0.79160  0.10230  0.06880  Biso   1.000  C
  H241     1.0000 0.81770  0.12450  0.07140  Biso   1.000  H
  C198     1.0000 0.76860  0.99360  0.95843  Biso   1.000  C
  H242     1.0000 0.78550  0.00300  0.94030  Biso   1.000  H
  C199     1.0000 0.76850  0.02430  0.98330  Biso   1.000  C
  H243     1.0000 0.78330  0.05530  0.98160  Biso   1.000  H
  C200     1.0000 0.72340  0.96830  0.01120  Biso   1.000  C
  H244     1.0000 0.70640  0.95860  0.02920  Biso   1.000  H
  C201     1.0000 0.72370  0.93840  0.98494  Biso   1.000  C
  H245     1.0000 0.70760  0.90800  0.98580  Biso   1.000  H
  N11      1.0000 0.75840  0.09780  0.09096  Biso   1.000  N
  N12      1.0000 0.74590  0.95140  0.95885  Biso   1.000  N
  O46      1.0000 0.95330  0.11500  0.11800  Biso   1.000  O
  O47      1.0000 0.86703  0.14428  0.11928  Biso   1.000  O
  O48      1.0000 0.92930  0.18370  0.15234  Biso   1.000  O
  O49      1.0000 0.93270  0.19530  0.09511  Biso   1.000  O
  O50      1.0000 0.76010  0.23710  0.21117  Biso   1.000  O
  O51      1.0000 0.78113  0.19870  0.16154  Biso   1.000  O
  O52      1.0000 0.84626  0.23680  0.19326  Biso   1.000  O
  O53      1.0000 0.78500  0.28950  0.16688  Biso   1.000  O
  O54      1.0000 0.76350  0.12360  0.11684  Biso   1.000  O
  P11      1.0000 0.91791  0.16408  0.12129  Biso   1.000  P
  P12      1.0000 0.79618  0.24111  0.18076  Biso   1.000  P
  Zn11     1.0000 0.80863  0.18352  0.12193  Biso   1.000  Zn
  Zn12     1.0000 0.90563  0.24376  0.16951  Biso   1.000  Zn
  C202     1.0000 0.04280  0.14350  0.14450  Biso   1.000  C
  H246     1.0000 0.01070  0.14090  0.15500  Biso   1.000  H
  C203     1.0000 0.05880  0.19690  0.14400  Biso   1.000  C
  H247     1.0000 0.06280  0.20850  0.16520  Biso   1.000  H
  H248     1.0000 0.08970  0.19980  0.13310  Biso   1.000  H
  H249     1.0000 0.03410  0.21640  0.13360  Biso   1.000  H
  C204     1.0000 0.07910  0.10690  0.15960  Biso   1.000  C
  H250     1.0000 0.06680  0.07380  0.15700  Biso   1.000  H
  H251     1.0000 0.11080  0.10970  0.14950  Biso   1.000  H
  H252     1.0000 0.08240  0.11430  0.18150  Biso   1.000  H
  C205     1.0000 0.76030  0.22140  0.72346  Biso   1.000  C
  C206     1.0000 0.74110  0.20020  0.74959  Biso   1.000  C
  C207     1.0000 0.76460  0.16150  0.76330  Biso   1.000  C
  H253     1.0000 0.75140  0.14690  0.78120  Biso   1.000  H
  C208     1.0000 0.80740  0.14400  0.75090  Biso   1.000  C
  H254     1.0000 0.82360  0.11750  0.76030  Biso   1.000  H
  C209     1.0000 0.82670  0.16530  0.72480  Biso   1.000  C
  H255     1.0000 0.85600  0.15330  0.71630  Biso   1.000  H
  C210     1.0000 0.80310  0.20400  0.71100  Biso   1.000  C
  C211     1.0000 0.83190  0.22730  0.68250  Biso   1.000  C
  H256     1.0000 0.81170  0.25620  0.67710  Biso   1.000  H
  C212     1.0000 0.84340  0.20460  0.65080  Biso   1.000  C
  H257     1.0000 0.85960  0.22880  0.63780  Biso   1.000  H
  H258     1.0000 0.86480  0.17660  0.65360  Biso   1.000  H
  H259     1.0000 0.81320  0.19420  0.64100  Biso   1.000  H
  C213     1.0000 0.87640  0.24990  0.69800  Biso   1.000  C
  H260     1.0000 0.89510  0.26820  0.68270  Biso   1.000  H
  H261     1.0000 0.86580  0.27180  0.71450  Biso   1.000  H
  H262     1.0000 0.89670  0.22420  0.70670  Biso   1.000  H
  C214     1.0000 0.69510  0.22100  0.76320  Biso   1.000  C
  H263     1.0000 0.68690  0.25430  0.75570  Biso   1.000  H
  C215     1.0000 0.65610  0.18400  0.75770  Biso   1.000  C
  H264     1.0000 0.65320  0.17780  0.73560  Biso   1.000  H
  H265     1.0000 0.66450  0.15380  0.76830  Biso   1.000  H
  H266     1.0000 0.62520  0.19620  0.76560  Biso   1.000  H
  C216     1.0000 0.70080  0.21750  0.79830  Biso   1.000  C
  H267     1.0000 0.72490  0.24120  0.80530  Biso   1.000  H
  H268     1.0000 0.66960  0.22420  0.80820  Biso   1.000  H
  H269     1.0000 0.71160  0.18480  0.80380  Biso   1.000  H
  C217     1.0000 0.50623  0.38570  0.59935  Biso   1.000  C
  C218     1.0000 0.46260  0.37180  0.61102  Biso   1.000  C
  C219     1.0000 0.42250  0.37240  0.59288  Biso   1.000  C
  H270     1.0000 0.39210  0.36270  0.60100  Biso   1.000  H
  C220     1.0000 0.42590  0.38690  0.56306  Biso   1.000  C
  H271     1.0000 0.39790  0.38740  0.55040  Biso   1.000  H
  C221     1.0000 0.46950  0.40090  0.55138  Biso   1.000  C
  H272     1.0000 0.47190  0.41100  0.53060  Biso   1.000  H
  C222     1.0000 0.50965  0.40030  0.56953  Biso   1.000  C
  C223     1.0000 0.55860  0.41580  0.55730  Biso   1.000  C
  H273     1.0000 0.58460  0.40830  0.57260  Biso   1.000  H
  C224     1.0000 0.57120  0.39430  0.52590  Biso   1.000  C
  H274     1.0000 0.57150  0.35890  0.52740  Biso   1.000  H
  H275     1.0000 0.54690  0.40450  0.51080  Biso   1.000  H
  H276     1.0000 0.60330  0.40590  0.51950  Biso   1.000  H
  C225     1.0000 0.56370  0.46700  0.54580  Biso   1.000  C
  H277     1.0000 0.59700  0.47230  0.53880  Biso   1.000  H
  H278     1.0000 0.54120  0.47230  0.52870  Biso   1.000  H
  H279     1.0000 0.55620  0.48970  0.56250  Biso   1.000  H
  C226     1.0000 0.77910  0.43160  0.58750  Biso   1.000  C
  H280     1.0000 0.80370  0.43240  0.60270  Biso   1.000  H
  C227     1.0000 0.78310  0.46100  0.56230  Biso   1.000  C
  H281     1.0000 0.80900  0.48360  0.56060  Biso   1.000  H
  C228     1.0000 0.74760  0.45710  0.53861  Biso   1.000  C
  C229     1.0000 0.75230  0.48900  0.51037  Biso   1.000  C
  C230     1.0000 0.71130  0.42510  0.54218  Biso   1.000  C
  H282     1.0000 0.68780  0.42130  0.52640  Biso   1.000  H
  C231     1.0000 0.70840  0.39770  0.56880  Biso   1.000  C
  H283     1.0000 0.68230  0.37550  0.57140  Biso   1.000  H
  C232     1.0000 0.73140  0.50640  0.45843  Biso   1.000  C
  H284     1.0000 0.71450  0.49700  0.44030  Biso   1.000  H
  C233     1.0000 0.73150  0.47570  0.48330  Biso   1.000  C
  H285     1.0000 0.71670  0.44470  0.48160  Biso   1.000  H
  C234     1.0000 0.77660  0.53170  0.51120  Biso   1.000  C
  H286     1.0000 0.79360  0.54140  0.52920  Biso   1.000  H
  C235     1.0000 0.77630  0.56160  0.48494  Biso   1.000  C
  H287     1.0000 0.79240  0.59200  0.48580  Biso   1.000  H
  N13      1.0000 0.74160  0.40220  0.59096  Biso   1.000  N
  N14      1.0000 0.75410  0.54860  0.45885  Biso   1.000  N
  O55      1.0000 0.54670  0.38500  0.61800  Biso   1.000  O
  O56      1.0000 0.63297  0.35572  0.61928  Biso   1.000  O
  O57      1.0000 0.57070  0.31630  0.65234  Biso   1.000  O
  O58      1.0000 0.56730  0.30470  0.59511  Biso   1.000  O
  O59      1.0000 0.73990  0.26290  0.71117  Biso   1.000  O
  O60      1.0000 0.71887  0.30130  0.66154  Biso   1.000  O
  O61      1.0000 0.65374  0.26320  0.69326  Biso   1.000  O
  O62      1.0000 0.71500  0.21050  0.66688  Biso   1.000  O
  O63      1.0000 0.73650  0.37640  0.61684  Biso   1.000  O
  P13      1.0000 0.58209  0.33592  0.62129  Biso   1.000  P
  P14      1.0000 0.70382  0.25889  0.68076  Biso   1.000  P
  Zn13     1.0000 0.69137  0.31648  0.62193  Biso   1.000  Zn
  Zn14     1.0000 0.59437  0.25624  0.66951  Biso   1.000  Zn
  C236     1.0000 0.45720  0.35650  0.64450  Biso   1.000  C
  H288     1.0000 0.48930  0.35910  0.65500  Biso   1.000  H
  C237     1.0000 0.44120  0.30310  0.64400  Biso   1.000  C
  H289     1.0000 0.43720  0.29150  0.66520  Biso   1.000  H
  H290     1.0000 0.41030  0.30020  0.63310  Biso   1.000  H
  H291     1.0000 0.46590  0.28360  0.63360  Biso   1.000  H
  C238     1.0000 0.42090  0.39310  0.65960  Biso   1.000  C
  H292     1.0000 0.43320  0.42620  0.65700  Biso   1.000  H
  H293     1.0000 0.38920  0.39030  0.64950  Biso   1.000  H
  H294     1.0000 0.41760  0.38570  0.68150  Biso   1.000  H
  C239     1.0000 0.26030  0.72140  0.22346  Biso   1.000  C
  C240     1.0000 0.24110  0.70020  0.24959  Biso   1.000  C
  C241     1.0000 0.26460  0.66150  0.26330  Biso   1.000  C
  H295     1.0000 0.25140  0.64690  0.28120  Biso   1.000  H
  C242     1.0000 0.30740  0.64400  0.25090  Biso   1.000  C
  H296     1.0000 0.32360  0.61750  0.26030  Biso   1.000  H
  C243     1.0000 0.32670  0.66530  0.22480  Biso   1.000  C
  H297     1.0000 0.35600  0.65330  0.21630  Biso   1.000  H
  C244     1.0000 0.30310  0.70400  0.21100  Biso   1.000  C
  C245     1.0000 0.33190  0.72730  0.18250  Biso   1.000  C
  H298     1.0000 0.31170  0.75620  0.17710  Biso   1.000  H
  C246     1.0000 0.34340  0.70460  0.15080  Biso   1.000  C
  H299     1.0000 0.35960  0.72880  0.13780  Biso   1.000  H
  H300     1.0000 0.36480  0.67660  0.15360  Biso   1.000  H
  H301     1.0000 0.31320  0.69420  0.14100  Biso   1.000  H
  C247     1.0000 0.37640  0.74990  0.19800  Biso   1.000  C
  H302     1.0000 0.39510  0.76820  0.18270  Biso   1.000  H
  H303     1.0000 0.36580  0.77180  0.21450  Biso   1.000  H
  H304     1.0000 0.39670  0.72420  0.20670  Biso   1.000  H
  C248     1.0000 0.19510  0.72100  0.26320  Biso   1.000  C
  H305     1.0000 0.18690  0.75430  0.25570  Biso   1.000  H
  C249     1.0000 0.15610  0.68400  0.25770  Biso   1.000  C
  H306     1.0000 0.15320  0.67780  0.23560  Biso   1.000  H
  H307     1.0000 0.16450  0.65380  0.26830  Biso   1.000  H
  H308     1.0000 0.12520  0.69620  0.26560  Biso   1.000  H
  C250     1.0000 0.20080  0.71750  0.29830  Biso   1.000  C
  H309     1.0000 0.22490  0.74120  0.30530  Biso   1.000  H
  H310     1.0000 0.16960  0.72420  0.30820  Biso   1.000  H
  H311     1.0000 0.21160  0.68480  0.30380  Biso   1.000  H
  C251     1.0000 0.00623  0.88570  0.09935  Biso   1.000  C
  C252     1.0000 0.96260  0.87180  0.11102  Biso   1.000  C
  C253     1.0000 0.92250  0.87240  0.09288  Biso   1.000  C
  H312     1.0000 0.89210  0.86270  0.10100  Biso   1.000  H
  C254     1.0000 0.92590  0.88690  0.06306  Biso   1.000  C
  H313     1.0000 0.89790  0.88740  0.05040  Biso   1.000  H
  C255     1.0000 0.96950  0.90090  0.05138  Biso   1.000  C
  H314     1.0000 0.97190  0.91100  0.03060  Biso   1.000  H
  C256     1.0000 0.00965  0.90030  0.06953  Biso   1.000  C
  C257     1.0000 0.05860  0.91580  0.05730  Biso   1.000  C
  H315     1.0000 0.08460  0.90830  0.07260  Biso   1.000  H
  C258     1.0000 0.07120  0.89430  0.02590  Biso   1.000  C
  H316     1.0000 0.07150  0.85890  0.02740  Biso   1.000  H
  H317     1.0000 0.04690  0.90450  0.01080  Biso   1.000  H
  H318     1.0000 0.10330  0.90590  0.01950  Biso   1.000  H
  C259     1.0000 0.06370  0.96700  0.04580  Biso   1.000  C
  H319     1.0000 0.09700  0.97230  0.03880  Biso   1.000  H
  H320     1.0000 0.04120  0.97230  0.02870  Biso   1.000  H
  H321     1.0000 0.05620  0.98970  0.06250  Biso   1.000  H
  C260     1.0000 0.27910  0.93160  0.08750  Biso   1.000  C
  H322     1.0000 0.30370  0.93240  0.10270  Biso   1.000  H
  C261     1.0000 0.28310  0.96100  0.06230  Biso   1.000  C
  H323     1.0000 0.30900  0.98360  0.06060  Biso   1.000  H
  C262     1.0000 0.24760  0.95710  0.03861  Biso   1.000  C
  C263     1.0000 0.25230  0.98900  0.01037  Biso   1.000  C
  C264     1.0000 0.21130  0.92510  0.04218  Biso   1.000  C
  H324     1.0000 0.18780  0.92130  0.02640  Biso   1.000  H
  C265     1.0000 0.20840  0.89770  0.06880  Biso   1.000  C
  H325     1.0000 0.18230  0.87550  0.07140  Biso   1.000  H
  C266     1.0000 0.23140  0.00640  0.95843  Biso   1.000  C
  H326     1.0000 0.21450  0.99700  0.94030  Biso   1.000  H
  C267     1.0000 0.23150  0.97570  0.98330  Biso   1.000  C
  H327     1.0000 0.21670  0.94470  0.98160  Biso   1.000  H
  C268     1.0000 0.27660  0.03170  0.01120  Biso   1.000  C
  H328     1.0000 0.29360  0.04140  0.02920  Biso   1.000  H
  C269     1.0000 0.27630  0.06160  0.98494  Biso   1.000  C
  H329     1.0000 0.29240  0.09200  0.98580  Biso   1.000  H
  N15      1.0000 0.24160  0.90220  0.09096  Biso   1.000  N
  N16      1.0000 0.25410  0.04860  0.95885  Biso   1.000  N
  O64      1.0000 0.04670  0.88500  0.11800  Biso   1.000  O
  O65      1.0000 0.13297  0.85572  0.11928  Biso   1.000  O
  O66      1.0000 0.07070  0.81630  0.15234  Biso   1.000  O
  O67      1.0000 0.06730  0.80470  0.09511  Biso   1.000  O
  O68      1.0000 0.23990  0.76290  0.21117  Biso   1.000  O
  O69      1.0000 0.21887  0.80130  0.16154  Biso   1.000  O
  O70      1.0000 0.15374  0.76320  0.19326  Biso   1.000  O
  O71      1.0000 0.21500  0.71050  0.16688  Biso   1.000  O
  O72      1.0000 0.23650  0.87640  0.11684  Biso   1.000  O
  P15      1.0000 0.08209  0.83592  0.12129  Biso   1.000  P
  P16      1.0000 0.20382  0.75889  0.18076  Biso   1.000  P
  Zn15     1.0000 0.19137  0.81648  0.12193  Biso   1.000  Zn
  Zn16     1.0000 0.09437  0.75624  0.16951  Biso   1.000  Zn
  C270     1.0000 0.95720  0.85650  0.14450  Biso   1.000  C
  H330     1.0000 0.98930  0.85910  0.15500  Biso   1.000  H
  C271     1.0000 0.94120  0.80310  0.14400  Biso   1.000  C
  H331     1.0000 0.93720  0.79150  0.16520  Biso   1.000  H
  H332     1.0000 0.91030  0.80020  0.13310  Biso   1.000  H
  H333     1.0000 0.96590  0.78360  0.13360  Biso   1.000  H
  C272     1.0000 0.92090  0.89310  0.15960  Biso   1.000  C
  H334     1.0000 0.93320  0.92620  0.15700  Biso   1.000  H
  H335     1.0000 0.88920  0.89030  0.14950  Biso   1.000  H
  H336     1.0000 0.91760  0.88570  0.18150  Biso   1.000  H
  C273     1.0000 0.27860  0.23970  0.47346  Biso   1.000  C
  C274     1.0000 0.29980  0.25890  0.49959  Biso   1.000  C
  C275     1.0000 0.33850  0.23540  0.51330  Biso   1.000  C
  H337     1.0000 0.35310  0.24860  0.53120  Biso   1.000  H
  C276     1.0000 0.35600  0.19260  0.50090  Biso   1.000  C
  H338     1.0000 0.38250  0.17640  0.51030  Biso   1.000  H
  C277     1.0000 0.33470  0.17330  0.47480  Biso   1.000  C
  H339     1.0000 0.34670  0.14400  0.46630  Biso   1.000  H
  C278     1.0000 0.29600  0.19690  0.46100  Biso   1.000  C
  C279     1.0000 0.27270  0.16810  0.43250  Biso   1.000  C
  H340     1.0000 0.24380  0.18830  0.42710  Biso   1.000  H
  C280     1.0000 0.29540  0.15660  0.40080  Biso   1.000  C
  H341     1.0000 0.27120  0.14040  0.38780  Biso   1.000  H
  H342     1.0000 0.32340  0.13520  0.40360  Biso   1.000  H
  H343     1.0000 0.30580  0.18680  0.39100  Biso   1.000  H
  C281     1.0000 0.25010  0.12360  0.44800  Biso   1.000  C
  H344     1.0000 0.23180  0.10490  0.43270  Biso   1.000  H
  H345     1.0000 0.22820  0.13420  0.46450  Biso   1.000  H
  H346     1.0000 0.27580  0.10330  0.45670  Biso   1.000  H
  C282     1.0000 0.27900  0.30490  0.51320  Biso   1.000  C
  H347     1.0000 0.24570  0.31310  0.50570  Biso   1.000  H
  C283     1.0000 0.31600  0.34390  0.50770  Biso   1.000  C
  H348     1.0000 0.32220  0.34680  0.48560  Biso   1.000  H
  H349     1.0000 0.34620  0.33550  0.51830  Biso   1.000  H
  H350     1.0000 0.30380  0.37480  0.51560  Biso   1.000  H
  C284     1.0000 0.28250  0.29920  0.54830  Biso   1.000  C
  H351     1.0000 0.25880  0.27510  0.55530  Biso   1.000  H
  H352     1.0000 0.27580  0.33040  0.55820  Biso   1.000  H
  H353     1.0000 0.31520  0.28840  0.55380  Biso   1.000  H
  C285     1.0000 0.11430  0.49377  0.34935  Biso   1.000  C
  C286     1.0000 0.12820  0.53740  0.36102  Biso   1.000  C
  C287     1.0000 0.12760  0.57750  0.34288  Biso   1.000  C
  H354     1.0000 0.13730  0.60790  0.35100  Biso   1.000  H
  C288     1.0000 0.11310  0.57410  0.31306  Biso   1.000  C
  H355     1.0000 0.11260  0.60210  0.30040  Biso   1.000  H
  C289     1.0000 0.09910  0.53050  0.30138  Biso   1.000  C
  H356     1.0000 0.08900  0.52810  0.28060  Biso   1.000  H
  C290     1.0000 0.09970  0.49035  0.31953  Biso   1.000  C
  C291     1.0000 0.08420  0.44140  0.30730  Biso   1.000  C
  H357     1.0000 0.09170  0.41540  0.32260  Biso   1.000  H
  C292     1.0000 0.10570  0.42880  0.27590  Biso   1.000  C
  H358     1.0000 0.14110  0.42850  0.27740  Biso   1.000  H
  H359     1.0000 0.09550  0.45310  0.26080  Biso   1.000  H
  H360     1.0000 0.09410  0.39670  0.26950  Biso   1.000  H
  C293     1.0000 0.03300  0.43630  0.29580  Biso   1.000  C
  H361     1.0000 0.02770  0.40300  0.28880  Biso   1.000  H
  H362     1.0000 0.02770  0.45880  0.27870  Biso   1.000  H
  H363     1.0000 0.01030  0.44380  0.31250  Biso   1.000  H
  C294     1.0000 0.06840  0.22090  0.33750  Biso   1.000  C
  H364     1.0000 0.06760  0.19630  0.35270  Biso   1.000  H
  C295     1.0000 0.03900  0.21690  0.31230  Biso   1.000  C
  H365     1.0000 0.01640  0.19100  0.31060  Biso   1.000  H
  C296     1.0000 0.04290  0.25240  0.28861  Biso   1.000  C
  C297     1.0000 0.01100  0.24770  0.26037  Biso   1.000  C
  C298     1.0000 0.07490  0.28870  0.29218  Biso   1.000  C
  H366     1.0000 0.07870  0.31220  0.27640  Biso   1.000  H
  C299     1.0000 0.10230  0.29160  0.31880  Biso   1.000  C
  H367     1.0000 0.12450  0.31770  0.32140  Biso   1.000  H
  C300     1.0000 0.99360  0.26860  0.20843  Biso   1.000  C
  H368     1.0000 0.00300  0.28550  0.19030  Biso   1.000  H
  C301     1.0000 0.02430  0.26850  0.23330  Biso   1.000  C
  H369     1.0000 0.05530  0.28330  0.23160  Biso   1.000  H
  C302     1.0000 0.96830  0.22340  0.26120  Biso   1.000  C
  H370     1.0000 0.95860  0.20640  0.27920  Biso   1.000  H
  C303     1.0000 0.93840  0.22370  0.23494  Biso   1.000  C
  H371     1.0000 0.90800  0.20760  0.23580  Biso   1.000  H
  N17      1.0000 0.09780  0.25840  0.34096  Biso   1.000  N
  N18      1.0000 0.95140  0.24590  0.20885  Biso   1.000  N
  O73      1.0000 0.11500  0.45330  0.36800  Biso   1.000  O
  O74      1.0000 0.14428  0.36703  0.36928  Biso   1.000  O
  O75      1.0000 0.18370  0.42930  0.40234  Biso   1.000  O
  O76      1.0000 0.19530  0.43270  0.34511  Biso   1.000  O
  O77      1.0000 0.23710  0.26010  0.46117  Biso   1.000  O
  O78      1.0000 0.19870  0.28113  0.41154  Biso   1.000  O
  O79      1.0000 0.23680  0.34626  0.44326  Biso   1.000  O
  O80      1.0000 0.28950  0.28500  0.41688  Biso   1.000  O
  O81      1.0000 0.12360  0.26350  0.36684  Biso   1.000  O
  P17      1.0000 0.16408  0.41791  0.37129  Biso   1.000  P
  P18      1.0000 0.24111  0.29618  0.43076  Biso   1.000  P
  Zn17     1.0000 0.18352  0.30863  0.37193  Biso   1.000  Zn
  Zn18     1.0000 0.24376  0.40563  0.41951  Biso   1.000  Zn
  C304     1.0000 0.14350  0.54280  0.39450  Biso   1.000  C
  H372     1.0000 0.14090  0.51070  0.40500  Biso   1.000  H
  C305     1.0000 0.19690  0.55880  0.39400  Biso   1.000  C
  H373     1.0000 0.20850  0.56280  0.41520  Biso   1.000  H
  H374     1.0000 0.19980  0.58970  0.38310  Biso   1.000  H
  H375     1.0000 0.21640  0.53410  0.38360  Biso   1.000  H
  C306     1.0000 0.10690  0.57910  0.40960  Biso   1.000  C
  H376     1.0000 0.07380  0.56680  0.40700  Biso   1.000  H
  H377     1.0000 0.10970  0.61080  0.39950  Biso   1.000  H
  H378     1.0000 0.11430  0.58240  0.43150  Biso   1.000  H
  C307     1.0000 0.77860  0.73970  0.97346  Biso   1.000  C
  C308     1.0000 0.79980  0.75890  0.99959  Biso   1.000  C
  C309     1.0000 0.83850  0.73540  0.01330  Biso   1.000  C
  H379     1.0000 0.85310  0.74860  0.03120  Biso   1.000  H
  C310     1.0000 0.85600  0.69260  0.00090  Biso   1.000  C
  H380     1.0000 0.88250  0.67640  0.01030  Biso   1.000  H
  C311     1.0000 0.83470  0.67330  0.97480  Biso   1.000  C
  H381     1.0000 0.84670  0.64400  0.96630  Biso   1.000  H
  C312     1.0000 0.79600  0.69690  0.96100  Biso   1.000  C
  C313     1.0000 0.77270  0.66810  0.93250  Biso   1.000  C
  H382     1.0000 0.74380  0.68830  0.92710  Biso   1.000  H
  C314     1.0000 0.79540  0.65660  0.90080  Biso   1.000  C
  H383     1.0000 0.77120  0.64040  0.88780  Biso   1.000  H
  H384     1.0000 0.82340  0.63520  0.90360  Biso   1.000  H
  H385     1.0000 0.80580  0.68680  0.89100  Biso   1.000  H
  C315     1.0000 0.75010  0.62360  0.94800  Biso   1.000  C
  H386     1.0000 0.73180  0.60490  0.93270  Biso   1.000  H
  H387     1.0000 0.72820  0.63420  0.96450  Biso   1.000  H
  H388     1.0000 0.77580  0.60330  0.95670  Biso   1.000  H
  C316     1.0000 0.77900  0.80490  0.01320  Biso   1.000  C
  H389     1.0000 0.74570  0.81310  0.00570  Biso   1.000  H
  C317     1.0000 0.81600  0.84390  0.00770  Biso   1.000  C
  H390     1.0000 0.82220  0.84680  0.98560  Biso   1.000  H
  H391     1.0000 0.84620  0.83550  0.01830  Biso   1.000  H
  H392     1.0000 0.80380  0.87480  0.01560  Biso   1.000  H
  C318     1.0000 0.78250  0.79920  0.04830  Biso   1.000  C
  H393     1.0000 0.75880  0.77510  0.05530  Biso   1.000  H
  H394     1.0000 0.77580  0.83040  0.05820  Biso   1.000  H
  H395     1.0000 0.81520  0.78840  0.05380  Biso   1.000  H
  C319     1.0000 0.61430  0.99377  0.84935  Biso   1.000  C
  C320     1.0000 0.62820  0.03740  0.86102  Biso   1.000  C
  C321     1.0000 0.62760  0.07750  0.84288  Biso   1.000  C
  H396     1.0000 0.63730  0.10790  0.85100  Biso   1.000  H
  C322     1.0000 0.61310  0.07410  0.81306  Biso   1.000  C
  H397     1.0000 0.61260  0.10210  0.80040  Biso   1.000  H
  C323     1.0000 0.59910  0.03050  0.80138  Biso   1.000  C
  H398     1.0000 0.58900  0.02810  0.78060  Biso   1.000  H
  C324     1.0000 0.59970  0.99035  0.81953  Biso   1.000  C
  C325     1.0000 0.58420  0.94140  0.80730  Biso   1.000  C
  H399     1.0000 0.59170  0.91540  0.82260  Biso   1.000  H
  C326     1.0000 0.60570  0.92880  0.77590  Biso   1.000  C
  H400     1.0000 0.64110  0.92850  0.77740  Biso   1.000  H
  H401     1.0000 0.59550  0.95310  0.76080  Biso   1.000  H
  H402     1.0000 0.59410  0.89670  0.76950  Biso   1.000  H
  C327     1.0000 0.53300  0.93630  0.79580  Biso   1.000  C
  H403     1.0000 0.52770  0.90300  0.78880  Biso   1.000  H
  H404     1.0000 0.52770  0.95880  0.77870  Biso   1.000  H
  H405     1.0000 0.51030  0.94380  0.81250  Biso   1.000  H
  C328     1.0000 0.56840  0.72090  0.83750  Biso   1.000  C
  H406     1.0000 0.56760  0.69630  0.85270  Biso   1.000  H
  C329     1.0000 0.53900  0.71690  0.81230  Biso   1.000  C
  H407     1.0000 0.51640  0.69100  0.81060  Biso   1.000  H
  C330     1.0000 0.54290  0.75240  0.78861  Biso   1.000  C
  C331     1.0000 0.51100  0.74770  0.76037  Biso   1.000  C
  C332     1.0000 0.57490  0.78870  0.79218  Biso   1.000  C
  H408     1.0000 0.57870  0.81220  0.77640  Biso   1.000  H
  C333     1.0000 0.60230  0.79160  0.81880  Biso   1.000  C
  H409     1.0000 0.62450  0.81770  0.82140  Biso   1.000  H
  C334     1.0000 0.49360  0.76860  0.70843  Biso   1.000  C
  H410     1.0000 0.50300  0.78550  0.69030  Biso   1.000  H
  C335     1.0000 0.52430  0.76850  0.73330  Biso   1.000  C
  H411     1.0000 0.55530  0.78330  0.73160  Biso   1.000  H
  C336     1.0000 0.46830  0.72340  0.76120  Biso   1.000  C
  H412     1.0000 0.45860  0.70640  0.77920  Biso   1.000  H
  C337     1.0000 0.43840  0.72370  0.73494  Biso   1.000  C
  H413     1.0000 0.40800  0.70760  0.73580  Biso   1.000  H
  N19      1.0000 0.59780  0.75840  0.84096  Biso   1.000  N
  N20      1.0000 0.45140  0.74590  0.70885  Biso   1.000  N
  O82      1.0000 0.61500  0.95330  0.86800  Biso   1.000  O
  O83      1.0000 0.64428  0.86703  0.86928  Biso   1.000  O
  O84      1.0000 0.68370  0.92930  0.90234  Biso   1.000  O
  O85      1.0000 0.69530  0.93270  0.84511  Biso   1.000  O
  O86      1.0000 0.73710  0.76010  0.96117  Biso   1.000  O
  O87      1.0000 0.69870  0.78113  0.91154  Biso   1.000  O
  O88      1.0000 0.73680  0.84626  0.94326  Biso   1.000  O
  O89      1.0000 0.78950  0.78500  0.91688  Biso   1.000  O
  O90      1.0000 0.62360  0.76350  0.86684  Biso   1.000  O
  P19      1.0000 0.66408  0.91791  0.87129  Biso   1.000  P
  P20      1.0000 0.74111  0.79618  0.93076  Biso   1.000  P
  Zn19     1.0000 0.68352  0.80863  0.87193  Biso   1.000  Zn
  Zn20     1.0000 0.74376  0.90563  0.91951  Biso   1.000  Zn
  C338     1.0000 0.64350  0.04280  0.89450  Biso   1.000  C
  H414     1.0000 0.64090  0.01070  0.90500  Biso   1.000  H
  C339     1.0000 0.69690  0.05880  0.89400  Biso   1.000  C
  H415     1.0000 0.70850  0.06280  0.91520  Biso   1.000  H
  H416     1.0000 0.69980  0.08970  0.88310  Biso   1.000  H
  H417     1.0000 0.71640  0.03410  0.88360  Biso   1.000  H
  C340     1.0000 0.60690  0.07910  0.90960  Biso   1.000  C
  H418     1.0000 0.57380  0.06680  0.90700  Biso   1.000  H
  H419     1.0000 0.60970  0.11080  0.89950  Biso   1.000  H
  H420     1.0000 0.61430  0.08240  0.93150  Biso   1.000  H
  C341     1.0000 0.72140  0.76030  0.47346  Biso   1.000  C
  C342     1.0000 0.70020  0.74110  0.49959  Biso   1.000  C
  C343     1.0000 0.66150  0.76460  0.51330  Biso   1.000  C
  H421     1.0000 0.64690  0.75140  0.53120  Biso   1.000  H
  C344     1.0000 0.64400  0.80740  0.50090  Biso   1.000  C
  H422     1.0000 0.61750  0.82360  0.51030  Biso   1.000  H
  C345     1.0000 0.66530  0.82670  0.47480  Biso   1.000  C
  H423     1.0000 0.65330  0.85600  0.46630  Biso   1.000  H
  C346     1.0000 0.70400  0.80310  0.46100  Biso   1.000  C
  C347     1.0000 0.72730  0.83190  0.43250  Biso   1.000  C
  H424     1.0000 0.75620  0.81170  0.42710  Biso   1.000  H
  C348     1.0000 0.70460  0.84340  0.40080  Biso   1.000  C
  H425     1.0000 0.72880  0.85960  0.38780  Biso   1.000  H
  H426     1.0000 0.67660  0.86480  0.40360  Biso   1.000  H
  H427     1.0000 0.69420  0.81320  0.39100  Biso   1.000  H
  C349     1.0000 0.74990  0.87640  0.44800  Biso   1.000  C
  H428     1.0000 0.76820  0.89510  0.43270  Biso   1.000  H
  H429     1.0000 0.77180  0.86580  0.46450  Biso   1.000  H
  H430     1.0000 0.72420  0.89670  0.45670  Biso   1.000  H
  C350     1.0000 0.72100  0.69510  0.51320  Biso   1.000  C
  H431     1.0000 0.75430  0.68690  0.50570  Biso   1.000  H
  C351     1.0000 0.68400  0.65610  0.50770  Biso   1.000  C
  H432     1.0000 0.67780  0.65320  0.48560  Biso   1.000  H
  H433     1.0000 0.65380  0.66450  0.51830  Biso   1.000  H
  H434     1.0000 0.69620  0.62520  0.51560  Biso   1.000  H
  C352     1.0000 0.71750  0.70080  0.54830  Biso   1.000  C
  H435     1.0000 0.74120  0.72490  0.55530  Biso   1.000  H
  H436     1.0000 0.72420  0.66960  0.55820  Biso   1.000  H
  H437     1.0000 0.68480  0.71160  0.55380  Biso   1.000  H
  C353     1.0000 0.88570  0.50623  0.34935  Biso   1.000  C
  C354     1.0000 0.87180  0.46260  0.36102  Biso   1.000  C
  C355     1.0000 0.87240  0.42250  0.34288  Biso   1.000  C
  H438     1.0000 0.86270  0.39210  0.35100  Biso   1.000  H
  C356     1.0000 0.88690  0.42590  0.31306  Biso   1.000  C
  H439     1.0000 0.88740  0.39790  0.30040  Biso   1.000  H
  C357     1.0000 0.90090  0.46950  0.30138  Biso   1.000  C
  H440     1.0000 0.91100  0.47190  0.28060  Biso   1.000  H
  C358     1.0000 0.90030  0.50965  0.31953  Biso   1.000  C
  C359     1.0000 0.91580  0.55860  0.30730  Biso   1.000  C
  H441     1.0000 0.90830  0.58460  0.32260  Biso   1.000  H
  C360     1.0000 0.89430  0.57120  0.27590  Biso   1.000  C
  H442     1.0000 0.85890  0.57150  0.27740  Biso   1.000  H
  H443     1.0000 0.90450  0.54690  0.26080  Biso   1.000  H
  H444     1.0000 0.90590  0.60330  0.26950  Biso   1.000  H
  C361     1.0000 0.96700  0.56370  0.29580  Biso   1.000  C
  H445     1.0000 0.97230  0.59700  0.28880  Biso   1.000  H
  H446     1.0000 0.97230  0.54120  0.27870  Biso   1.000  H
  H447     1.0000 0.98970  0.55620  0.31250  Biso   1.000  H
  C362     1.0000 0.93160  0.77910  0.33750  Biso   1.000  C
  H448     1.0000 0.93240  0.80370  0.35270  Biso   1.000  H
  C363     1.0000 0.96100  0.78310  0.31230  Biso   1.000  C
  H449     1.0000 0.98360  0.80900  0.31060  Biso   1.000  H
  C364     1.0000 0.95710  0.74760  0.28861  Biso   1.000  C
  C365     1.0000 0.98900  0.75230  0.26037  Biso   1.000  C
  C366     1.0000 0.92510  0.71130  0.29218  Biso   1.000  C
  H450     1.0000 0.92130  0.68780  0.27640  Biso   1.000  H
  C367     1.0000 0.89770  0.70840  0.31880  Biso   1.000  C
  H451     1.0000 0.87550  0.68230  0.32140  Biso   1.000  H
  C368     1.0000 0.00640  0.73140  0.20843  Biso   1.000  C
  H452     1.0000 0.99700  0.71450  0.19030  Biso   1.000  H
  C369     1.0000 0.97570  0.73150  0.23330  Biso   1.000  C
  H453     1.0000 0.94470  0.71670  0.23160  Biso   1.000  H
  C370     1.0000 0.03170  0.77660  0.26120  Biso   1.000  C
  H454     1.0000 0.04140  0.79360  0.27920  Biso   1.000  H
  C371     1.0000 0.06160  0.77630  0.23494  Biso   1.000  C
  H455     1.0000 0.09200  0.79240  0.23580  Biso   1.000  H
  N21      1.0000 0.90220  0.74160  0.34096  Biso   1.000  N
  N22      1.0000 0.04860  0.75410  0.20885  Biso   1.000  N
  O91      1.0000 0.88500  0.54670  0.36800  Biso   1.000  O
  O92      1.0000 0.85572  0.63297  0.36928  Biso   1.000  O
  O93      1.0000 0.81630  0.57070  0.40234  Biso   1.000  O
  O94      1.0000 0.80470  0.56730  0.34511  Biso   1.000  O
  O95      1.0000 0.76290  0.73990  0.46117  Biso   1.000  O
  O96      1.0000 0.80130  0.71887  0.41154  Biso   1.000  O
  O97      1.0000 0.76320  0.65374  0.44326  Biso   1.000  O
  O98      1.0000 0.71050  0.71500  0.41688  Biso   1.000  O
  O99      1.0000 0.87640  0.73650  0.36684  Biso   1.000  O
  P21      1.0000 0.83592  0.58209  0.37129  Biso   1.000  P
  P22      1.0000 0.75889  0.70382  0.43076  Biso   1.000  P
  Zn21     1.0000 0.81648  0.69137  0.37193  Biso   1.000  Zn
  Zn22     1.0000 0.75624  0.59437  0.41951  Biso   1.000  Zn
  C372     1.0000 0.85650  0.45720  0.39450  Biso   1.000  C
  H456     1.0000 0.85910  0.48930  0.40500  Biso   1.000  H
  C373     1.0000 0.80310  0.44120  0.39400  Biso   1.000  C
  H457     1.0000 0.79150  0.43720  0.41520  Biso   1.000  H
  H458     1.0000 0.80020  0.41030  0.38310  Biso   1.000  H
  H459     1.0000 0.78360  0.46590  0.38360  Biso   1.000  H
  C374     1.0000 0.89310  0.42090  0.40960  Biso   1.000  C
  H460     1.0000 0.92620  0.43320  0.40700  Biso   1.000  H
  H461     1.0000 0.89030  0.38920  0.39950  Biso   1.000  H
  H462     1.0000 0.88570  0.41760  0.43150  Biso   1.000  H
  C375     1.0000 0.22140  0.26030  0.97346  Biso   1.000  C
  C376     1.0000 0.20020  0.24110  0.99959  Biso   1.000  C
  C377     1.0000 0.16150  0.26460  0.01330  Biso   1.000  C
  H463     1.0000 0.14690  0.25140  0.03120  Biso   1.000  H
  C378     1.0000 0.14400  0.30740  0.00090  Biso   1.000  C
  H464     1.0000 0.11750  0.32360  0.01030  Biso   1.000  H
  C379     1.0000 0.16530  0.32670  0.97480  Biso   1.000  C
  H465     1.0000 0.15330  0.35600  0.96630  Biso   1.000  H
  C380     1.0000 0.20400  0.30310  0.96100  Biso   1.000  C
  C381     1.0000 0.22730  0.33190  0.93250  Biso   1.000  C
  H466     1.0000 0.25620  0.31170  0.92710  Biso   1.000  H
  C382     1.0000 0.20460  0.34340  0.90080  Biso   1.000  C
  H467     1.0000 0.22880  0.35960  0.88780  Biso   1.000  H
  H468     1.0000 0.17660  0.36480  0.90360  Biso   1.000  H
  H469     1.0000 0.19420  0.31320  0.89100  Biso   1.000  H
  C383     1.0000 0.24990  0.37640  0.94800  Biso   1.000  C
  H470     1.0000 0.26820  0.39510  0.93270  Biso   1.000  H
  H471     1.0000 0.27180  0.36580  0.96450  Biso   1.000  H
  H472     1.0000 0.22420  0.39670  0.95670  Biso   1.000  H
  C384     1.0000 0.22100  0.19510  0.01320  Biso   1.000  C
  H473     1.0000 0.25430  0.18690  0.00570  Biso   1.000  H
  C385     1.0000 0.18400  0.15610  0.00770  Biso   1.000  C
  H474     1.0000 0.17780  0.15320  0.98560  Biso   1.000  H
  H475     1.0000 0.15380  0.16450  0.01830  Biso   1.000  H
  H476     1.0000 0.19620  0.12520  0.01560  Biso   1.000  H
  C386     1.0000 0.21750  0.20080  0.04830  Biso   1.000  C
  H477     1.0000 0.24120  0.22490  0.05530  Biso   1.000  H
  H478     1.0000 0.22420  0.16960  0.05820  Biso   1.000  H
  H479     1.0000 0.18480  0.21160  0.05380  Biso   1.000  H
  C387     1.0000 0.38570  0.00623  0.84935  Biso   1.000  C
  C388     1.0000 0.37180  0.96260  0.86102  Biso   1.000  C
  C389     1.0000 0.37240  0.92250  0.84288  Biso   1.000  C
  H480     1.0000 0.36270  0.89210  0.85100  Biso   1.000  H
  C390     1.0000 0.38690  0.92590  0.81306  Biso   1.000  C
  H481     1.0000 0.38740  0.89790  0.80040  Biso   1.000  H
  C391     1.0000 0.40090  0.96950  0.80138  Biso   1.000  C
  H482     1.0000 0.41100  0.97190  0.78060  Biso   1.000  H
  C392     1.0000 0.40030  0.00965  0.81953  Biso   1.000  C
  C393     1.0000 0.41580  0.05860  0.80730  Biso   1.000  C
  H483     1.0000 0.40830  0.08460  0.82260  Biso   1.000  H
  C394     1.0000 0.39430  0.07120  0.77590  Biso   1.000  C
  H484     1.0000 0.35890  0.07150  0.77740  Biso   1.000  H
  H485     1.0000 0.40450  0.04690  0.76080  Biso   1.000  H
  H486     1.0000 0.40590  0.10330  0.76950  Biso   1.000  H
  C395     1.0000 0.46700  0.06370  0.79580  Biso   1.000  C
  H487     1.0000 0.47230  0.09700  0.78880  Biso   1.000  H
  H488     1.0000 0.47230  0.04120  0.77870  Biso   1.000  H
  H489     1.0000 0.48970  0.05620  0.81250  Biso   1.000  H
  C396     1.0000 0.43160  0.27910  0.83750  Biso   1.000  C
  H490     1.0000 0.43240  0.30370  0.85270  Biso   1.000  H
  C397     1.0000 0.46100  0.28310  0.81230  Biso   1.000  C
  H491     1.0000 0.48360  0.30900  0.81060  Biso   1.000  H
  C398     1.0000 0.45710  0.24760  0.78861  Biso   1.000  C
  C399     1.0000 0.48900  0.25230  0.76037  Biso   1.000  C
  C400     1.0000 0.42510  0.21130  0.79218  Biso   1.000  C
  H492     1.0000 0.42130  0.18780  0.77640  Biso   1.000  H
  C401     1.0000 0.39770  0.20840  0.81880  Biso   1.000  C
  H493     1.0000 0.37550  0.18230  0.82140  Biso   1.000  H
  C402     1.0000 0.50640  0.23140  0.70843  Biso   1.000  C
  H494     1.0000 0.49700  0.21450  0.69030  Biso   1.000  H
  C403     1.0000 0.47570  0.23150  0.73330  Biso   1.000  C
  H495     1.0000 0.44470  0.21670  0.73160  Biso   1.000  H
  C404     1.0000 0.53170  0.27660  0.76120  Biso   1.000  C
  H496     1.0000 0.54140  0.29360  0.77920  Biso   1.000  H
  C405     1.0000 0.56160  0.27630  0.73494  Biso   1.000  C
  H497     1.0000 0.59200  0.29240  0.73580  Biso   1.000  H
  N23      1.0000 0.40220  0.24160  0.84096  Biso   1.000  N
  N24      1.0000 0.54860  0.25410  0.70885  Biso   1.000  N
  O100     1.0000 0.38500  0.04670  0.86800  Biso   1.000  O
  O101     1.0000 0.35572  0.13297  0.86928  Biso   1.000  O
  O102     1.0000 0.31630  0.07070  0.90234  Biso   1.000  O
  O103     1.0000 0.30470  0.06730  0.84511  Biso   1.000  O
  O104     1.0000 0.26290  0.23990  0.96117  Biso   1.000  O
  O105     1.0000 0.30130  0.21887  0.91154  Biso   1.000  O
  O106     1.0000 0.26320  0.15374  0.94326  Biso   1.000  O
  O107     1.0000 0.21050  0.21500  0.91688  Biso   1.000  O
  O108     1.0000 0.37640  0.23650  0.86684  Biso   1.000  O
  P23      1.0000 0.33592  0.08209  0.87129  Biso   1.000  P
  P24      1.0000 0.25889  0.20382  0.93076  Biso   1.000  P
  Zn23     1.0000 0.31648  0.19137  0.87193  Biso   1.000  Zn
  Zn24     1.0000 0.25624  0.09437  0.91951  Biso   1.000  Zn
  C406     1.0000 0.35650  0.95720  0.89450  Biso   1.000  C
  H498     1.0000 0.35910  0.98930  0.90500  Biso   1.000  H
  C407     1.0000 0.30310  0.94120  0.89400  Biso   1.000  C
  H499     1.0000 0.29150  0.93720  0.91520  Biso   1.000  H
  H500     1.0000 0.30020  0.91030  0.88310  Biso   1.000  H
  H501     1.0000 0.28360  0.96590  0.88360  Biso   1.000  H
  C408     1.0000 0.39310  0.92090  0.90960  Biso   1.000  C
  H502     1.0000 0.42620  0.93320  0.90700  Biso   1.000  H
  H503     1.0000 0.39030  0.88920  0.89950  Biso   1.000  H
  H504     1.0000 0.38570  0.91760  0.93150  Biso   1.000  H
  C409     1.0000 0.26030  0.77860  0.02654  Biso   1.000  C
  C410     1.0000 0.24110  0.79980  0.00041  Biso   1.000  C
  C411     1.0000 0.26460  0.83850  0.98670  Biso   1.000  C
  H505     1.0000 0.25140  0.85310  0.96880  Biso   1.000  H
  C412     1.0000 0.30740  0.85600  0.99910  Biso   1.000  C
  H506     1.0000 0.32360  0.88250  0.98970  Biso   1.000  H
  C413     1.0000 0.32670  0.83470  0.02520  Biso   1.000  C
  H507     1.0000 0.35600  0.84670  0.03370  Biso   1.000  H
  C414     1.0000 0.30310  0.79600  0.03900  Biso   1.000  C
  C415     1.0000 0.33190  0.77270  0.06750  Biso   1.000  C
  H508     1.0000 0.31170  0.74380  0.07290  Biso   1.000  H
  C416     1.0000 0.34340  0.79540  0.09920  Biso   1.000  C
  H509     1.0000 0.35960  0.77120  0.11220  Biso   1.000  H
  H510     1.0000 0.36480  0.82340  0.09640  Biso   1.000  H
  H511     1.0000 0.31320  0.80580  0.10900  Biso   1.000  H
  C417     1.0000 0.37640  0.75010  0.05200  Biso   1.000  C
  H512     1.0000 0.39510  0.73180  0.06730  Biso   1.000  H
  H513     1.0000 0.36580  0.72820  0.03550  Biso   1.000  H
  H514     1.0000 0.39670  0.77580  0.04330  Biso   1.000  H
  C418     1.0000 0.19510  0.77900  0.98680  Biso   1.000  C
  H515     1.0000 0.18690  0.74570  0.99430  Biso   1.000  H
  C419     1.0000 0.15610  0.81600  0.99230  Biso   1.000  C
  H516     1.0000 0.15320  0.82220  0.01440  Biso   1.000  H
  H517     1.0000 0.16450  0.84620  0.98170  Biso   1.000  H
  H518     1.0000 0.12520  0.80380  0.98440  Biso   1.000  H
  C420     1.0000 0.20080  0.78250  0.95170  Biso   1.000  C
  H519     1.0000 0.22490  0.75880  0.94470  Biso   1.000  H
  H520     1.0000 0.16960  0.77580  0.94180  Biso   1.000  H
  H521     1.0000 0.21160  0.81520  0.94620  Biso   1.000  H
  C421     1.0000 0.00623  0.61430  0.15065  Biso   1.000  C
  C422     1.0000 0.96260  0.62820  0.13898  Biso   1.000  C
  C423     1.0000 0.92250  0.62760  0.15712  Biso   1.000  C
  H522     1.0000 0.89210  0.63730  0.14900  Biso   1.000  H
  C424     1.0000 0.92590  0.61310  0.18694  Biso   1.000  C
  H523     1.0000 0.89790  0.61260  0.19960  Biso   1.000  H
  C425     1.0000 0.96950  0.59910  0.19862  Biso   1.000  C
  H524     1.0000 0.97190  0.58900  0.21940  Biso   1.000  H
  C426     1.0000 0.00965  0.59970  0.18047  Biso   1.000  C
  C427     1.0000 0.05860  0.58420  0.19270  Biso   1.000  C
  H525     1.0000 0.08460  0.59170  0.17740  Biso   1.000  H
  C428     1.0000 0.07120  0.60570  0.22410  Biso   1.000  C
  H526     1.0000 0.07150  0.64110  0.22260  Biso   1.000  H
  H527     1.0000 0.04690  0.59550  0.23920  Biso   1.000  H
  H528     1.0000 0.10330  0.59410  0.23050  Biso   1.000  H
  C429     1.0000 0.06370  0.53300  0.20420  Biso   1.000  C
  H529     1.0000 0.09700  0.52770  0.21120  Biso   1.000  H
  H530     1.0000 0.04120  0.52770  0.22130  Biso   1.000  H
  H531     1.0000 0.05620  0.51030  0.18750  Biso   1.000  H
  C430     1.0000 0.27910  0.56840  0.16250  Biso   1.000  C
  H532     1.0000 0.30370  0.56760  0.14730  Biso   1.000  H
  C431     1.0000 0.28310  0.53900  0.18770  Biso   1.000  C
  H533     1.0000 0.30900  0.51640  0.18940  Biso   1.000  H
  C432     1.0000 0.24760  0.54290  0.21139  Biso   1.000  C
  C433     1.0000 0.25230  0.51100  0.23963  Biso   1.000  C
  C434     1.0000 0.21130  0.57490  0.20782  Biso   1.000  C
  H534     1.0000 0.18780  0.57870  0.22360  Biso   1.000  H
  C435     1.0000 0.20840  0.60230  0.18120  Biso   1.000  C
  H535     1.0000 0.18230  0.62450  0.17860  Biso   1.000  H
  C436     1.0000 0.23140  0.49360  0.29157  Biso   1.000  C
  H536     1.0000 0.21450  0.50300  0.30970  Biso   1.000  H
  C437     1.0000 0.23150  0.52430  0.26670  Biso   1.000  C
  H537     1.0000 0.21670  0.55530  0.26840  Biso   1.000  H
  C438     1.0000 0.27660  0.46830  0.23880  Biso   1.000  C
  H538     1.0000 0.29360  0.45860  0.22080  Biso   1.000  H
  C439     1.0000 0.27630  0.43840  0.26506  Biso   1.000  C
  H539     1.0000 0.29240  0.40800  0.26420  Biso   1.000  H
  N25      1.0000 0.24160  0.59780  0.15904  Biso   1.000  N
  N26      1.0000 0.25410  0.45140  0.29115  Biso   1.000  N
  O109     1.0000 0.04670  0.61500  0.13200  Biso   1.000  O
  O110     1.0000 0.13297  0.64428  0.13072  Biso   1.000  O
  O111     1.0000 0.07070  0.68370  0.09766  Biso   1.000  O
  O112     1.0000 0.06730  0.69530  0.15489  Biso   1.000  O
  O113     1.0000 0.23990  0.73710  0.03883  Biso   1.000  O
  O114     1.0000 0.21887  0.69870  0.08846  Biso   1.000  O
  O115     1.0000 0.15374  0.73680  0.05674  Biso   1.000  O
  O116     1.0000 0.21500  0.78950  0.08312  Biso   1.000  O
  O117     1.0000 0.23650  0.62360  0.13316  Biso   1.000  O
  P25      1.0000 0.08209  0.66408  0.12871  Biso   1.000  P
  P26      1.0000 0.20382  0.74111  0.06924  Biso   1.000  P
  Zn25     1.0000 0.19137  0.68352  0.12807  Biso   1.000  Zn
  Zn26     1.0000 0.09437  0.74376  0.08049  Biso   1.000  Zn
  C440     1.0000 0.95720  0.64350  0.10550  Biso   1.000  C
  H540     1.0000 0.98930  0.64090  0.09500  Biso   1.000  H
  C441     1.0000 0.94120  0.69690  0.10600  Biso   1.000  C
  H541     1.0000 0.93720  0.70850  0.08480  Biso   1.000  H
  H542     1.0000 0.91030  0.69980  0.11690  Biso   1.000  H
  H543     1.0000 0.96590  0.71640  0.11640  Biso   1.000  H
  C442     1.0000 0.92090  0.60690  0.09040  Biso   1.000  C
  H544     1.0000 0.93320  0.57380  0.09300  Biso   1.000  H
  H545     1.0000 0.88920  0.60970  0.10050  Biso   1.000  H
  H546     1.0000 0.91760  0.61430  0.06850  Biso   1.000  H
  C443     1.0000 0.76030  0.27860  0.52654  Biso   1.000  C
  C444     1.0000 0.74110  0.29980  0.50041  Biso   1.000  C
  C445     1.0000 0.76460  0.33850  0.48670  Biso   1.000  C
  H547     1.0000 0.75140  0.35310  0.46880  Biso   1.000  H
  C446     1.0000 0.80740  0.35600  0.49910  Biso   1.000  C
  H548     1.0000 0.82360  0.38250  0.48970  Biso   1.000  H
  C447     1.0000 0.82670  0.33470  0.52520  Biso   1.000  C
  H549     1.0000 0.85600  0.34670  0.53370  Biso   1.000  H
  C448     1.0000 0.80310  0.29600  0.53900  Biso   1.000  C
  C449     1.0000 0.83190  0.27270  0.56750  Biso   1.000  C
  H550     1.0000 0.81170  0.24380  0.57290  Biso   1.000  H
  C450     1.0000 0.84340  0.29540  0.59920  Biso   1.000  C
  H551     1.0000 0.85960  0.27120  0.61220  Biso   1.000  H
  H552     1.0000 0.86480  0.32340  0.59640  Biso   1.000  H
  H553     1.0000 0.81320  0.30580  0.60900  Biso   1.000  H
  C451     1.0000 0.87640  0.25010  0.55200  Biso   1.000  C
  H554     1.0000 0.89510  0.23180  0.56730  Biso   1.000  H
  H555     1.0000 0.86580  0.22820  0.53550  Biso   1.000  H
  H556     1.0000 0.89670  0.27580  0.54330  Biso   1.000  H
  C452     1.0000 0.69510  0.27900  0.48680  Biso   1.000  C
  H557     1.0000 0.68690  0.24570  0.49430  Biso   1.000  H
  C453     1.0000 0.65610  0.31600  0.49230  Biso   1.000  C
  H558     1.0000 0.65320  0.32220  0.51440  Biso   1.000  H
  H559     1.0000 0.66450  0.34620  0.48170  Biso   1.000  H
  H560     1.0000 0.62520  0.30380  0.48440  Biso   1.000  H
  C454     1.0000 0.70080  0.28250  0.45170  Biso   1.000  C
  H561     1.0000 0.72490  0.25880  0.44470  Biso   1.000  H
  H562     1.0000 0.66960  0.27580  0.44180  Biso   1.000  H
  H563     1.0000 0.71160  0.31520  0.44620  Biso   1.000  H
  C455     1.0000 0.50623  0.11430  0.65065  Biso   1.000  C
  C456     1.0000 0.46260  0.12820  0.63898  Biso   1.000  C
  C457     1.0000 0.42250  0.12760  0.65712  Biso   1.000  C
  H564     1.0000 0.39210  0.13730  0.64900  Biso   1.000  H
  C458     1.0000 0.42590  0.11310  0.68694  Biso   1.000  C
  H565     1.0000 0.39790  0.11260  0.69960  Biso   1.000  H
  C459     1.0000 0.46950  0.09910  0.69862  Biso   1.000  C
  H566     1.0000 0.47190  0.08900  0.71940  Biso   1.000  H
  C460     1.0000 0.50965  0.09970  0.68047  Biso   1.000  C
  C461     1.0000 0.55860  0.08420  0.69270  Biso   1.000  C
  H567     1.0000 0.58460  0.09170  0.67740  Biso   1.000  H
  C462     1.0000 0.57120  0.10570  0.72410  Biso   1.000  C
  H568     1.0000 0.57150  0.14110  0.72260  Biso   1.000  H
  H569     1.0000 0.54690  0.09550  0.73920  Biso   1.000  H
  H570     1.0000 0.60330  0.09410  0.73050  Biso   1.000  H
  C463     1.0000 0.56370  0.03300  0.70420  Biso   1.000  C
  H571     1.0000 0.59700  0.02770  0.71120  Biso   1.000  H
  H572     1.0000 0.54120  0.02770  0.72130  Biso   1.000  H
  H573     1.0000 0.55620  0.01030  0.68750  Biso   1.000  H
  C464     1.0000 0.77910  0.06840  0.66250  Biso   1.000  C
  H574     1.0000 0.80370  0.06760  0.64730  Biso   1.000  H
  C465     1.0000 0.78310  0.03900  0.68770  Biso   1.000  C
  H575     1.0000 0.80900  0.01640  0.68940  Biso   1.000  H
  C466     1.0000 0.74760  0.04290  0.71139  Biso   1.000  C
  C467     1.0000 0.75230  0.01100  0.73963  Biso   1.000  C
  C468     1.0000 0.71130  0.07490  0.70782  Biso   1.000  C
  H576     1.0000 0.68780  0.07870  0.72360  Biso   1.000  H
  C469     1.0000 0.70840  0.10230  0.68120  Biso   1.000  C
  H577     1.0000 0.68230  0.12450  0.67860  Biso   1.000  H
  C470     1.0000 0.73140  0.99360  0.79157  Biso   1.000  C
  H578     1.0000 0.71450  0.00300  0.80970  Biso   1.000  H
  C471     1.0000 0.73150  0.02430  0.76670  Biso   1.000  C
  H579     1.0000 0.71670  0.05530  0.76840  Biso   1.000  H
  C472     1.0000 0.77660  0.96830  0.73880  Biso   1.000  C
  H580     1.0000 0.79360  0.95860  0.72080  Biso   1.000  H
  C473     1.0000 0.77630  0.93840  0.76506  Biso   1.000  C
  H581     1.0000 0.79240  0.90800  0.76420  Biso   1.000  H
  N27      1.0000 0.74160  0.09780  0.65904  Biso   1.000  N
  N28      1.0000 0.75410  0.95140  0.79115  Biso   1.000  N
  O118     1.0000 0.54670  0.11500  0.63200  Biso   1.000  O
  O119     1.0000 0.63297  0.14428  0.63072  Biso   1.000  O
  O120     1.0000 0.57070  0.18370  0.59766  Biso   1.000  O
  O121     1.0000 0.56730  0.19530  0.65489  Biso   1.000  O
  O122     1.0000 0.73990  0.23710  0.53883  Biso   1.000  O
  O123     1.0000 0.71887  0.19870  0.58846  Biso   1.000  O
  O124     1.0000 0.65374  0.23680  0.55674  Biso   1.000  O
  O125     1.0000 0.71500  0.28950  0.58312  Biso   1.000  O
  O126     1.0000 0.73650  0.12360  0.63316  Biso   1.000  O
  P27      1.0000 0.58209  0.16408  0.62871  Biso   1.000  P
  P28      1.0000 0.70382  0.24111  0.56924  Biso   1.000  P
  Zn27     1.0000 0.69137  0.18352  0.62807  Biso   1.000  Zn
  Zn28     1.0000 0.59437  0.24376  0.58049  Biso   1.000  Zn
  C474     1.0000 0.45720  0.14350  0.60550  Biso   1.000  C
  H582     1.0000 0.48930  0.14090  0.59500  Biso   1.000  H
  C475     1.0000 0.44120  0.19690  0.60600  Biso   1.000  C
  H583     1.0000 0.43720  0.20850  0.58480  Biso   1.000  H
  H584     1.0000 0.41030  0.19980  0.61690  Biso   1.000  H
  H585     1.0000 0.46590  0.21640  0.61640  Biso   1.000  H
  C476     1.0000 0.42090  0.10690  0.59040  Biso   1.000  C
  H586     1.0000 0.43320  0.07380  0.59300  Biso   1.000  H
  H587     1.0000 0.38920  0.10970  0.60050  Biso   1.000  H
  H588     1.0000 0.41760  0.11430  0.56850  Biso   1.000  H
  C477     1.0000 0.73970  0.22140  0.02654  Biso   1.000  C
  C478     1.0000 0.75890  0.20020  0.00041  Biso   1.000  C
  C479     1.0000 0.73540  0.16150  0.98670  Biso   1.000  C
  H589     1.0000 0.74860  0.14690  0.96880  Biso   1.000  H
  C480     1.0000 0.69260  0.14400  0.99910  Biso   1.000  C
  H590     1.0000 0.67640  0.11750  0.98970  Biso   1.000  H
  C481     1.0000 0.67330  0.16530  0.02520  Biso   1.000  C
  H591     1.0000 0.64400  0.15330  0.03370  Biso   1.000  H
  C482     1.0000 0.69690  0.20400  0.03900  Biso   1.000  C
  C483     1.0000 0.66810  0.22730  0.06750  Biso   1.000  C
  H592     1.0000 0.68830  0.25620  0.07290  Biso   1.000  H
  C484     1.0000 0.65660  0.20460  0.09920  Biso   1.000  C
  H593     1.0000 0.64040  0.22880  0.11220  Biso   1.000  H
  H594     1.0000 0.63520  0.17660  0.09640  Biso   1.000  H
  H595     1.0000 0.68680  0.19420  0.10900  Biso   1.000  H
  C485     1.0000 0.62360  0.24990  0.05200  Biso   1.000  C
  H596     1.0000 0.60490  0.26820  0.06730  Biso   1.000  H
  H597     1.0000 0.63420  0.27180  0.03550  Biso   1.000  H
  H598     1.0000 0.60330  0.22420  0.04330  Biso   1.000  H
  C486     1.0000 0.80490  0.22100  0.98680  Biso   1.000  C
  H599     1.0000 0.81310  0.25430  0.99430  Biso   1.000  H
  C487     1.0000 0.84390  0.18400  0.99230  Biso   1.000  C
  H600     1.0000 0.84680  0.17780  0.01440  Biso   1.000  H
  H601     1.0000 0.83550  0.15380  0.98170  Biso   1.000  H
  H602     1.0000 0.87480  0.19620  0.98440  Biso   1.000  H
  C488     1.0000 0.79920  0.21750  0.95170  Biso   1.000  C
  H603     1.0000 0.77510  0.24120  0.94470  Biso   1.000  H
  H604     1.0000 0.83040  0.22420  0.94180  Biso   1.000  H
  H605     1.0000 0.78840  0.18480  0.94620  Biso   1.000  H
  C489     1.0000 0.99377  0.38570  0.15065  Biso   1.000  C
  C490     1.0000 0.03740  0.37180  0.13898  Biso   1.000  C
  C491     1.0000 0.07750  0.37240  0.15712  Biso   1.000  C
  H606     1.0000 0.10790  0.36270  0.14900  Biso   1.000  H
  C492     1.0000 0.07410  0.38690  0.18694  Biso   1.000  C
  H607     1.0000 0.10210  0.38740  0.19960  Biso   1.000  H
  C493     1.0000 0.03050  0.40090  0.19862  Biso   1.000  C
  H608     1.0000 0.02810  0.41100  0.21940  Biso   1.000  H
  C494     1.0000 0.99035  0.40030  0.18047  Biso   1.000  C
  C495     1.0000 0.94140  0.41580  0.19270  Biso   1.000  C
  H609     1.0000 0.91540  0.40830  0.17740  Biso   1.000  H
  C496     1.0000 0.92880  0.39430  0.22410  Biso   1.000  C
  H610     1.0000 0.92850  0.35890  0.22260  Biso   1.000  H
  H611     1.0000 0.95310  0.40450  0.23920  Biso   1.000  H
  H612     1.0000 0.89670  0.40590  0.23050  Biso   1.000  H
  C497     1.0000 0.93630  0.46700  0.20420  Biso   1.000  C
  H613     1.0000 0.90300  0.47230  0.21120  Biso   1.000  H
  H614     1.0000 0.95880  0.47230  0.22130  Biso   1.000  H
  H615     1.0000 0.94380  0.48970  0.18750  Biso   1.000  H
  C498     1.0000 0.72090  0.43160  0.16250  Biso   1.000  C
  H616     1.0000 0.69630  0.43240  0.14730  Biso   1.000  H
  C499     1.0000 0.71690  0.46100  0.18770  Biso   1.000  C
  H617     1.0000 0.69100  0.48360  0.18940  Biso   1.000  H
  C500     1.0000 0.75240  0.45710  0.21139  Biso   1.000  C
  C501     1.0000 0.74770  0.48900  0.23963  Biso   1.000  C
  C502     1.0000 0.78870  0.42510  0.20782  Biso   1.000  C
  H618     1.0000 0.81220  0.42130  0.22360  Biso   1.000  H
  C503     1.0000 0.79160  0.39770  0.18120  Biso   1.000  C
  H619     1.0000 0.81770  0.37550  0.17860  Biso   1.000  H
  C504     1.0000 0.76860  0.50640  0.29157  Biso   1.000  C
  H620     1.0000 0.78550  0.49700  0.30970  Biso   1.000  H
  C505     1.0000 0.76850  0.47570  0.26670  Biso   1.000  C
  H621     1.0000 0.78330  0.44470  0.26840  Biso   1.000  H
  C506     1.0000 0.72340  0.53170  0.23880  Biso   1.000  C
  H622     1.0000 0.70640  0.54140  0.22080  Biso   1.000  H
  C507     1.0000 0.72370  0.56160  0.26506  Biso   1.000  C
  H623     1.0000 0.70760  0.59200  0.26420  Biso   1.000  H
  N29      1.0000 0.75840  0.40220  0.15904  Biso   1.000  N
  N30      1.0000 0.74590  0.54860  0.29115  Biso   1.000  N
  O127     1.0000 0.95330  0.38500  0.13200  Biso   1.000  O
  O128     1.0000 0.86703  0.35572  0.13072  Biso   1.000  O
  O129     1.0000 0.92930  0.31630  0.09766  Biso   1.000  O
  O130     1.0000 0.93270  0.30470  0.15489  Biso   1.000  O
  O131     1.0000 0.76010  0.26290  0.03883  Biso   1.000  O
  O132     1.0000 0.78113  0.30130  0.08846  Biso   1.000  O
  O133     1.0000 0.84626  0.26320  0.05674  Biso   1.000  O
  O134     1.0000 0.78500  0.21050  0.08312  Biso   1.000  O
  O135     1.0000 0.76350  0.37640  0.13316  Biso   1.000  O
  P29      1.0000 0.91791  0.33592  0.12871  Biso   1.000  P
  P30      1.0000 0.79618  0.25889  0.06924  Biso   1.000  P
  Zn29     1.0000 0.80863  0.31648  0.12807  Biso   1.000  Zn
  Zn30     1.0000 0.90563  0.25624  0.08049  Biso   1.000  Zn
  C508     1.0000 0.04280  0.35650  0.10550  Biso   1.000  C
  H624     1.0000 0.01070  0.35910  0.09500  Biso   1.000  H
  C509     1.0000 0.05880  0.30310  0.10600  Biso   1.000  C
  H625     1.0000 0.06280  0.29150  0.08480  Biso   1.000  H
  H626     1.0000 0.08970  0.30020  0.11690  Biso   1.000  H
  H627     1.0000 0.03410  0.28360  0.11640  Biso   1.000  H
  C510     1.0000 0.07910  0.39310  0.09040  Biso   1.000  C
  H628     1.0000 0.06680  0.42620  0.09300  Biso   1.000  H
  H629     1.0000 0.11080  0.39030  0.10050  Biso   1.000  H
  H630     1.0000 0.08240  0.38570  0.06850  Biso   1.000  H
  C511     1.0000 0.23970  0.72140  0.52654  Biso   1.000  C
  C512     1.0000 0.25890  0.70020  0.50041  Biso   1.000  C
  C513     1.0000 0.23540  0.66150  0.48670  Biso   1.000  C
  H631     1.0000 0.24860  0.64690  0.46880  Biso   1.000  H
  C514     1.0000 0.19260  0.64400  0.49910  Biso   1.000  C
  H632     1.0000 0.17640  0.61750  0.48970  Biso   1.000  H
  C515     1.0000 0.17330  0.66530  0.52520  Biso   1.000  C
  H633     1.0000 0.14400  0.65330  0.53370  Biso   1.000  H
  C516     1.0000 0.19690  0.70400  0.53900  Biso   1.000  C
  C517     1.0000 0.16810  0.72730  0.56750  Biso   1.000  C
  H634     1.0000 0.18830  0.75620  0.57290  Biso   1.000  H
  C518     1.0000 0.15660  0.70460  0.59920  Biso   1.000  C
  H635     1.0000 0.14040  0.72880  0.61220  Biso   1.000  H
  H636     1.0000 0.13520  0.67660  0.59640  Biso   1.000  H
  H637     1.0000 0.18680  0.69420  0.60900  Biso   1.000  H
  C519     1.0000 0.12360  0.74990  0.55200  Biso   1.000  C
  H638     1.0000 0.10490  0.76820  0.56730  Biso   1.000  H
  H639     1.0000 0.13420  0.77180  0.53550  Biso   1.000  H
  H640     1.0000 0.10330  0.72420  0.54330  Biso   1.000  H
  C520     1.0000 0.30490  0.72100  0.48680  Biso   1.000  C
  H641     1.0000 0.31310  0.75430  0.49430  Biso   1.000  H
  C521     1.0000 0.34390  0.68400  0.49230  Biso   1.000  C
  H642     1.0000 0.34680  0.67780  0.51440  Biso   1.000  H
  H643     1.0000 0.33550  0.65380  0.48170  Biso   1.000  H
  H644     1.0000 0.37480  0.69620  0.48440  Biso   1.000  H
  C522     1.0000 0.29920  0.71750  0.45170  Biso   1.000  C
  H645     1.0000 0.27510  0.74120  0.44470  Biso   1.000  H
  H646     1.0000 0.33040  0.72420  0.44180  Biso   1.000  H
  H647     1.0000 0.28840  0.68480  0.44620  Biso   1.000  H
  C523     1.0000 0.49377  0.88570  0.65065  Biso   1.000  C
  C524     1.0000 0.53740  0.87180  0.63898  Biso   1.000  C
  C525     1.0000 0.57750  0.87240  0.65712  Biso   1.000  C
  H648     1.0000 0.60790  0.86270  0.64900  Biso   1.000  H
  C526     1.0000 0.57410  0.88690  0.68694  Biso   1.000  C
  H649     1.0000 0.60210  0.88740  0.69960  Biso   1.000  H
  C527     1.0000 0.53050  0.90090  0.69862  Biso   1.000  C
  H650     1.0000 0.52810  0.91100  0.71940  Biso   1.000  H
  C528     1.0000 0.49035  0.90030  0.68047  Biso   1.000  C
  C529     1.0000 0.44140  0.91580  0.69270  Biso   1.000  C
  H651     1.0000 0.41540  0.90830  0.67740  Biso   1.000  H
  C530     1.0000 0.42880  0.89430  0.72410  Biso   1.000  C
  H652     1.0000 0.42850  0.85890  0.72260  Biso   1.000  H
  H653     1.0000 0.45310  0.90450  0.73920  Biso   1.000  H
  H654     1.0000 0.39670  0.90590  0.73050  Biso   1.000  H
  C531     1.0000 0.43630  0.96700  0.70420  Biso   1.000  C
  H655     1.0000 0.40300  0.97230  0.71120  Biso   1.000  H
  H656     1.0000 0.45880  0.97230  0.72130  Biso   1.000  H
  H657     1.0000 0.44380  0.98970  0.68750  Biso   1.000  H
  C532     1.0000 0.22090  0.93160  0.66250  Biso   1.000  C
  H658     1.0000 0.19630  0.93240  0.64730  Biso   1.000  H
  C533     1.0000 0.21690  0.96100  0.68770  Biso   1.000  C
  H659     1.0000 0.19100  0.98360  0.68940  Biso   1.000  H
  C534     1.0000 0.25240  0.95710  0.71139  Biso   1.000  C
  C535     1.0000 0.24770  0.98900  0.73963  Biso   1.000  C
  C536     1.0000 0.28870  0.92510  0.70782  Biso   1.000  C
  H660     1.0000 0.31220  0.92130  0.72360  Biso   1.000  H
  C537     1.0000 0.29160  0.89770  0.68120  Biso   1.000  C
  H661     1.0000 0.31770  0.87550  0.67860  Biso   1.000  H
  C538     1.0000 0.26860  0.00640  0.79157  Biso   1.000  C
  H662     1.0000 0.28550  0.99700  0.80970  Biso   1.000  H
  C539     1.0000 0.26850  0.97570  0.76670  Biso   1.000  C
  H663     1.0000 0.28330  0.94470  0.76840  Biso   1.000  H
  C540     1.0000 0.22340  0.03170  0.73880  Biso   1.000  C
  H664     1.0000 0.20640  0.04140  0.72080  Biso   1.000  H
  C541     1.0000 0.22370  0.06160  0.76506  Biso   1.000  C
  H665     1.0000 0.20760  0.09200  0.76420  Biso   1.000  H
  N31      1.0000 0.25840  0.90220  0.65904  Biso   1.000  N
  N32      1.0000 0.24590  0.04860  0.79115  Biso   1.000  N
  O136     1.0000 0.45330  0.88500  0.63200  Biso   1.000  O
  O137     1.0000 0.36703  0.85572  0.63072  Biso   1.000  O
  O138     1.0000 0.42930  0.81630  0.59766  Biso   1.000  O
  O139     1.0000 0.43270  0.80470  0.65489  Biso   1.000  O
  O140     1.0000 0.26010  0.76290  0.53883  Biso   1.000  O
  O141     1.0000 0.28113  0.80130  0.58846  Biso   1.000  O
  O142     1.0000 0.34626  0.76320  0.55674  Biso   1.000  O
  O143     1.0000 0.28500  0.71050  0.58312  Biso   1.000  O
  O144     1.0000 0.26350  0.87640  0.63316  Biso   1.000  O
  P31      1.0000 0.41791  0.83592  0.62871  Biso   1.000  P
  P32      1.0000 0.29618  0.75889  0.56924  Biso   1.000  P
  Zn31     1.0000 0.30863  0.81648  0.62807  Biso   1.000  Zn
  Zn32     1.0000 0.40563  0.75624  0.58049  Biso   1.000  Zn
  C542     1.0000 0.54280  0.85650  0.60550  Biso   1.000  C
  H666     1.0000 0.51070  0.85910  0.59500  Biso   1.000  H
  C543     1.0000 0.55880  0.80310  0.60600  Biso   1.000  C
  H667     1.0000 0.56280  0.79150  0.58480  Biso   1.000  H
  H668     1.0000 0.58970  0.80020  0.61690  Biso   1.000  H
  H669     1.0000 0.53410  0.78360  0.61640  Biso   1.000  H
  C544     1.0000 0.57910  0.89310  0.59040  Biso   1.000  C
  H670     1.0000 0.56680  0.92620  0.59300  Biso   1.000  H
  H671     1.0000 0.61080  0.89030  0.60050  Biso   1.000  H
  H672     1.0000 0.58240  0.88570  0.56850  Biso   1.000  H
