data_image0
_cell_length_a       18.4538
_cell_length_b       25.3442
_cell_length_c       37.783
_cell_angle_alpha    90
_cell_angle_beta     90
_cell_angle_gamma    90

_symmetry_space_group_name_H-M    P 1
_symmetry_int_tables_number       1

loop_
  _symmetry_equiv_pos_as_xyz
  'x, y, z'

loop_
  _atom_site_label
  _atom_site_occupancy
  _atom_site_fract_x
  _atom_site_fract_y
  _atom_site_fract_z
  _atom_site_thermal_displace_type
  _atom_site_B_iso_or_equiv
  _atom_site_type_symbol
  Cd1      1.0000 0.52686  0.86732  0.27395  Biso   1.000  Cd
  Cd2      1.0000 0.38550  0.87709  0.20082  Biso   1.000  Cd
  Cd3      1.0000 0.97314  0.13268  0.77395  Biso   1.000  Cd
  Cd4      1.0000 0.11450  0.12291  0.70082  Biso   1.000  Cd
  Cd5      1.0000 0.47314  0.36732  0.22605  Biso   1.000  Cd
  Cd6      1.0000 0.61450  0.37709  0.29918  Biso   1.000  Cd
  Cd7      1.0000 0.02686  0.63268  0.72605  Biso   1.000  Cd
  Cd8      1.0000 0.88550  0.62291  0.79918  Biso   1.000  Cd
  H1       1.0000 0.14950  0.52180  0.63270  Biso   1.000  H
  H2       1.0000 0.21100  0.51800  0.57970  Biso   1.000  H
  H3       1.0000 0.33350  0.64270  0.61390  Biso   1.000  H
  H4       1.0000 0.25890  0.64100  0.66670  Biso   1.000  H
  H5       1.0000 0.69850  0.28060  0.41790  Biso   1.000  H
  H6       1.0000 0.62630  0.35410  0.42090  Biso   1.000  H
  H7       1.0000 0.70890  0.39390  0.51430  Biso   1.000  H
  H8       1.0000 0.78180  0.31500  0.50920  Biso   1.000  H
  H9       1.0000 0.44750  0.84040  0.34550  Biso   1.000  H
  H10      1.0000 0.42840  0.77440  0.38820  Biso   1.000  H
  H11      1.0000 0.58910  0.69200  0.34340  Biso   1.000  H
  H12      1.0000 0.60780  0.76220  0.30490  Biso   1.000  H
  H13      1.0000 0.30750  0.50010  0.54700  Biso   1.000  H
  H14      1.0000 0.37760  0.49350  0.49710  Biso   1.000  H
  H15      1.0000 0.44410  0.64170  0.51210  Biso   1.000  H
  H16      1.0000 0.36980  0.64970  0.55960  Biso   1.000  H
  H17      1.0000 0.53910  0.51680  0.52300  Biso   1.000  H
  H18      1.0000 0.61790  0.44540  0.52150  Biso   1.000  H
  H19      1.0000 0.58670  0.43200  0.41670  Biso   1.000  H
  H20      1.0000 0.50790  0.50340  0.41810  Biso   1.000  H
  H21      1.0000 0.58620  0.59060  0.43820  Biso   1.000  H
  H22      1.0000 0.60420  0.65940  0.39950  Biso   1.000  H
  H23      1.0000 0.38940  0.69520  0.40510  Biso   1.000  H
  H24      1.0000 0.37300  0.62500  0.44560  Biso   1.000  H
  H25      1.0000 0.63290  0.96180  0.22450  Biso   1.000  H
  H26      1.0000 0.71680  0.02820  0.21370  Biso   1.000  H
  H27      1.0000 0.59940  0.07990  0.13210  Biso   1.000  H
  H28      1.0000 0.50420  0.01830  0.14500  Biso   1.000  H
  H29      1.0000 0.59210  0.15770  0.18430  Biso   1.000  H
  H30      1.0000 0.56250  0.23110  0.21800  Biso   1.000  H
  H31      1.0000 0.76820  0.26590  0.23040  Biso   1.000  H
  H32      1.0000 0.80220  0.18970  0.19660  Biso   1.000  H
  H33      1.0000 0.67710  0.46630  0.18810  Biso   1.000  H
  H34      1.0000 0.74990  0.53530  0.16910  Biso   1.000  H
  H35      1.0000 0.57920  0.60050  0.11970  Biso   1.000  H
  H36      1.0000 0.50640  0.53150  0.13870  Biso   1.000  H
  H37      1.0000 0.78630  0.65760  0.19470  Biso   1.000  H
  H38      1.0000 0.76300  0.72660  0.23570  Biso   1.000  H
  H39      1.0000 0.58950  0.76970  0.17770  Biso   1.000  H
  H40      1.0000 0.61970  0.70830  0.13440  Biso   1.000  H
  H41      1.0000 0.33980  0.96390  0.14260  Biso   1.000  H
  H42      1.0000 0.26200  0.97950  0.09730  Biso   1.000  H
  H43      1.0000 0.14770  0.85160  0.12570  Biso   1.000  H
  H44      1.0000 0.23650  0.83600  0.16870  Biso   1.000  H
  H45      1.0000 0.99340  0.65220  0.86740  Biso   1.000  H
  H46      1.0000 0.01980  0.71240  0.90700  Biso   1.000  H
  H47      1.0000 0.88820  0.81320  0.85460  Biso   1.000  H
  H48      1.0000 0.85590  0.74210  0.82040  Biso   1.000  H
  H49      1.0000 0.84790  0.22800  0.89980  Biso   1.000  H
  H50      1.0000 0.91580  0.15320  0.90730  Biso   1.000  H
  H51      1.0000 0.81180  0.13160  0.99940  Biso   1.000  H
  H52      1.0000 0.75910  0.21450  0.98980  Biso   1.000  H
  H53      1.0000 0.19070  0.99460  0.05670  Biso   1.000  H
  H54      1.0000 0.11490  0.00460  0.00790  Biso   1.000  H
  H55      1.0000 0.03390  0.85980  0.02430  Biso   1.000  H
  H56      1.0000 0.10660  0.84760  0.07190  Biso   1.000  H
  H57      1.0000 0.07070  0.78640  0.92860  Biso   1.000  H
  H58      1.0000 0.10460  0.85960  0.96000  Biso   1.000  H
  H59      1.0000 0.90800  0.92270  0.94260  Biso   1.000  H
  H60      1.0000 0.88170  0.85740  0.90340  Biso   1.000  H
  H61      1.0000 0.94550  0.99420  0.02340  Biso   1.000  H
  H62      1.0000 0.87740  0.07140  0.01270  Biso   1.000  H
  H63      1.0000 0.95630  0.07580  0.91410  Biso   1.000  H
  H64      1.0000 0.03030  0.00240  0.92690  Biso   1.000  H
  H65      1.0000 0.67280  0.88150  0.27170  Biso   1.000  H
  H66      1.0000 0.64600  0.90950  0.30630  Biso   1.000  H
  H67      1.0000 0.29520  0.94010  0.24140  Biso   1.000  H
  H68      1.0000 0.36140  0.92560  0.26550  Biso   1.000  H
  H69      1.0000 0.35050  0.47820  0.13270  Biso   1.000  H
  H70      1.0000 0.28900  0.48200  0.07970  Biso   1.000  H
  H71      1.0000 0.16650  0.35730  0.11390  Biso   1.000  H
  H72      1.0000 0.24110  0.35900  0.16670  Biso   1.000  H
  H73      1.0000 0.80150  0.71940  0.91790  Biso   1.000  H
  H74      1.0000 0.87370  0.64590  0.92090  Biso   1.000  H
  H75      1.0000 0.79110  0.60610  0.01430  Biso   1.000  H
  H76      1.0000 0.71820  0.68500  0.00920  Biso   1.000  H
  H77      1.0000 0.05250  0.15960  0.84550  Biso   1.000  H
  H78      1.0000 0.07160  0.22560  0.88820  Biso   1.000  H
  H79      1.0000 0.91090  0.30800  0.84340  Biso   1.000  H
  H80      1.0000 0.89220  0.23780  0.80490  Biso   1.000  H
  H81      1.0000 0.19250  0.49990  0.04700  Biso   1.000  H
  H82      1.0000 0.12240  0.50650  0.99710  Biso   1.000  H
  H83      1.0000 0.05590  0.35830  0.01210  Biso   1.000  H
  H84      1.0000 0.13020  0.35030  0.05960  Biso   1.000  H
  H85      1.0000 0.96090  0.48320  0.02300  Biso   1.000  H
  H86      1.0000 0.88210  0.55460  0.02150  Biso   1.000  H
  H87      1.0000 0.91330  0.56800  0.91670  Biso   1.000  H
  H88      1.0000 0.99210  0.49660  0.91810  Biso   1.000  H
  H89      1.0000 0.91380  0.40940  0.93820  Biso   1.000  H
  H90      1.0000 0.89580  0.34060  0.89950  Biso   1.000  H
  H91      1.0000 0.11060  0.30480  0.90510  Biso   1.000  H
  H92      1.0000 0.12700  0.37500  0.94560  Biso   1.000  H
  H93      1.0000 0.86710  0.03820  0.72450  Biso   1.000  H
  H94      1.0000 0.78320  0.97180  0.71370  Biso   1.000  H
  H95      1.0000 0.90060  0.92010  0.63210  Biso   1.000  H
  H96      1.0000 0.99580  0.98170  0.64500  Biso   1.000  H
  H97      1.0000 0.90790  0.84230  0.68430  Biso   1.000  H
  H98      1.0000 0.93750  0.76890  0.71800  Biso   1.000  H
  H99      1.0000 0.73180  0.73410  0.73040  Biso   1.000  H
  H100     1.0000 0.69780  0.81030  0.69660  Biso   1.000  H
  H101     1.0000 0.82290  0.53370  0.68810  Biso   1.000  H
  H102     1.0000 0.75010  0.46470  0.66910  Biso   1.000  H
  H103     1.0000 0.92080  0.39950  0.61970  Biso   1.000  H
  H104     1.0000 0.99360  0.46850  0.63870  Biso   1.000  H
  H105     1.0000 0.71370  0.34240  0.69470  Biso   1.000  H
  H106     1.0000 0.73700  0.27340  0.73570  Biso   1.000  H
  H107     1.0000 0.91050  0.23030  0.67770  Biso   1.000  H
  H108     1.0000 0.88030  0.29170  0.63440  Biso   1.000  H
  H109     1.0000 0.16020  0.03610  0.64260  Biso   1.000  H
  H110     1.0000 0.23800  0.02050  0.59730  Biso   1.000  H
  H111     1.0000 0.35230  0.14840  0.62570  Biso   1.000  H
  H112     1.0000 0.26350  0.16400  0.66870  Biso   1.000  H
  H113     1.0000 0.50660  0.34780  0.36740  Biso   1.000  H
  H114     1.0000 0.48020  0.28760  0.40700  Biso   1.000  H
  H115     1.0000 0.61180  0.18680  0.35460  Biso   1.000  H
  H116     1.0000 0.64410  0.25790  0.32040  Biso   1.000  H
  H117     1.0000 0.65210  0.77200  0.39980  Biso   1.000  H
  H118     1.0000 0.58420  0.84680  0.40730  Biso   1.000  H
  H119     1.0000 0.68820  0.86840  0.49940  Biso   1.000  H
  H120     1.0000 0.74090  0.78550  0.48980  Biso   1.000  H
  H121     1.0000 0.30930  0.00540  0.55670  Biso   1.000  H
  H122     1.0000 0.38510  0.99540  0.50790  Biso   1.000  H
  H123     1.0000 0.46610  0.14020  0.52430  Biso   1.000  H
  H124     1.0000 0.39340  0.15240  0.57190  Biso   1.000  H
  H125     1.0000 0.42930  0.21360  0.42860  Biso   1.000  H
  H126     1.0000 0.39540  0.14040  0.46000  Biso   1.000  H
  H127     1.0000 0.59200  0.07730  0.44260  Biso   1.000  H
  H128     1.0000 0.61830  0.14260  0.40340  Biso   1.000  H
  H129     1.0000 0.55450  0.00580  0.52340  Biso   1.000  H
  H130     1.0000 0.62260  0.92860  0.51270  Biso   1.000  H
  H131     1.0000 0.54370  0.92420  0.41410  Biso   1.000  H
  H132     1.0000 0.46970  0.99760  0.42690  Biso   1.000  H
  H133     1.0000 0.82720  0.11850  0.77170  Biso   1.000  H
  H134     1.0000 0.85400  0.09050  0.80630  Biso   1.000  H
  H135     1.0000 0.20480  0.05990  0.74140  Biso   1.000  H
  H136     1.0000 0.13860  0.07440  0.76550  Biso   1.000  H
  H137     1.0000 0.85050  0.02180  0.86730  Biso   1.000  H
  H138     1.0000 0.78900  0.01800  0.92030  Biso   1.000  H
  H139     1.0000 0.66650  0.14270  0.88610  Biso   1.000  H
  H140     1.0000 0.74110  0.14100  0.83330  Biso   1.000  H
  H141     1.0000 0.30150  0.78060  0.08210  Biso   1.000  H
  H142     1.0000 0.37370  0.85410  0.07910  Biso   1.000  H
  H143     1.0000 0.29110  0.89390  0.98570  Biso   1.000  H
  H144     1.0000 0.21820  0.81500  0.99080  Biso   1.000  H
  H145     1.0000 0.55250  0.34040  0.15450  Biso   1.000  H
  H146     1.0000 0.57160  0.27440  0.11180  Biso   1.000  H
  H147     1.0000 0.41090  0.19200  0.15660  Biso   1.000  H
  H148     1.0000 0.39220  0.26220  0.19510  Biso   1.000  H
  H149     1.0000 0.69250  0.00010  0.95300  Biso   1.000  H
  H150     1.0000 0.62240  0.99350  0.00290  Biso   1.000  H
  H151     1.0000 0.55590  0.14170  0.98790  Biso   1.000  H
  H152     1.0000 0.63020  0.14970  0.94040  Biso   1.000  H
  H153     1.0000 0.46090  0.01680  0.97700  Biso   1.000  H
  H154     1.0000 0.38210  0.94540  0.97850  Biso   1.000  H
  H155     1.0000 0.41330  0.93200  0.08330  Biso   1.000  H
  H156     1.0000 0.49210  0.00340  0.08190  Biso   1.000  H
  H157     1.0000 0.41380  0.09060  0.06180  Biso   1.000  H
  H158     1.0000 0.39580  0.15940  0.10050  Biso   1.000  H
  H159     1.0000 0.61060  0.19520  0.09490  Biso   1.000  H
  H160     1.0000 0.62700  0.12500  0.05440  Biso   1.000  H
  H161     1.0000 0.36710  0.46180  0.27550  Biso   1.000  H
  H162     1.0000 0.28320  0.52820  0.28630  Biso   1.000  H
  H163     1.0000 0.40060  0.57990  0.36790  Biso   1.000  H
  H164     1.0000 0.49580  0.51830  0.35500  Biso   1.000  H
  H165     1.0000 0.40790  0.65770  0.31570  Biso   1.000  H
  H166     1.0000 0.43750  0.73110  0.28200  Biso   1.000  H
  H167     1.0000 0.23180  0.76590  0.26960  Biso   1.000  H
  H168     1.0000 0.19780  0.68970  0.30340  Biso   1.000  H
  H169     1.0000 0.32290  0.96630  0.31190  Biso   1.000  H
  H170     1.0000 0.25010  0.03530  0.33090  Biso   1.000  H
  H171     1.0000 0.42080  0.10050  0.38030  Biso   1.000  H
  H172     1.0000 0.49360  0.03150  0.36130  Biso   1.000  H
  H173     1.0000 0.21370  0.15760  0.30530  Biso   1.000  H
  H174     1.0000 0.23700  0.22660  0.26430  Biso   1.000  H
  H175     1.0000 0.41050  0.26970  0.32230  Biso   1.000  H
  H176     1.0000 0.38030  0.20830  0.36560  Biso   1.000  H
  H177     1.0000 0.66020  0.46390  0.35740  Biso   1.000  H
  H178     1.0000 0.73800  0.47950  0.40270  Biso   1.000  H
  H179     1.0000 0.85230  0.35160  0.37430  Biso   1.000  H
  H180     1.0000 0.76350  0.33600  0.33130  Biso   1.000  H
  H181     1.0000 0.00660  0.15220  0.63260  Biso   1.000  H
  H182     1.0000 0.98020  0.21240  0.59300  Biso   1.000  H
  H183     1.0000 0.11180  0.31320  0.64540  Biso   1.000  H
  H184     1.0000 0.14410  0.24210  0.67960  Biso   1.000  H
  H185     1.0000 0.15210  0.72800  0.60020  Biso   1.000  H
  H186     1.0000 0.08420  0.65320  0.59270  Biso   1.000  H
  H187     1.0000 0.18820  0.63160  0.50060  Biso   1.000  H
  H188     1.0000 0.24090  0.71450  0.51020  Biso   1.000  H
  H189     1.0000 0.80930  0.49460  0.44330  Biso   1.000  H
  H190     1.0000 0.88510  0.50460  0.49210  Biso   1.000  H
  H191     1.0000 0.96610  0.35980  0.47570  Biso   1.000  H
  H192     1.0000 0.89340  0.34760  0.42810  Biso   1.000  H
  H193     1.0000 0.92930  0.28640  0.57140  Biso   1.000  H
  H194     1.0000 0.89540  0.35960  0.54000  Biso   1.000  H
  H195     1.0000 0.09200  0.42270  0.55740  Biso   1.000  H
  H196     1.0000 0.11830  0.35740  0.59660  Biso   1.000  H
  H197     1.0000 0.05450  0.49420  0.47660  Biso   1.000  H
  H198     1.0000 0.12260  0.57140  0.48730  Biso   1.000  H
  H199     1.0000 0.04370  0.57580  0.58590  Biso   1.000  H
  H200     1.0000 0.96970  0.50240  0.57310  Biso   1.000  H
  H201     1.0000 0.32720  0.38150  0.22830  Biso   1.000  H
  H202     1.0000 0.35400  0.40950  0.19370  Biso   1.000  H
  H203     1.0000 0.70480  0.44010  0.25860  Biso   1.000  H
  H204     1.0000 0.63860  0.42560  0.23450  Biso   1.000  H
  H205     1.0000 0.64950  0.97820  0.36730  Biso   1.000  H
  H206     1.0000 0.71100  0.98200  0.42030  Biso   1.000  H
  H207     1.0000 0.83350  0.85730  0.38610  Biso   1.000  H
  H208     1.0000 0.75890  0.85900  0.33330  Biso   1.000  H
  H209     1.0000 0.19850  0.21940  0.58210  Biso   1.000  H
  H210     1.0000 0.12630  0.14590  0.57910  Biso   1.000  H
  H211     1.0000 0.20890  0.10610  0.48570  Biso   1.000  H
  H212     1.0000 0.28180  0.18500  0.49080  Biso   1.000  H
  H213     1.0000 0.94750  0.65960  0.65450  Biso   1.000  H
  H214     1.0000 0.92840  0.72560  0.61180  Biso   1.000  H
  H215     1.0000 0.08910  0.80800  0.65660  Biso   1.000  H
  H216     1.0000 0.10780  0.73780  0.69510  Biso   1.000  H
  H217     1.0000 0.80750  0.99990  0.45300  Biso   1.000  H
  H218     1.0000 0.87760  0.00650  0.50290  Biso   1.000  H
  H219     1.0000 0.94410  0.85830  0.48790  Biso   1.000  H
  H220     1.0000 0.86980  0.85030  0.44040  Biso   1.000  H
  H221     1.0000 0.03910  0.98320  0.47700  Biso   1.000  H
  H222     1.0000 0.11790  0.05460  0.47850  Biso   1.000  H
  H223     1.0000 0.08670  0.06800  0.58330  Biso   1.000  H
  H224     1.0000 0.00790  0.99660  0.58190  Biso   1.000  H
  H225     1.0000 0.08620  0.90940  0.56180  Biso   1.000  H
  H226     1.0000 0.10420  0.84060  0.60050  Biso   1.000  H
  H227     1.0000 0.88940  0.80480  0.59490  Biso   1.000  H
  H228     1.0000 0.87300  0.87500  0.55440  Biso   1.000  H
  H229     1.0000 0.13290  0.53820  0.77550  Biso   1.000  H
  H230     1.0000 0.21680  0.47180  0.78630  Biso   1.000  H
  H231     1.0000 0.09940  0.42010  0.86790  Biso   1.000  H
  H232     1.0000 0.00420  0.48170  0.85500  Biso   1.000  H
  H233     1.0000 0.09210  0.34230  0.81570  Biso   1.000  H
  H234     1.0000 0.06250  0.26890  0.78200  Biso   1.000  H
  H235     1.0000 0.26820  0.23410  0.76960  Biso   1.000  H
  H236     1.0000 0.30220  0.31030  0.80340  Biso   1.000  H
  H237     1.0000 0.17710  0.03370  0.81190  Biso   1.000  H
  H238     1.0000 0.24990  0.96470  0.83090  Biso   1.000  H
  H239     1.0000 0.07920  0.89950  0.88030  Biso   1.000  H
  H240     1.0000 0.00640  0.96850  0.86130  Biso   1.000  H
  H241     1.0000 0.28630  0.84240  0.80530  Biso   1.000  H
  H242     1.0000 0.26300  0.77340  0.76430  Biso   1.000  H
  H243     1.0000 0.08950  0.73030  0.82230  Biso   1.000  H
  H244     1.0000 0.11970  0.79170  0.86560  Biso   1.000  H
  H245     1.0000 0.83980  0.53610  0.85740  Biso   1.000  H
  H246     1.0000 0.76200  0.52050  0.90270  Biso   1.000  H
  H247     1.0000 0.64770  0.64840  0.87430  Biso   1.000  H
  H248     1.0000 0.73650  0.66400  0.83130  Biso   1.000  H
  H249     1.0000 0.49340  0.84780  0.13260  Biso   1.000  H
  H250     1.0000 0.51980  0.78760  0.09300  Biso   1.000  H
  H251     1.0000 0.38820  0.68680  0.14540  Biso   1.000  H
  H252     1.0000 0.35590  0.75790  0.17960  Biso   1.000  H
  H253     1.0000 0.34790  0.27200  0.10020  Biso   1.000  H
  H254     1.0000 0.41580  0.34680  0.09270  Biso   1.000  H
  H255     1.0000 0.31180  0.36840  0.00060  Biso   1.000  H
  H256     1.0000 0.25910  0.28550  0.01020  Biso   1.000  H
  H257     1.0000 0.69070  0.50540  0.94330  Biso   1.000  H
  H258     1.0000 0.61490  0.49540  0.99210  Biso   1.000  H
  H259     1.0000 0.53390  0.64020  0.97570  Biso   1.000  H
  H260     1.0000 0.60660  0.65240  0.92810  Biso   1.000  H
  H261     1.0000 0.57070  0.71360  0.07140  Biso   1.000  H
  H262     1.0000 0.60460  0.64040  0.04000  Biso   1.000  H
  H263     1.0000 0.40800  0.57730  0.05740  Biso   1.000  H
  H264     1.0000 0.38170  0.64260  0.09660  Biso   1.000  H
  H265     1.0000 0.44550  0.50580  0.97660  Biso   1.000  H
  H266     1.0000 0.37740  0.42860  0.98730  Biso   1.000  H
  H267     1.0000 0.45630  0.42420  0.08590  Biso   1.000  H
  H268     1.0000 0.53030  0.49760  0.07310  Biso   1.000  H
  H269     1.0000 0.17280  0.61850  0.72830  Biso   1.000  H
  H270     1.0000 0.14600  0.59050  0.69370  Biso   1.000  H
  H271     1.0000 0.79520  0.55990  0.75860  Biso   1.000  H
  H272     1.0000 0.86140  0.57440  0.73450  Biso   1.000  H
  C1       1.0000 0.18570  0.54650  0.62828  Biso   1.000  C
  C2       1.0000 0.22390  0.54290  0.59665  Biso   1.000  C
  C3       1.0000 0.28500  0.57900  0.59028  Biso   1.000  C
  C4       1.0000 0.29720  0.61750  0.61658  Biso   1.000  C
  C5       1.0000 0.25030  0.61670  0.64874  Biso   1.000  C
  C6       1.0000 0.70060  0.30240  0.43766  Biso   1.000  C
  C7       1.0000 0.65760  0.34730  0.43960  Biso   1.000  C
  C8       1.0000 0.65840  0.38450  0.46902  Biso   1.000  C
  C9       1.0000 0.70440  0.37230  0.49452  Biso   1.000  C
  C10      1.0000 0.74910  0.32330  0.49130  Biso   1.000  C
  C11      1.0000 0.47630  0.81030  0.34486  Biso   1.000  C
  C12      1.0000 0.46430  0.77040  0.37112  Biso   1.000  C
  C13      1.0000 0.50620  0.72730  0.37035  Biso   1.000  C
  C14      1.0000 0.56040  0.72200  0.34464  Biso   1.000  C
  C15      1.0000 0.56940  0.76410  0.32081  Biso   1.000  C
  C16      1.0000 0.32720  0.57600  0.55825  Biso   1.000  C
  C17      1.0000 0.33350  0.52940  0.53944  Biso   1.000  C
  C18      1.0000 0.37700  0.52480  0.50993  Biso   1.000  C
  C19      1.0000 0.41960  0.56690  0.49940  Biso   1.000  C
  C20      1.0000 0.41560  0.61310  0.51872  Biso   1.000  C
  C21      1.0000 0.37110  0.61790  0.54721  Biso   1.000  C
  C22      1.0000 0.54870  0.49980  0.50170  Biso   1.000  C
  C23      1.0000 0.59590  0.45710  0.50080  Biso   1.000  C
  C24      1.0000 0.61010  0.43170  0.46894  Biso   1.000  C
  C25      1.0000 0.57720  0.44900  0.43797  Biso   1.000  C
  C26      1.0000 0.53000  0.49170  0.43887  Biso   1.000  C
  C27      1.0000 0.51570  0.51710  0.47073  Biso   1.000  C
  C28      1.0000 0.54760  0.61210  0.43183  Biso   1.000  C
  C29      1.0000 0.55780  0.65250  0.40800  Biso   1.000  C
  C30      1.0000 0.49910  0.68400  0.39614  Biso   1.000  C
  C31      1.0000 0.42860  0.67410  0.41152  Biso   1.000  C
  C32      1.0000 0.41860  0.63240  0.43638  Biso   1.000  C
  C33      1.0000 0.47880  0.60340  0.44640  Biso   1.000  C
  C34      1.0000 0.50720  0.94070  0.19375  Biso   1.000  C
  C35      1.0000 0.56380  0.98250  0.18504  Biso   1.000  C
  C36      1.0000 0.62550  0.98580  0.20624  Biso   1.000  C
  C37      1.0000 0.67560  0.02530  0.19971  Biso   1.000  C
  C38      1.0000 0.66410  0.05960  0.17287  Biso   1.000  C
  C39      1.0000 0.60360  0.05680  0.15115  Biso   1.000  C
  C40      1.0000 0.54750  0.01900  0.15761  Biso   1.000  C
  C41      1.0000 0.69840  0.16470  0.18959  Biso   1.000  C
  C42      1.0000 0.62870  0.17810  0.19428  Biso   1.000  C
  C43      1.0000 0.61110  0.22310  0.21420  Biso   1.000  C
  C44      1.0000 0.66140  0.25440  0.22783  Biso   1.000  C
  C45      1.0000 0.73270  0.24340  0.22156  Biso   1.000  C
  C46      1.0000 0.75390  0.19720  0.20141  Biso   1.000  C
  C47      1.0000 0.64240  0.30030  0.24917  Biso   1.000  C
  C48      1.0000 0.53830  0.44840  0.17684  Biso   1.000  C
  C49      1.0000 0.58450  0.49210  0.16532  Biso   1.000  C
  C50      1.0000 0.65750  0.49320  0.17443  Biso   1.000  C
  C51      1.0000 0.70110  0.53450  0.16303  Biso   1.000  C
  C52      1.0000 0.67180  0.57480  0.14252  Biso   1.000  C
  C53      1.0000 0.59880  0.57360  0.13342  Biso   1.000  C
  C54      1.0000 0.55520  0.53230  0.14482  Biso   1.000  C
  C55      1.0000 0.70570  0.67800  0.16132  Biso   1.000  C
  C56      1.0000 0.74830  0.68120  0.19107  Biso   1.000  C
  C57      1.0000 0.73270  0.72170  0.21632  Biso   1.000  C
  C58      1.0000 0.67080  0.75440  0.21167  Biso   1.000  C
  C59      1.0000 0.62980  0.74820  0.18104  Biso   1.000  C
  C60      1.0000 0.64680  0.71090  0.15512  Biso   1.000  C
  C61      1.0000 0.64960  0.79580  0.23681  Biso   1.000  C
  C62      1.0000 0.30070  0.94120  0.13952  Biso   1.000  C
  C63      1.0000 0.25540  0.94990  0.11150  Biso   1.000  C
  C64      1.0000 0.20030  0.91510  0.10414  Biso   1.000  C
  C65      1.0000 0.18780  0.87360  0.12787  Biso   1.000  C
  C66      1.0000 0.23930  0.86660  0.15527  Biso   1.000  C
  C67      1.0000 0.97070  0.68490  0.86521  Biso   1.000  C
  C68      1.0000 0.98820  0.72070  0.88860  Biso   1.000  C
  C69      1.0000 0.95860  0.77300  0.88580  Biso   1.000  C
  C70      1.0000 0.90930  0.78040  0.85853  Biso   1.000  C
  C71      1.0000 0.89230  0.73740  0.83711  Biso   1.000  C
  C72      1.0000 0.84290  0.20840  0.92050  Biso   1.000  C
  C73      1.0000 0.88280  0.16340  0.92450  Biso   1.000  C
  C74      1.0000 0.87330  0.13350  0.95462  Biso   1.000  C
  C75      1.0000 0.82290  0.15110  0.97930  Biso   1.000  C
  C76      1.0000 0.78900  0.20050  0.97234  Biso   1.000  C
  C77      1.0000 0.15550  0.91890  0.07102  Biso   1.000  C
  C78      1.0000 0.15910  0.96770  0.05024  Biso   1.000  C
  C79      1.0000 0.11480  0.97330  0.02067  Biso   1.000  C
  C80      1.0000 0.06970  0.93120  0.01014  Biso   1.000  C
  C81      1.0000 0.06640  0.88630  0.03056  Biso   1.000  C
  C82      1.0000 0.10870  0.87920  0.05956  Biso   1.000  C
  C83      1.0000 0.97370  0.81390  0.91087  Biso   1.000  C
  C84      1.0000 0.03930  0.81500  0.93009  Biso   1.000  C
  C85      1.0000 0.05800  0.85710  0.95077  Biso   1.000  C
  C86      1.0000 0.00670  0.89660  0.95802  Biso   1.000  C
  C87      1.0000 0.94130  0.89560  0.93918  Biso   1.000  C
  C88      1.0000 0.92500  0.85630  0.91599  Biso   1.000  C
  C89      1.0000 0.98860  0.98990  0.97540  Biso   1.000  C
  C90      1.0000 0.94750  0.01060  0.00141  Biso   1.000  C
  C91      1.0000 0.90720  0.05750  0.99521  Biso   1.000  C
  C92      1.0000 0.91320  0.08280  0.96194  Biso   1.000  C
  C93      1.0000 0.95510  0.06070  0.93655  Biso   1.000  C
  C94      1.0000 0.99750  0.01500  0.94350  Biso   1.000  C
  C95      1.0000 0.31430  0.45350  0.12828  Biso   1.000  C
  C96      1.0000 0.27610  0.45710  0.09665  Biso   1.000  C
  C97      1.0000 0.21500  0.42100  0.09028  Biso   1.000  C
  C98      1.0000 0.20280  0.38250  0.11658  Biso   1.000  C
  C99      1.0000 0.24970  0.38330  0.14874  Biso   1.000  C
  C100     1.0000 0.79940  0.69760  0.93766  Biso   1.000  C
  C101     1.0000 0.84240  0.65270  0.93960  Biso   1.000  C
  C102     1.0000 0.84160  0.61550  0.96902  Biso   1.000  C
  C103     1.0000 0.79560  0.62770  0.99452  Biso   1.000  C
  C104     1.0000 0.75090  0.67670  0.99130  Biso   1.000  C
  C105     1.0000 0.02370  0.18970  0.84486  Biso   1.000  C
  C106     1.0000 0.03570  0.22960  0.87112  Biso   1.000  C
  C107     1.0000 0.99380  0.27270  0.87035  Biso   1.000  C
  C108     1.0000 0.93960  0.27800  0.84464  Biso   1.000  C
  C109     1.0000 0.93060  0.23590  0.82081  Biso   1.000  C
  C110     1.0000 0.17280  0.42400  0.05825  Biso   1.000  C
  C111     1.0000 0.16650  0.47060  0.03944  Biso   1.000  C
  C112     1.0000 0.12300  0.47520  0.00993  Biso   1.000  C
  C113     1.0000 0.08040  0.43310  0.99940  Biso   1.000  C
  C114     1.0000 0.08440  0.38690  0.01872  Biso   1.000  C
  C115     1.0000 0.12890  0.38210  0.04721  Biso   1.000  C
  C116     1.0000 0.95130  0.50020  0.00170  Biso   1.000  C
  C117     1.0000 0.90410  0.54290  0.00080  Biso   1.000  C
  C118     1.0000 0.88990  0.56830  0.96894  Biso   1.000  C
  C119     1.0000 0.92280  0.55100  0.93797  Biso   1.000  C
  C120     1.0000 0.97000  0.50830  0.93887  Biso   1.000  C
  C121     1.0000 0.98430  0.48290  0.97073  Biso   1.000  C
  C122     1.0000 0.95240  0.38790  0.93183  Biso   1.000  C
  C123     1.0000 0.94220  0.34750  0.90800  Biso   1.000  C
  C124     1.0000 0.00090  0.31600  0.89614  Biso   1.000  C
  C125     1.0000 0.07140  0.32590  0.91152  Biso   1.000  C
  C126     1.0000 0.08140  0.36760  0.93638  Biso   1.000  C
  C127     1.0000 0.02120  0.39660  0.94640  Biso   1.000  C
  C128     1.0000 0.99280  0.05930  0.69375  Biso   1.000  C
  C129     1.0000 0.93620  0.01750  0.68504  Biso   1.000  C
  C130     1.0000 0.87450  0.01420  0.70624  Biso   1.000  C
  C131     1.0000 0.82440  0.97470  0.69971  Biso   1.000  C
  C132     1.0000 0.83590  0.94040  0.67287  Biso   1.000  C
  C133     1.0000 0.89640  0.94320  0.65115  Biso   1.000  C
  C134     1.0000 0.95250  0.98100  0.65761  Biso   1.000  C
  C135     1.0000 0.80160  0.83530  0.68959  Biso   1.000  C
  C136     1.0000 0.87130  0.82190  0.69428  Biso   1.000  C
  C137     1.0000 0.88890  0.77690  0.71420  Biso   1.000  C
  C138     1.0000 0.83860  0.74560  0.72783  Biso   1.000  C
  C139     1.0000 0.76730  0.75660  0.72156  Biso   1.000  C
  C140     1.0000 0.74610  0.80280  0.70141  Biso   1.000  C
  C141     1.0000 0.85760  0.69970  0.74917  Biso   1.000  C
  C142     1.0000 0.96170  0.55160  0.67684  Biso   1.000  C
  C143     1.0000 0.91550  0.50790  0.66532  Biso   1.000  C
  C144     1.0000 0.84250  0.50680  0.67443  Biso   1.000  C
  C145     1.0000 0.79890  0.46550  0.66303  Biso   1.000  C
  C146     1.0000 0.82820  0.42520  0.64252  Biso   1.000  C
  C147     1.0000 0.90120  0.42640  0.63342  Biso   1.000  C
  C148     1.0000 0.94480  0.46770  0.64482  Biso   1.000  C
  C149     1.0000 0.79430  0.32200  0.66132  Biso   1.000  C
  C150     1.0000 0.75170  0.31880  0.69107  Biso   1.000  C
  C151     1.0000 0.76730  0.27830  0.71632  Biso   1.000  C
  C152     1.0000 0.82920  0.24560  0.71167  Biso   1.000  C
  C153     1.0000 0.87020  0.25180  0.68104  Biso   1.000  C
  C154     1.0000 0.85320  0.28910  0.65512  Biso   1.000  C
  C155     1.0000 0.85040  0.20420  0.73681  Biso   1.000  C
  C156     1.0000 0.19930  0.05880  0.63952  Biso   1.000  C
  C157     1.0000 0.24460  0.05010  0.61150  Biso   1.000  C
  C158     1.0000 0.29970  0.08490  0.60414  Biso   1.000  C
  C159     1.0000 0.31220  0.12640  0.62787  Biso   1.000  C
  C160     1.0000 0.26070  0.13340  0.65527  Biso   1.000  C
  C161     1.0000 0.52930  0.31510  0.36521  Biso   1.000  C
  C162     1.0000 0.51180  0.27930  0.38860  Biso   1.000  C
  C163     1.0000 0.54140  0.22700  0.38580  Biso   1.000  C
  C164     1.0000 0.59070  0.21960  0.35853  Biso   1.000  C
  C165     1.0000 0.60770  0.26260  0.33711  Biso   1.000  C
  C166     1.0000 0.65710  0.79160  0.42050  Biso   1.000  C
  C167     1.0000 0.61720  0.83660  0.42450  Biso   1.000  C
  C168     1.0000 0.62670  0.86650  0.45462  Biso   1.000  C
  C169     1.0000 0.67710  0.84890  0.47930  Biso   1.000  C
  C170     1.0000 0.71100  0.79950  0.47234  Biso   1.000  C
  C171     1.0000 0.34450  0.08110  0.57102  Biso   1.000  C
  C172     1.0000 0.34090  0.03230  0.55024  Biso   1.000  C
  C173     1.0000 0.38520  0.02670  0.52067  Biso   1.000  C
  C174     1.0000 0.43030  0.06880  0.51014  Biso   1.000  C
  C175     1.0000 0.43360  0.11370  0.53056  Biso   1.000  C
  C176     1.0000 0.39130  0.12080  0.55956  Biso   1.000  C
  C177     1.0000 0.52630  0.18610  0.41087  Biso   1.000  C
  C178     1.0000 0.46070  0.18500  0.43009  Biso   1.000  C
  C179     1.0000 0.44200  0.14290  0.45077  Biso   1.000  C
  C180     1.0000 0.49330  0.10340  0.45802  Biso   1.000  C
  C181     1.0000 0.55870  0.10440  0.43918  Biso   1.000  C
  C182     1.0000 0.57500  0.14370  0.41599  Biso   1.000  C
  C183     1.0000 0.51140  0.01010  0.47540  Biso   1.000  C
  C184     1.0000 0.55250  0.98940  0.50141  Biso   1.000  C
  C185     1.0000 0.59280  0.94250  0.49521  Biso   1.000  C
  C186     1.0000 0.58680  0.91720  0.46194  Biso   1.000  C
  C187     1.0000 0.54490  0.93930  0.43655  Biso   1.000  C
  C188     1.0000 0.50250  0.98500  0.44350  Biso   1.000  C
  C189     1.0000 0.81430  0.04650  0.87172  Biso   1.000  C
  C190     1.0000 0.77610  0.04290  0.90335  Biso   1.000  C
  C191     1.0000 0.71500  0.07900  0.90972  Biso   1.000  C
  C192     1.0000 0.70280  0.11750  0.88342  Biso   1.000  C
  C193     1.0000 0.74970  0.11670  0.85126  Biso   1.000  C
  C194     1.0000 0.29940  0.80240  0.06234  Biso   1.000  C
  C195     1.0000 0.34240  0.84730  0.06040  Biso   1.000  C
  C196     1.0000 0.34160  0.88450  0.03098  Biso   1.000  C
  C197     1.0000 0.29560  0.87230  0.00548  Biso   1.000  C
  C198     1.0000 0.25090  0.82330  0.00870  Biso   1.000  C
  C199     1.0000 0.52370  0.31030  0.15514  Biso   1.000  C
  C200     1.0000 0.53570  0.27040  0.12888  Biso   1.000  C
  C201     1.0000 0.49380  0.22730  0.12965  Biso   1.000  C
  C202     1.0000 0.43960  0.22200  0.15536  Biso   1.000  C
  C203     1.0000 0.43060  0.26410  0.17919  Biso   1.000  C
  C204     1.0000 0.67280  0.07600  0.94175  Biso   1.000  C
  C205     1.0000 0.66650  0.02940  0.96056  Biso   1.000  C
  C206     1.0000 0.62300  0.02480  0.99007  Biso   1.000  C
  C207     1.0000 0.58040  0.06690  0.00060  Biso   1.000  C
  C208     1.0000 0.58440  0.11310  0.98128  Biso   1.000  C
  C209     1.0000 0.62890  0.11790  0.95279  Biso   1.000  C
  C210     1.0000 0.45130  0.99980  0.99830  Biso   1.000  C
  C211     1.0000 0.40410  0.95710  0.99920  Biso   1.000  C
  C212     1.0000 0.38990  0.93170  0.03106  Biso   1.000  C
  C213     1.0000 0.42280  0.94900  0.06203  Biso   1.000  C
  C214     1.0000 0.47000  0.99170  0.06113  Biso   1.000  C
  C215     1.0000 0.48430  0.01710  0.02927  Biso   1.000  C
  C216     1.0000 0.45240  0.11210  0.06817  Biso   1.000  C
  C217     1.0000 0.44220  0.15250  0.09200  Biso   1.000  C
  C218     1.0000 0.50090  0.18400  0.10386  Biso   1.000  C
  C219     1.0000 0.57140  0.17410  0.08848  Biso   1.000  C
  C220     1.0000 0.58140  0.13240  0.06362  Biso   1.000  C
  C221     1.0000 0.52120  0.10340  0.05360  Biso   1.000  C
  C222     1.0000 0.49280  0.44070  0.30625  Biso   1.000  C
  C223     1.0000 0.43620  0.48250  0.31496  Biso   1.000  C
  C224     1.0000 0.37450  0.48580  0.29376  Biso   1.000  C
  C225     1.0000 0.32440  0.52530  0.30029  Biso   1.000  C
  C226     1.0000 0.33590  0.55960  0.32713  Biso   1.000  C
  C227     1.0000 0.39640  0.55680  0.34885  Biso   1.000  C
  C228     1.0000 0.45250  0.51900  0.34239  Biso   1.000  C
  C229     1.0000 0.30160  0.66470  0.31041  Biso   1.000  C
  C230     1.0000 0.37130  0.67810  0.30572  Biso   1.000  C
  C231     1.0000 0.38890  0.72310  0.28580  Biso   1.000  C
  C232     1.0000 0.33860  0.75440  0.27217  Biso   1.000  C
  C233     1.0000 0.26730  0.74340  0.27844  Biso   1.000  C
  C234     1.0000 0.24610  0.69720  0.29859  Biso   1.000  C
  C235     1.0000 0.35760  0.80030  0.25083  Biso   1.000  C
  C236     1.0000 0.46170  0.94840  0.32316  Biso   1.000  C
  C237     1.0000 0.41550  0.99210  0.33468  Biso   1.000  C
  C238     1.0000 0.34250  0.99320  0.32557  Biso   1.000  C
  C239     1.0000 0.29890  0.03450  0.33697  Biso   1.000  C
  C240     1.0000 0.32820  0.07480  0.35748  Biso   1.000  C
  C241     1.0000 0.40120  0.07360  0.36658  Biso   1.000  C
  C242     1.0000 0.44480  0.03230  0.35518  Biso   1.000  C
  C243     1.0000 0.29430  0.17800  0.33868  Biso   1.000  C
  C244     1.0000 0.25170  0.18120  0.30893  Biso   1.000  C
  C245     1.0000 0.26730  0.22170  0.28368  Biso   1.000  C
  C246     1.0000 0.32920  0.25440  0.28833  Biso   1.000  C
  C247     1.0000 0.37020  0.24820  0.31896  Biso   1.000  C
  C248     1.0000 0.35320  0.21090  0.34488  Biso   1.000  C
  C249     1.0000 0.35040  0.29580  0.26319  Biso   1.000  C
  C250     1.0000 0.69930  0.44120  0.36048  Biso   1.000  C
  C251     1.0000 0.74460  0.44990  0.38850  Biso   1.000  C
  C252     1.0000 0.79970  0.41510  0.39586  Biso   1.000  C
  C253     1.0000 0.81220  0.37360  0.37213  Biso   1.000  C
  C254     1.0000 0.76070  0.36660  0.34473  Biso   1.000  C
  C255     1.0000 0.02930  0.18490  0.63479  Biso   1.000  C
  C256     1.0000 0.01180  0.22070  0.61140  Biso   1.000  C
  C257     1.0000 0.04140  0.27300  0.61420  Biso   1.000  C
  C258     1.0000 0.09070  0.28040  0.64147  Biso   1.000  C
  C259     1.0000 0.10770  0.23740  0.66289  Biso   1.000  C
  C260     1.0000 0.15710  0.70840  0.57950  Biso   1.000  C
  C261     1.0000 0.11720  0.66340  0.57550  Biso   1.000  C
  C262     1.0000 0.12670  0.63350  0.54538  Biso   1.000  C
  C263     1.0000 0.17710  0.65110  0.52070  Biso   1.000  C
  C264     1.0000 0.21100  0.70050  0.52766  Biso   1.000  C
  C265     1.0000 0.84450  0.41890  0.42898  Biso   1.000  C
  C266     1.0000 0.84090  0.46770  0.44976  Biso   1.000  C
  C267     1.0000 0.88520  0.47330  0.47933  Biso   1.000  C
  C268     1.0000 0.93030  0.43120  0.48986  Biso   1.000  C
  C269     1.0000 0.93360  0.38630  0.46944  Biso   1.000  C
  C270     1.0000 0.89130  0.37920  0.44044  Biso   1.000  C
  C271     1.0000 0.02630  0.31390  0.58913  Biso   1.000  C
  C272     1.0000 0.96070  0.31500  0.56991  Biso   1.000  C
  C273     1.0000 0.94200  0.35710  0.54923  Biso   1.000  C
  C274     1.0000 0.99330  0.39660  0.54198  Biso   1.000  C
  C275     1.0000 0.05870  0.39560  0.56082  Biso   1.000  C
  C276     1.0000 0.07500  0.35630  0.58401  Biso   1.000  C
  C277     1.0000 0.01140  0.48990  0.52460  Biso   1.000  C
  C278     1.0000 0.05250  0.51060  0.49859  Biso   1.000  C
  C279     1.0000 0.09280  0.55750  0.50479  Biso   1.000  C
  C280     1.0000 0.08680  0.58280  0.53806  Biso   1.000  C
  C281     1.0000 0.04490  0.56070  0.56345  Biso   1.000  C
  C282     1.0000 0.00250  0.51500  0.55650  Biso   1.000  C
  C283     1.0000 0.68570  0.95350  0.37172  Biso   1.000  C
  C284     1.0000 0.72390  0.95710  0.40335  Biso   1.000  C
  C285     1.0000 0.78500  0.92100  0.40972  Biso   1.000  C
  C286     1.0000 0.79720  0.88250  0.38342  Biso   1.000  C
  C287     1.0000 0.75030  0.88330  0.35126  Biso   1.000  C
  C288     1.0000 0.20060  0.19760  0.56234  Biso   1.000  C
  C289     1.0000 0.15760  0.15270  0.56040  Biso   1.000  C
  C290     1.0000 0.15840  0.11550  0.53098  Biso   1.000  C
  C291     1.0000 0.20440  0.12770  0.50548  Biso   1.000  C
  C292     1.0000 0.24910  0.17670  0.50870  Biso   1.000  C
  C293     1.0000 0.97630  0.68970  0.65514  Biso   1.000  C
  C294     1.0000 0.96430  0.72960  0.62888  Biso   1.000  C
  C295     1.0000 0.00620  0.77270  0.62965  Biso   1.000  C
  C296     1.0000 0.06040  0.77800  0.65536  Biso   1.000  C
  C297     1.0000 0.06940  0.73590  0.67919  Biso   1.000  C
  C298     1.0000 0.82720  0.92400  0.44175  Biso   1.000  C
  C299     1.0000 0.83350  0.97060  0.46056  Biso   1.000  C
  C300     1.0000 0.87700  0.97520  0.49007  Biso   1.000  C
  C301     1.0000 0.91960  0.93310  0.50060  Biso   1.000  C
  C302     1.0000 0.91560  0.88690  0.48128  Biso   1.000  C
  C303     1.0000 0.87110  0.88210  0.45279  Biso   1.000  C
  C304     1.0000 0.04870  0.00020  0.49830  Biso   1.000  C
  C305     1.0000 0.09590  0.04290  0.49920  Biso   1.000  C
  C306     1.0000 0.11010  0.06830  0.53106  Biso   1.000  C
  C307     1.0000 0.07720  0.05100  0.56203  Biso   1.000  C
  C308     1.0000 0.03000  0.00830  0.56113  Biso   1.000  C
  C309     1.0000 0.01570  0.98290  0.52927  Biso   1.000  C
  C310     1.0000 0.04760  0.88790  0.56817  Biso   1.000  C
  C311     1.0000 0.05780  0.84750  0.59200  Biso   1.000  C
  C312     1.0000 0.99910  0.81600  0.60386  Biso   1.000  C
  C313     1.0000 0.92860  0.82590  0.58848  Biso   1.000  C
  C314     1.0000 0.91860  0.86760  0.56362  Biso   1.000  C
  C315     1.0000 0.97880  0.89660  0.55360  Biso   1.000  C
  C316     1.0000 0.00720  0.55930  0.80625  Biso   1.000  C
  C317     1.0000 0.06380  0.51750  0.81496  Biso   1.000  C
  C318     1.0000 0.12550  0.51420  0.79376  Biso   1.000  C
  C319     1.0000 0.17560  0.47470  0.80029  Biso   1.000  C
  C320     1.0000 0.16410  0.44040  0.82713  Biso   1.000  C
  C321     1.0000 0.10360  0.44320  0.84885  Biso   1.000  C
  C322     1.0000 0.04750  0.48100  0.84239  Biso   1.000  C
  C323     1.0000 0.19840  0.33530  0.81041  Biso   1.000  C
  C324     1.0000 0.12870  0.32190  0.80572  Biso   1.000  C
  C325     1.0000 0.11110  0.27690  0.78580  Biso   1.000  C
  C326     1.0000 0.16140  0.24560  0.77217  Biso   1.000  C
  C327     1.0000 0.23270  0.25660  0.77844  Biso   1.000  C
  C328     1.0000 0.25390  0.30280  0.79859  Biso   1.000  C
  C329     1.0000 0.14240  0.19970  0.75083  Biso   1.000  C
  C330     1.0000 0.03830  0.05160  0.82316  Biso   1.000  C
  C331     1.0000 0.08450  0.00790  0.83468  Biso   1.000  C
  C332     1.0000 0.15750  0.00680  0.82557  Biso   1.000  C
  C333     1.0000 0.20110  0.96550  0.83697  Biso   1.000  C
  C334     1.0000 0.17180  0.92520  0.85748  Biso   1.000  C
  C335     1.0000 0.09880  0.92640  0.86658  Biso   1.000  C
  C336     1.0000 0.05520  0.96770  0.85518  Biso   1.000  C
  C337     1.0000 0.20570  0.82200  0.83868  Biso   1.000  C
  C338     1.0000 0.24830  0.81880  0.80893  Biso   1.000  C
  C339     1.0000 0.23270  0.77830  0.78368  Biso   1.000  C
  C340     1.0000 0.17080  0.74560  0.78833  Biso   1.000  C
  C341     1.0000 0.12980  0.75180  0.81896  Biso   1.000  C
  C342     1.0000 0.14680  0.78910  0.84488  Biso   1.000  C
  C343     1.0000 0.14960  0.70420  0.76319  Biso   1.000  C
  C344     1.0000 0.80070  0.55880  0.86048  Biso   1.000  C
  C345     1.0000 0.75540  0.55010  0.88850  Biso   1.000  C
  C346     1.0000 0.70030  0.58490  0.89586  Biso   1.000  C
  C347     1.0000 0.68780  0.62640  0.87213  Biso   1.000  C
  C348     1.0000 0.73930  0.63340  0.84473  Biso   1.000  C
  C349     1.0000 0.47070  0.81510  0.13479  Biso   1.000  C
  C350     1.0000 0.48820  0.77930  0.11140  Biso   1.000  C
  C351     1.0000 0.45860  0.72700  0.11420  Biso   1.000  C
  C352     1.0000 0.40930  0.71960  0.14147  Biso   1.000  C
  C353     1.0000 0.39230  0.76260  0.16289  Biso   1.000  C
  C354     1.0000 0.34290  0.29160  0.07950  Biso   1.000  C
  C355     1.0000 0.38280  0.33660  0.07550  Biso   1.000  C
  C356     1.0000 0.37330  0.36650  0.04538  Biso   1.000  C
  C357     1.0000 0.32290  0.34890  0.02070  Biso   1.000  C
  C358     1.0000 0.28900  0.29950  0.02766  Biso   1.000  C
  C359     1.0000 0.65550  0.58110  0.92898  Biso   1.000  C
  C360     1.0000 0.65910  0.53230  0.94976  Biso   1.000  C
  C361     1.0000 0.61480  0.52670  0.97933  Biso   1.000  C
  C362     1.0000 0.56970  0.56880  0.98986  Biso   1.000  C
  C363     1.0000 0.56640  0.61370  0.96944  Biso   1.000  C
  C364     1.0000 0.60870  0.62080  0.94044  Biso   1.000  C
  C365     1.0000 0.47370  0.68610  0.08913  Biso   1.000  C
  C366     1.0000 0.53930  0.68500  0.06991  Biso   1.000  C
  C367     1.0000 0.55800  0.64290  0.04923  Biso   1.000  C
  C368     1.0000 0.50670  0.60340  0.04198  Biso   1.000  C
  C369     1.0000 0.44130  0.60440  0.06082  Biso   1.000  C
  C370     1.0000 0.42500  0.64370  0.08401  Biso   1.000  C
  C371     1.0000 0.48860  0.51010  0.02460  Biso   1.000  C
  C372     1.0000 0.44750  0.48940  0.99859  Biso   1.000  C
  C373     1.0000 0.40720  0.44250  0.00479  Biso   1.000  C
  C374     1.0000 0.41320  0.41720  0.03806  Biso   1.000  C
  C375     1.0000 0.45510  0.43930  0.06345  Biso   1.000  C
  C376     1.0000 0.49750  0.48500  0.05650  Biso   1.000  C
  S1       1.0000 0.72735  0.11033  0.16408  Biso   1.000  S
  S2       1.0000 0.72739  0.62933  0.13068  Biso   1.000  S
  S3       1.0000 0.77265  0.88967  0.66408  Biso   1.000  S
  S4       1.0000 0.77261  0.37067  0.63068  Biso   1.000  S
  S5       1.0000 0.27265  0.61033  0.33592  Biso   1.000  S
  S6       1.0000 0.27261  0.12933  0.36932  Biso   1.000  S
  S7       1.0000 0.22735  0.38967  0.83592  Biso   1.000  S
  S8       1.0000 0.22739  0.87067  0.86932  Biso   1.000  S
  N1       1.0000 0.19840  0.58330  0.65237  Biso   1.000  N
  N2       1.0000 0.74330  0.29120  0.46358  Biso   1.000  N
  N3       1.0000 0.52690  0.80643  0.31946  Biso   1.000  N
  N4       1.0000 0.46750  0.56160  0.47125  Biso   1.000  N
  N5       1.0000 0.29160  0.90120  0.16315  Biso   1.000  N
  N6       1.0000 0.92350  0.69011  0.83844  Biso   1.000  N
  N7       1.0000 0.79650  0.22540  0.94551  Biso   1.000  N
  N8       1.0000 0.02300  0.94060  0.98066  Biso   1.000  N
  N9       1.0000 0.30160  0.41670  0.15237  Biso   1.000  N
  N10      1.0000 0.75670  0.70880  0.96358  Biso   1.000  N
  N11      1.0000 0.97310  0.19357  0.81946  Biso   1.000  N
  N12      1.0000 0.03250  0.43840  0.97125  Biso   1.000  N
  N13      1.0000 0.20840  0.09880  0.66315  Biso   1.000  N
  N14      1.0000 0.57650  0.30989  0.33844  Biso   1.000  N
  N15      1.0000 0.70350  0.77460  0.44551  Biso   1.000  N
  N16      1.0000 0.47700  0.05940  0.48066  Biso   1.000  N
  N17      1.0000 0.80160  0.08330  0.84763  Biso   1.000  N
  N18      1.0000 0.25670  0.79120  0.03642  Biso   1.000  N
  N19      1.0000 0.47310  0.30643  0.18054  Biso   1.000  N
  N20      1.0000 0.53250  0.06160  0.02875  Biso   1.000  N
  N21      1.0000 0.70840  0.40120  0.33685  Biso   1.000  N
  N22      1.0000 0.07650  0.19011  0.66156  Biso   1.000  N
  N23      1.0000 0.20350  0.72540  0.55449  Biso   1.000  N
  N24      1.0000 0.97700  0.44060  0.51934  Biso   1.000  N
  N25      1.0000 0.69840  0.91670  0.34763  Biso   1.000  N
  N26      1.0000 0.24330  0.20880  0.53642  Biso   1.000  N
  N27      1.0000 0.02690  0.69357  0.68054  Biso   1.000  N
  N28      1.0000 0.96750  0.93840  0.52875  Biso   1.000  N
  N29      1.0000 0.79160  0.59880  0.83685  Biso   1.000  N
  N30      1.0000 0.42350  0.80989  0.16156  Biso   1.000  N
  N31      1.0000 0.29650  0.27460  0.05449  Biso   1.000  N
  N32      1.0000 0.52300  0.55940  0.01934  Biso   1.000  N
  O1       1.0000 0.50890  0.91627  0.22057  Biso   1.000  O
  O2       1.0000 0.45720  0.93544  0.16960  Biso   1.000  O
  O3       1.0000 0.68950  0.31573  0.27060  Biso   1.000  O
  O4       1.0000 0.57950  0.31887  0.24932  Biso   1.000  O
  O5       1.0000 0.58540  0.80966  0.23852  Biso   1.000  O
  O6       1.0000 0.70340  0.80760  0.25654  Biso   1.000  O
  O7       1.0000 0.47780  0.44297  0.16266  Biso   1.000  O
  O8       1.0000 0.55690  0.41963  0.20329  Biso   1.000  O
  O9       1.0000 0.72100  0.12395  0.12669  Biso   1.000  O
  O10      1.0000 0.79350  0.09392  0.17822  Biso   1.000  O
  O11      1.0000 0.80140  0.61325  0.13498  Biso   1.000  O
  O12      1.0000 0.70370  0.64678  0.09690  Biso   1.000  O
  O13      1.0000 0.63650  0.90434  0.28151  Biso   1.000  O
  O14      1.0000 0.34700  0.93720  0.24235  Biso   1.000  O
  O15      1.0000 0.99110  0.08373  0.72057  Biso   1.000  O
  O16      1.0000 0.04280  0.06456  0.66960  Biso   1.000  O
  O17      1.0000 0.81050  0.68427  0.77060  Biso   1.000  O
  O18      1.0000 0.92050  0.68113  0.74932  Biso   1.000  O
  O19      1.0000 0.91460  0.19034  0.73852  Biso   1.000  O
  O20      1.0000 0.79660  0.19240  0.75654  Biso   1.000  O
  O21      1.0000 0.02220  0.55703  0.66266  Biso   1.000  O
  O22      1.0000 0.94310  0.58037  0.70329  Biso   1.000  O
  O23      1.0000 0.77900  0.87605  0.62669  Biso   1.000  O
  O24      1.0000 0.70650  0.90608  0.67822  Biso   1.000  O
  O25      1.0000 0.69860  0.38675  0.63498  Biso   1.000  O
  O26      1.0000 0.79630  0.35322  0.59690  Biso   1.000  O
  O27      1.0000 0.86350  0.09566  0.78151  Biso   1.000  O
  O28      1.0000 0.15300  0.06280  0.74235  Biso   1.000  O
  O29      1.0000 0.49110  0.41627  0.27943  Biso   1.000  O
  O30      1.0000 0.54280  0.43544  0.33040  Biso   1.000  O
  O31      1.0000 0.31050  0.81573  0.22940  Biso   1.000  O
  O32      1.0000 0.42050  0.81887  0.25068  Biso   1.000  O
  O33      1.0000 0.41460  0.30966  0.26148  Biso   1.000  O
  O34      1.0000 0.29660  0.30760  0.24346  Biso   1.000  O
  O35      1.0000 0.52220  0.94297  0.33734  Biso   1.000  O
  O36      1.0000 0.44310  0.91963  0.29671  Biso   1.000  O
  O37      1.0000 0.27900  0.62395  0.37331  Biso   1.000  O
  O38      1.0000 0.20650  0.59392  0.32178  Biso   1.000  O
  O39      1.0000 0.19860  0.11325  0.36502  Biso   1.000  O
  O40      1.0000 0.29630  0.14678  0.40310  Biso   1.000  O
  O41      1.0000 0.36350  0.40434  0.21849  Biso   1.000  O
  O42      1.0000 0.65300  0.43720  0.25765  Biso   1.000  O
  O43      1.0000 0.00890  0.58373  0.77943  Biso   1.000  O
  O44      1.0000 0.95720  0.56456  0.83040  Biso   1.000  O
  O45      1.0000 0.18950  0.18427  0.72940  Biso   1.000  O
  O46      1.0000 0.07950  0.18113  0.75068  Biso   1.000  O
  O47      1.0000 0.08540  0.69034  0.76148  Biso   1.000  O
  O48      1.0000 0.20340  0.69240  0.74346  Biso   1.000  O
  O49      1.0000 0.97780  0.05703  0.83734  Biso   1.000  O
  O50      1.0000 0.05690  0.08037  0.79671  Biso   1.000  O
  O51      1.0000 0.22100  0.37605  0.87331  Biso   1.000  O
  O52      1.0000 0.29350  0.40608  0.82178  Biso   1.000  O
  O53      1.0000 0.30140  0.88675  0.86502  Biso   1.000  O
  O54      1.0000 0.20370  0.85322  0.90310  Biso   1.000  O
  O55      1.0000 0.13650  0.59566  0.71849  Biso   1.000  O
  O56      1.0000 0.84700  0.56280  0.75765  Biso   1.000  O
