data_image0
_cell_length_a       23.9011
_cell_length_b       34.6395
_cell_length_c       13.4553
_cell_angle_alpha    90
_cell_angle_beta     90
_cell_angle_gamma    90

_symmetry_space_group_name_H-M    "P 1"
_symmetry_int_tables_number       1

loop_
  _symmetry_equiv_pos_as_xyz
  'x, y, z'

loop_
  _atom_site_label
  _atom_site_occupancy
  _atom_site_fract_x
  _atom_site_fract_y
  _atom_site_fract_z
  _atom_site_thermal_displace_type
  _atom_site_B_iso_or_equiv
  _atom_site_type_symbol
  C1       1.0000 0.30508  0.43955  0.57735  Biso   1.000  C
  H1       1.0000 0.32820  0.45430  0.53690  Biso   1.000  H
  C2       1.0000 0.31341  0.43417  0.68109  Biso   1.000  C
  H2       1.0000 0.34210  0.44450  0.71970  Biso   1.000  H
  C3       1.0000 0.27112  0.41096  0.71251  Biso   1.000  C
  H3       1.0000 0.26540  0.40230  0.77710  Biso   1.000  H
  C4       1.0000 0.23725  0.40237  0.62866  Biso   1.000  C
  C5       1.0000 0.18937  0.37874  0.62600  Biso   1.000  C
  C6       1.0000 0.15852  0.36849  0.54353  Biso   1.000  C
  C7       1.0000 0.10821  0.34586  0.54009  Biso   1.000  C
  H4       1.0000 0.09000  0.33500  0.59430  Biso   1.000  H
  C8       1.0000 0.09187  0.34319  0.44249  Biso   1.000  C
  H5       1.0000 0.06100  0.33000  0.41750  Biso   1.000  H
  C9       1.0000 0.13185  0.36466  0.38799  Biso   1.000  C
  H6       1.0000 0.13060  0.36800  0.31940  Biso   1.000  H
  C10      1.0000 0.16924  0.36375  0.72374  Biso   1.000  C
  C11      1.0000 0.15393  0.38926  0.79938  Biso   1.000  C
  H7       1.0000 0.15690  0.41570  0.78860  Biso   1.000  H
  C12      1.0000 0.13437  0.37606  0.89021  Biso   1.000  C
  H8       1.0000 0.12400  0.39340  0.93980  Biso   1.000  H
  C13      1.0000 0.13055  0.33646  0.90581  Biso   1.000  C
  C14      1.0000 0.14551  0.31032  0.83199  Biso   1.000  C
  H9       1.0000 0.14290  0.28390  0.84330  Biso   1.000  H
  C15      1.0000 0.16438  0.32430  0.74098  Biso   1.000  C
  H10      1.0000 0.17390  0.30700  0.69090  Biso   1.000  H
  C16      1.0000 0.11564  0.33867  0.09222  Biso   1.000  C
  H11      1.0000 0.13410  0.36140  0.10840  Biso   1.000  H
  C17      1.0000 0.08867  0.31470  0.15430  Biso   1.000  C
  H12      1.0000 0.08590  0.31830  0.22260  Biso   1.000  H
  C18      1.0000 0.07961  0.28934  0.01031  Biso   1.000  C
  H13      1.0000 0.06980  0.27270  0.95890  Biso   1.000  H
  C19      1.0000 0.17746  0.14255  0.92087  Biso   1.000  C
  H14      1.0000 0.17680  0.13900  0.98940  Biso   1.000  H
  C20      1.0000 0.14389  0.17003  0.87130  Biso   1.000  C
  H15      1.0000 0.11850  0.18720  0.89960  Biso   1.000  H
  C21      1.0000 0.15681  0.16592  0.77250  Biso   1.000  C
  H16      1.0000 0.14170  0.17990  0.72000  Biso   1.000  H
  C22      1.0000 0.19784  0.13619  0.76575  Biso   1.000  C
  C23      1.0000 0.22218  0.12172  0.67880  Biso   1.000  C
  C24      1.0000 0.26636  0.09484  0.67296  Biso   1.000  C
  C25      1.0000 0.28794  0.07792  0.58439  Biso   1.000  C
  H17      1.0000 0.27480  0.08180  0.52010  Biso   1.000  H
  C26      1.0000 0.33183  0.05474  0.61195  Biso   1.000  C
  H18      1.0000 0.35440  0.04000  0.57050  Biso   1.000  H
  C27      1.0000 0.33555  0.05792  0.71565  Biso   1.000  C
  H19      1.0000 0.36230  0.04520  0.75370  Biso   1.000  H
  C28      1.0000 0.19955  0.13565  0.58249  Biso   1.000  C
  C29      1.0000 0.14439  0.12826  0.55660  Biso   1.000  C
  H20      1.0000 0.12110  0.11550  0.60130  Biso   1.000  H
  C30      1.0000 0.12341  0.13969  0.46430  Biso   1.000  C
  H21      1.0000 0.08700  0.13360  0.44590  Biso   1.000  H
  C31      1.0000 0.15752  0.16000  0.40145  Biso   1.000  C
  C32      1.0000 0.21213  0.16787  0.42530  Biso   1.000  C
  H22      1.0000 0.23500  0.18120  0.38100  Biso   1.000  H
  C33      1.0000 0.23273  0.15575  0.51599  Biso   1.000  C
  H23      1.0000 0.26960  0.16120  0.53270  Biso   1.000  H
  C34      1.0000 0.16186  0.17813  0.21897  Biso   1.000  C
  H24      1.0000 0.19860  0.17160  0.20390  Biso   1.000  H
  C35      1.0000 0.12366  0.19393  0.15780  Biso   1.000  C
  H25      1.0000 0.13010  0.20020  0.09160  Biso   1.000  H
  C36      1.0000 0.08252  0.18768  0.29799  Biso   1.000  C
  H26      1.0000 0.05620  0.18880  0.34880  Biso   1.000  H
  C37      1.0000 0.12484  0.46583  0.46879  Biso   1.000  C
  H27      1.0000 0.10670  0.44240  0.47950  Biso   1.000  H
  C38      1.0000 0.33217  0.46630  0.31650  Biso   1.000  C
  H28      1.0000 0.34930  0.44290  0.30100  Biso   1.000  H
  N1       1.0000 0.25978  0.42073  0.54551  Biso   1.000  N
  N2       1.0000 0.17143  0.37951  0.44620  Biso   1.000  N
  N3       1.0000 0.11003  0.32214  0.99850  Biso   1.000  N
  N4       1.0000 0.06584  0.28421  0.10382  Biso   1.000  N
  N5       1.0000 0.20971  0.12244  0.86118  Biso   1.000  N
  N6       1.0000 0.29686  0.08106  0.75368  Biso   1.000  N
  N7       1.0000 0.13479  0.17370  0.30900  Biso   1.000  N
  N8       1.0000 0.07340  0.19955  0.20702  Biso   1.000  N
  N9       1.0000 0.28163  0.46578  0.35992  Biso   1.000  N
  N10      1.0000 0.17763  0.46591  0.43608  Biso   1.000  N
  Ni1      1.0000 0.23096  0.41706  0.40097  Biso   1.000  Ni
  C39      1.0000 0.80508  0.93955  0.07735  Biso   1.000  C
  H29      1.0000 0.82820  0.95430  0.03690  Biso   1.000  H
  C40      1.0000 0.81341  0.93417  0.18109  Biso   1.000  C
  H30      1.0000 0.84210  0.94450  0.21970  Biso   1.000  H
  C41      1.0000 0.77112  0.91096  0.21251  Biso   1.000  C
  H31      1.0000 0.76540  0.90230  0.27710  Biso   1.000  H
  C42      1.0000 0.73725  0.90237  0.12866  Biso   1.000  C
  C43      1.0000 0.68937  0.87874  0.12600  Biso   1.000  C
  C44      1.0000 0.65852  0.86849  0.04353  Biso   1.000  C
  C45      1.0000 0.60821  0.84586  0.04009  Biso   1.000  C
  H32      1.0000 0.59000  0.83500  0.09430  Biso   1.000  H
  C46      1.0000 0.59187  0.84319  0.94249  Biso   1.000  C
  H33      1.0000 0.56100  0.83000  0.91750  Biso   1.000  H
  C47      1.0000 0.63185  0.86466  0.88799  Biso   1.000  C
  H34      1.0000 0.63060  0.86800  0.81940  Biso   1.000  H
  C48      1.0000 0.66924  0.86375  0.22374  Biso   1.000  C
  C49      1.0000 0.65393  0.88926  0.29938  Biso   1.000  C
  H35      1.0000 0.65690  0.91570  0.28860  Biso   1.000  H
  C50      1.0000 0.63437  0.87606  0.39021  Biso   1.000  C
  H36      1.0000 0.62400  0.89340  0.43980  Biso   1.000  H
  C51      1.0000 0.63055  0.83646  0.40581  Biso   1.000  C
  C52      1.0000 0.64551  0.81032  0.33199  Biso   1.000  C
  H37      1.0000 0.64290  0.78390  0.34330  Biso   1.000  H
  C53      1.0000 0.66438  0.82430  0.24098  Biso   1.000  C
  H38      1.0000 0.67390  0.80700  0.19090  Biso   1.000  H
  C54      1.0000 0.61564  0.83867  0.59222  Biso   1.000  C
  H39      1.0000 0.63410  0.86140  0.60840  Biso   1.000  H
  C55      1.0000 0.58867  0.81470  0.65430  Biso   1.000  C
  H40      1.0000 0.58590  0.81830  0.72260  Biso   1.000  H
  C56      1.0000 0.57961  0.78934  0.51031  Biso   1.000  C
  H41      1.0000 0.56980  0.77270  0.45890  Biso   1.000  H
  C57      1.0000 0.67746  0.64255  0.42087  Biso   1.000  C
  H42      1.0000 0.67680  0.63900  0.48940  Biso   1.000  H
  C58      1.0000 0.64389  0.67003  0.37130  Biso   1.000  C
  H43      1.0000 0.61850  0.68720  0.39960  Biso   1.000  H
  C59      1.0000 0.65681  0.66592  0.27250  Biso   1.000  C
  H44      1.0000 0.64170  0.67990  0.22000  Biso   1.000  H
  C60      1.0000 0.69784  0.63619  0.26575  Biso   1.000  C
  C61      1.0000 0.72218  0.62172  0.17880  Biso   1.000  C
  C62      1.0000 0.76636  0.59484  0.17296  Biso   1.000  C
  C63      1.0000 0.78794  0.57792  0.08439  Biso   1.000  C
  H45      1.0000 0.77480  0.58180  0.02010  Biso   1.000  H
  C64      1.0000 0.83183  0.55474  0.11195  Biso   1.000  C
  H46      1.0000 0.85440  0.54000  0.07050  Biso   1.000  H
  C65      1.0000 0.83555  0.55792  0.21565  Biso   1.000  C
  H47      1.0000 0.86230  0.54520  0.25370  Biso   1.000  H
  C66      1.0000 0.69955  0.63565  0.08249  Biso   1.000  C
  C67      1.0000 0.64439  0.62826  0.05660  Biso   1.000  C
  H48      1.0000 0.62110  0.61550  0.10130  Biso   1.000  H
  C68      1.0000 0.62341  0.63969  0.96430  Biso   1.000  C
  H49      1.0000 0.58700  0.63360  0.94590  Biso   1.000  H
  C69      1.0000 0.65752  0.66000  0.90145  Biso   1.000  C
  C70      1.0000 0.71213  0.66787  0.92530  Biso   1.000  C
  H50      1.0000 0.73500  0.68120  0.88100  Biso   1.000  H
  C71      1.0000 0.73273  0.65575  0.01599  Biso   1.000  C
  H51      1.0000 0.76960  0.66120  0.03270  Biso   1.000  H
  C72      1.0000 0.66186  0.67813  0.71897  Biso   1.000  C
  H52      1.0000 0.69860  0.67160  0.70390  Biso   1.000  H
  C73      1.0000 0.62366  0.69393  0.65780  Biso   1.000  C
  H53      1.0000 0.63010  0.70020  0.59160  Biso   1.000  H
  C74      1.0000 0.58252  0.68768  0.79799  Biso   1.000  C
  H54      1.0000 0.55620  0.68880  0.84880  Biso   1.000  H
  C75      1.0000 0.62484  0.96583  0.96879  Biso   1.000  C
  H55      1.0000 0.60670  0.94240  0.97950  Biso   1.000  H
  C76      1.0000 0.83217  0.96630  0.81650  Biso   1.000  C
  H56      1.0000 0.84930  0.94290  0.80100  Biso   1.000  H
  N11      1.0000 0.75978  0.92073  0.04551  Biso   1.000  N
  N12      1.0000 0.67143  0.87951  0.94620  Biso   1.000  N
  N13      1.0000 0.61003  0.82214  0.49850  Biso   1.000  N
  N14      1.0000 0.56584  0.78421  0.60382  Biso   1.000  N
  N15      1.0000 0.70971  0.62244  0.36118  Biso   1.000  N
  N16      1.0000 0.79686  0.58106  0.25368  Biso   1.000  N
  N17      1.0000 0.63479  0.67370  0.80900  Biso   1.000  N
  N18      1.0000 0.57340  0.69955  0.70702  Biso   1.000  N
  N19      1.0000 0.78163  0.96578  0.85992  Biso   1.000  N
  N20      1.0000 0.67763  0.96591  0.93608  Biso   1.000  N
  Ni2      1.0000 0.73096  0.91706  0.90097  Biso   1.000  Ni
  C77      1.0000 0.69492  0.56045  0.57735  Biso   1.000  C
  H57      1.0000 0.67180  0.54570  0.53690  Biso   1.000  H
  C78      1.0000 0.68659  0.56583  0.68109  Biso   1.000  C
  H58      1.0000 0.65790  0.55550  0.71970  Biso   1.000  H
  C79      1.0000 0.72888  0.58904  0.71251  Biso   1.000  C
  H59      1.0000 0.73460  0.59770  0.77710  Biso   1.000  H
  C80      1.0000 0.76275  0.59763  0.62866  Biso   1.000  C
  C81      1.0000 0.81063  0.62126  0.62600  Biso   1.000  C
  C82      1.0000 0.84148  0.63151  0.54353  Biso   1.000  C
  C83      1.0000 0.89179  0.65414  0.54009  Biso   1.000  C
  H60      1.0000 0.91000  0.66500  0.59430  Biso   1.000  H
  C84      1.0000 0.90813  0.65681  0.44249  Biso   1.000  C
  H61      1.0000 0.93900  0.67000  0.41750  Biso   1.000  H
  C85      1.0000 0.86815  0.63534  0.38799  Biso   1.000  C
  H62      1.0000 0.86940  0.63200  0.31940  Biso   1.000  H
  C86      1.0000 0.83076  0.63625  0.72374  Biso   1.000  C
  C87      1.0000 0.84607  0.61074  0.79938  Biso   1.000  C
  H63      1.0000 0.84310  0.58430  0.78860  Biso   1.000  H
  C88      1.0000 0.86563  0.62394  0.89021  Biso   1.000  C
  H64      1.0000 0.87600  0.60660  0.93980  Biso   1.000  H
  C89      1.0000 0.86945  0.66354  0.90581  Biso   1.000  C
  C90      1.0000 0.85449  0.68968  0.83199  Biso   1.000  C
  H65      1.0000 0.85710  0.71610  0.84330  Biso   1.000  H
  C91      1.0000 0.83562  0.67570  0.74098  Biso   1.000  C
  H66      1.0000 0.82610  0.69300  0.69090  Biso   1.000  H
  C92      1.0000 0.88436  0.66133  0.09222  Biso   1.000  C
  H67      1.0000 0.86590  0.63860  0.10840  Biso   1.000  H
  C93      1.0000 0.91133  0.68530  0.15430  Biso   1.000  C
  H68      1.0000 0.91410  0.68170  0.22260  Biso   1.000  H
  C94      1.0000 0.92039  0.71066  0.01031  Biso   1.000  C
  H69      1.0000 0.93020  0.72730  0.95890  Biso   1.000  H
  C95      1.0000 0.82254  0.85745  0.92087  Biso   1.000  C
  H70      1.0000 0.82320  0.86100  0.98940  Biso   1.000  H
  C96      1.0000 0.85611  0.82997  0.87130  Biso   1.000  C
  H71      1.0000 0.88150  0.81280  0.89960  Biso   1.000  H
  C97      1.0000 0.84319  0.83408  0.77250  Biso   1.000  C
  H72      1.0000 0.85830  0.82010  0.72000  Biso   1.000  H
  C98      1.0000 0.80216  0.86381  0.76575  Biso   1.000  C
  C99      1.0000 0.77782  0.87828  0.67880  Biso   1.000  C
  C100     1.0000 0.73364  0.90516  0.67296  Biso   1.000  C
  C101     1.0000 0.71206  0.92208  0.58439  Biso   1.000  C
  H73      1.0000 0.72520  0.91820  0.52010  Biso   1.000  H
  C102     1.0000 0.66817  0.94526  0.61195  Biso   1.000  C
  H74      1.0000 0.64560  0.96000  0.57050  Biso   1.000  H
  C103     1.0000 0.66445  0.94208  0.71565  Biso   1.000  C
  H75      1.0000 0.63770  0.95480  0.75370  Biso   1.000  H
  C104     1.0000 0.80045  0.86435  0.58249  Biso   1.000  C
  C105     1.0000 0.85561  0.87174  0.55660  Biso   1.000  C
  H76      1.0000 0.87890  0.88450  0.60130  Biso   1.000  H
  C106     1.0000 0.87659  0.86031  0.46430  Biso   1.000  C
  H77      1.0000 0.91300  0.86640  0.44590  Biso   1.000  H
  C107     1.0000 0.84248  0.84000  0.40145  Biso   1.000  C
  C108     1.0000 0.78787  0.83213  0.42530  Biso   1.000  C
  H78      1.0000 0.76500  0.81880  0.38100  Biso   1.000  H
  C109     1.0000 0.76727  0.84425  0.51599  Biso   1.000  C
  H79      1.0000 0.73040  0.83880  0.53270  Biso   1.000  H
  C110     1.0000 0.83814  0.82187  0.21897  Biso   1.000  C
  H80      1.0000 0.80140  0.82840  0.20390  Biso   1.000  H
  C111     1.0000 0.87634  0.80607  0.15780  Biso   1.000  C
  H81      1.0000 0.86990  0.79980  0.09160  Biso   1.000  H
  C112     1.0000 0.91748  0.81232  0.29799  Biso   1.000  C
  H82      1.0000 0.94380  0.81120  0.34880  Biso   1.000  H
  C113     1.0000 0.87516  0.53417  0.46879  Biso   1.000  C
  H83      1.0000 0.89330  0.55760  0.47950  Biso   1.000  H
  C114     1.0000 0.66783  0.53370  0.31650  Biso   1.000  C
  H84      1.0000 0.65070  0.55710  0.30100  Biso   1.000  H
  N21      1.0000 0.74022  0.57927  0.54551  Biso   1.000  N
  N22      1.0000 0.82857  0.62049  0.44620  Biso   1.000  N
  N23      1.0000 0.88997  0.67786  0.99850  Biso   1.000  N
  N24      1.0000 0.93416  0.71579  0.10382  Biso   1.000  N
  N25      1.0000 0.79029  0.87756  0.86118  Biso   1.000  N
  N26      1.0000 0.70314  0.91894  0.75368  Biso   1.000  N
  N27      1.0000 0.86521  0.82630  0.30900  Biso   1.000  N
  N28      1.0000 0.92660  0.80045  0.20702  Biso   1.000  N
  N29      1.0000 0.71837  0.53422  0.35992  Biso   1.000  N
  N30      1.0000 0.82237  0.53409  0.43608  Biso   1.000  N
  Ni3      1.0000 0.76904  0.58294  0.40097  Biso   1.000  Ni
  C115     1.0000 0.19492  0.06045  0.07735  Biso   1.000  C
  H85      1.0000 0.17180  0.04570  0.03690  Biso   1.000  H
  C116     1.0000 0.18659  0.06583  0.18109  Biso   1.000  C
  H86      1.0000 0.15790  0.05550  0.21970  Biso   1.000  H
  C117     1.0000 0.22888  0.08904  0.21251  Biso   1.000  C
  H87      1.0000 0.23460  0.09770  0.27710  Biso   1.000  H
  C118     1.0000 0.26275  0.09763  0.12866  Biso   1.000  C
  C119     1.0000 0.31063  0.12126  0.12600  Biso   1.000  C
  C120     1.0000 0.34148  0.13151  0.04353  Biso   1.000  C
  C121     1.0000 0.39179  0.15414  0.04009  Biso   1.000  C
  H88      1.0000 0.41000  0.16500  0.09430  Biso   1.000  H
  C122     1.0000 0.40813  0.15681  0.94249  Biso   1.000  C
  H89      1.0000 0.43900  0.17000  0.91750  Biso   1.000  H
  C123     1.0000 0.36815  0.13534  0.88799  Biso   1.000  C
  H90      1.0000 0.36940  0.13200  0.81940  Biso   1.000  H
  C124     1.0000 0.33076  0.13625  0.22374  Biso   1.000  C
  C125     1.0000 0.34607  0.11074  0.29938  Biso   1.000  C
  H91      1.0000 0.34310  0.08430  0.28860  Biso   1.000  H
  C126     1.0000 0.36563  0.12394  0.39021  Biso   1.000  C
  H92      1.0000 0.37600  0.10660  0.43980  Biso   1.000  H
  C127     1.0000 0.36945  0.16354  0.40581  Biso   1.000  C
  C128     1.0000 0.35449  0.18968  0.33199  Biso   1.000  C
  H93      1.0000 0.35710  0.21610  0.34330  Biso   1.000  H
  C129     1.0000 0.33562  0.17570  0.24098  Biso   1.000  C
  H94      1.0000 0.32610  0.19300  0.19090  Biso   1.000  H
  C130     1.0000 0.38436  0.16133  0.59222  Biso   1.000  C
  H95      1.0000 0.36590  0.13860  0.60840  Biso   1.000  H
  C131     1.0000 0.41133  0.18530  0.65430  Biso   1.000  C
  H96      1.0000 0.41410  0.18170  0.72260  Biso   1.000  H
  C132     1.0000 0.42039  0.21066  0.51031  Biso   1.000  C
  H97      1.0000 0.43020  0.22730  0.45890  Biso   1.000  H
  C133     1.0000 0.32254  0.35745  0.42087  Biso   1.000  C
  H98      1.0000 0.32320  0.36100  0.48940  Biso   1.000  H
  C134     1.0000 0.35611  0.32997  0.37130  Biso   1.000  C
  H99      1.0000 0.38150  0.31280  0.39960  Biso   1.000  H
  C135     1.0000 0.34319  0.33408  0.27250  Biso   1.000  C
  H100     1.0000 0.35830  0.32010  0.22000  Biso   1.000  H
  C136     1.0000 0.30216  0.36381  0.26575  Biso   1.000  C
  C137     1.0000 0.27782  0.37828  0.17880  Biso   1.000  C
  C138     1.0000 0.23364  0.40516  0.17296  Biso   1.000  C
  C139     1.0000 0.21206  0.42208  0.08439  Biso   1.000  C
  H101     1.0000 0.22520  0.41820  0.02010  Biso   1.000  H
  C140     1.0000 0.16817  0.44526  0.11195  Biso   1.000  C
  H102     1.0000 0.14560  0.46000  0.07050  Biso   1.000  H
  C141     1.0000 0.16445  0.44208  0.21565  Biso   1.000  C
  H103     1.0000 0.13770  0.45480  0.25370  Biso   1.000  H
  C142     1.0000 0.30045  0.36435  0.08249  Biso   1.000  C
  C143     1.0000 0.35561  0.37174  0.05660  Biso   1.000  C
  H104     1.0000 0.37890  0.38450  0.10130  Biso   1.000  H
  C144     1.0000 0.37659  0.36031  0.96430  Biso   1.000  C
  H105     1.0000 0.41300  0.36640  0.94590  Biso   1.000  H
  C145     1.0000 0.34248  0.34000  0.90145  Biso   1.000  C
  C146     1.0000 0.28787  0.33213  0.92530  Biso   1.000  C
  H106     1.0000 0.26500  0.31880  0.88100  Biso   1.000  H
  C147     1.0000 0.26727  0.34425  0.01599  Biso   1.000  C
  H107     1.0000 0.23040  0.33880  0.03270  Biso   1.000  H
  C148     1.0000 0.33814  0.32187  0.71897  Biso   1.000  C
  H108     1.0000 0.30140  0.32840  0.70390  Biso   1.000  H
  C149     1.0000 0.37634  0.30607  0.65780  Biso   1.000  C
  H109     1.0000 0.36990  0.29980  0.59160  Biso   1.000  H
  C150     1.0000 0.41748  0.31232  0.79799  Biso   1.000  C
  H110     1.0000 0.44380  0.31120  0.84880  Biso   1.000  H
  C151     1.0000 0.37516  0.03417  0.96879  Biso   1.000  C
  H111     1.0000 0.39330  0.05760  0.97950  Biso   1.000  H
  C152     1.0000 0.16783  0.03370  0.81650  Biso   1.000  C
  H112     1.0000 0.15070  0.05710  0.80100  Biso   1.000  H
  N31      1.0000 0.24022  0.07927  0.04551  Biso   1.000  N
  N32      1.0000 0.32857  0.12049  0.94620  Biso   1.000  N
  N33      1.0000 0.38997  0.17786  0.49850  Biso   1.000  N
  N34      1.0000 0.43416  0.21579  0.60382  Biso   1.000  N
  N35      1.0000 0.29029  0.37756  0.36118  Biso   1.000  N
  N36      1.0000 0.20314  0.41894  0.25368  Biso   1.000  N
  N37      1.0000 0.36521  0.32630  0.80900  Biso   1.000  N
  N38      1.0000 0.42660  0.30045  0.70702  Biso   1.000  N
  N39      1.0000 0.21837  0.03422  0.85992  Biso   1.000  N
  N40      1.0000 0.32237  0.03409  0.93608  Biso   1.000  N
  Ni4      1.0000 0.26904  0.08294  0.90097  Biso   1.000  Ni
  C153     1.0000 0.30508  0.56045  0.57735  Biso   1.000  C
  H113     1.0000 0.32820  0.54570  0.53690  Biso   1.000  H
  C154     1.0000 0.31341  0.56583  0.68109  Biso   1.000  C
  H114     1.0000 0.34210  0.55550  0.71970  Biso   1.000  H
  C155     1.0000 0.27112  0.58904  0.71251  Biso   1.000  C
  H115     1.0000 0.26540  0.59770  0.77710  Biso   1.000  H
  C156     1.0000 0.23725  0.59763  0.62866  Biso   1.000  C
  C157     1.0000 0.18937  0.62126  0.62600  Biso   1.000  C
  C158     1.0000 0.15852  0.63151  0.54353  Biso   1.000  C
  C159     1.0000 0.10821  0.65414  0.54009  Biso   1.000  C
  H116     1.0000 0.09000  0.66500  0.59430  Biso   1.000  H
  C160     1.0000 0.09187  0.65681  0.44249  Biso   1.000  C
  H117     1.0000 0.06100  0.67000  0.41750  Biso   1.000  H
  C161     1.0000 0.13185  0.63534  0.38799  Biso   1.000  C
  H118     1.0000 0.13060  0.63200  0.31940  Biso   1.000  H
  C162     1.0000 0.16924  0.63625  0.72374  Biso   1.000  C
  C163     1.0000 0.15393  0.61074  0.79938  Biso   1.000  C
  H119     1.0000 0.15690  0.58430  0.78860  Biso   1.000  H
  C164     1.0000 0.13437  0.62394  0.89021  Biso   1.000  C
  H120     1.0000 0.12400  0.60660  0.93980  Biso   1.000  H
  C165     1.0000 0.13055  0.66354  0.90581  Biso   1.000  C
  C166     1.0000 0.14551  0.68968  0.83199  Biso   1.000  C
  H121     1.0000 0.14290  0.71610  0.84330  Biso   1.000  H
  C167     1.0000 0.16438  0.67570  0.74098  Biso   1.000  C
  H122     1.0000 0.17390  0.69300  0.69090  Biso   1.000  H
  C168     1.0000 0.11564  0.66133  0.09222  Biso   1.000  C
  H123     1.0000 0.13410  0.63860  0.10840  Biso   1.000  H
  C169     1.0000 0.08867  0.68530  0.15430  Biso   1.000  C
  H124     1.0000 0.08590  0.68170  0.22260  Biso   1.000  H
  C170     1.0000 0.07961  0.71066  0.01031  Biso   1.000  C
  H125     1.0000 0.06980  0.72730  0.95890  Biso   1.000  H
  C171     1.0000 0.17746  0.85745  0.92087  Biso   1.000  C
  H126     1.0000 0.17680  0.86100  0.98940  Biso   1.000  H
  C172     1.0000 0.14389  0.82997  0.87130  Biso   1.000  C
  H127     1.0000 0.11850  0.81280  0.89960  Biso   1.000  H
  C173     1.0000 0.15681  0.83408  0.77250  Biso   1.000  C
  H128     1.0000 0.14170  0.82010  0.72000  Biso   1.000  H
  C174     1.0000 0.19784  0.86381  0.76575  Biso   1.000  C
  C175     1.0000 0.22218  0.87828  0.67880  Biso   1.000  C
  C176     1.0000 0.26636  0.90516  0.67296  Biso   1.000  C
  C177     1.0000 0.28794  0.92208  0.58439  Biso   1.000  C
  H129     1.0000 0.27480  0.91820  0.52010  Biso   1.000  H
  C178     1.0000 0.33183  0.94526  0.61195  Biso   1.000  C
  H130     1.0000 0.35440  0.96000  0.57050  Biso   1.000  H
  C179     1.0000 0.33555  0.94208  0.71565  Biso   1.000  C
  H131     1.0000 0.36230  0.95480  0.75370  Biso   1.000  H
  C180     1.0000 0.19955  0.86435  0.58249  Biso   1.000  C
  C181     1.0000 0.14439  0.87174  0.55660  Biso   1.000  C
  H132     1.0000 0.12110  0.88450  0.60130  Biso   1.000  H
  C182     1.0000 0.12341  0.86031  0.46430  Biso   1.000  C
  H133     1.0000 0.08700  0.86640  0.44590  Biso   1.000  H
  C183     1.0000 0.15752  0.84000  0.40145  Biso   1.000  C
  C184     1.0000 0.21213  0.83213  0.42530  Biso   1.000  C
  H134     1.0000 0.23500  0.81880  0.38100  Biso   1.000  H
  C185     1.0000 0.23273  0.84425  0.51599  Biso   1.000  C
  H135     1.0000 0.26960  0.83880  0.53270  Biso   1.000  H
  C186     1.0000 0.16186  0.82187  0.21897  Biso   1.000  C
  H136     1.0000 0.19860  0.82840  0.20390  Biso   1.000  H
  C187     1.0000 0.12366  0.80607  0.15780  Biso   1.000  C
  H137     1.0000 0.13010  0.79980  0.09160  Biso   1.000  H
  C188     1.0000 0.08252  0.81232  0.29799  Biso   1.000  C
  H138     1.0000 0.05620  0.81120  0.34880  Biso   1.000  H
  C189     1.0000 0.12484  0.53417  0.46879  Biso   1.000  C
  H139     1.0000 0.10670  0.55760  0.47950  Biso   1.000  H
  C190     1.0000 0.33217  0.53370  0.31650  Biso   1.000  C
  H140     1.0000 0.34930  0.55710  0.30100  Biso   1.000  H
  N41      1.0000 0.25978  0.57927  0.54551  Biso   1.000  N
  N42      1.0000 0.17143  0.62049  0.44620  Biso   1.000  N
  N43      1.0000 0.11003  0.67786  0.99850  Biso   1.000  N
  N44      1.0000 0.06584  0.71579  0.10382  Biso   1.000  N
  N45      1.0000 0.20971  0.87756  0.86118  Biso   1.000  N
  N46      1.0000 0.29686  0.91894  0.75368  Biso   1.000  N
  N47      1.0000 0.13479  0.82630  0.30900  Biso   1.000  N
  N48      1.0000 0.07340  0.80045  0.20702  Biso   1.000  N
  N49      1.0000 0.28163  0.53422  0.35992  Biso   1.000  N
  N50      1.0000 0.17763  0.53409  0.43608  Biso   1.000  N
  Ni5      1.0000 0.23096  0.58294  0.40097  Biso   1.000  Ni
  C191     1.0000 0.80508  0.06045  0.07735  Biso   1.000  C
  H141     1.0000 0.82820  0.04570  0.03690  Biso   1.000  H
  C192     1.0000 0.81341  0.06583  0.18109  Biso   1.000  C
  H142     1.0000 0.84210  0.05550  0.21970  Biso   1.000  H
  C193     1.0000 0.77112  0.08904  0.21251  Biso   1.000  C
  H143     1.0000 0.76540  0.09770  0.27710  Biso   1.000  H
  C194     1.0000 0.73725  0.09763  0.12866  Biso   1.000  C
  C195     1.0000 0.68937  0.12126  0.12600  Biso   1.000  C
  C196     1.0000 0.65852  0.13151  0.04353  Biso   1.000  C
  C197     1.0000 0.60821  0.15414  0.04009  Biso   1.000  C
  H144     1.0000 0.59000  0.16500  0.09430  Biso   1.000  H
  C198     1.0000 0.59187  0.15681  0.94249  Biso   1.000  C
  H145     1.0000 0.56100  0.17000  0.91750  Biso   1.000  H
  C199     1.0000 0.63185  0.13534  0.88799  Biso   1.000  C
  H146     1.0000 0.63060  0.13200  0.81940  Biso   1.000  H
  C200     1.0000 0.66924  0.13625  0.22374  Biso   1.000  C
  C201     1.0000 0.65393  0.11074  0.29938  Biso   1.000  C
  H147     1.0000 0.65690  0.08430  0.28860  Biso   1.000  H
  C202     1.0000 0.63437  0.12394  0.39021  Biso   1.000  C
  H148     1.0000 0.62400  0.10660  0.43980  Biso   1.000  H
  C203     1.0000 0.63055  0.16354  0.40581  Biso   1.000  C
  C204     1.0000 0.64551  0.18968  0.33199  Biso   1.000  C
  H149     1.0000 0.64290  0.21610  0.34330  Biso   1.000  H
  C205     1.0000 0.66438  0.17570  0.24098  Biso   1.000  C
  H150     1.0000 0.67390  0.19300  0.19090  Biso   1.000  H
  C206     1.0000 0.61564  0.16133  0.59222  Biso   1.000  C
  H151     1.0000 0.63410  0.13860  0.60840  Biso   1.000  H
  C207     1.0000 0.58867  0.18530  0.65430  Biso   1.000  C
  H152     1.0000 0.58590  0.18170  0.72260  Biso   1.000  H
  C208     1.0000 0.57961  0.21066  0.51031  Biso   1.000  C
  H153     1.0000 0.56980  0.22730  0.45890  Biso   1.000  H
  C209     1.0000 0.67746  0.35745  0.42087  Biso   1.000  C
  H154     1.0000 0.67680  0.36100  0.48940  Biso   1.000  H
  C210     1.0000 0.64389  0.32997  0.37130  Biso   1.000  C
  H155     1.0000 0.61850  0.31280  0.39960  Biso   1.000  H
  C211     1.0000 0.65681  0.33408  0.27250  Biso   1.000  C
  H156     1.0000 0.64170  0.32010  0.22000  Biso   1.000  H
  C212     1.0000 0.69784  0.36381  0.26575  Biso   1.000  C
  C213     1.0000 0.72218  0.37828  0.17880  Biso   1.000  C
  C214     1.0000 0.76636  0.40516  0.17296  Biso   1.000  C
  C215     1.0000 0.78794  0.42208  0.08439  Biso   1.000  C
  H157     1.0000 0.77480  0.41820  0.02010  Biso   1.000  H
  C216     1.0000 0.83183  0.44526  0.11195  Biso   1.000  C
  H158     1.0000 0.85440  0.46000  0.07050  Biso   1.000  H
  C217     1.0000 0.83555  0.44208  0.21565  Biso   1.000  C
  H159     1.0000 0.86230  0.45480  0.25370  Biso   1.000  H
  C218     1.0000 0.69955  0.36435  0.08249  Biso   1.000  C
  C219     1.0000 0.64439  0.37174  0.05660  Biso   1.000  C
  H160     1.0000 0.62110  0.38450  0.10130  Biso   1.000  H
  C220     1.0000 0.62341  0.36031  0.96430  Biso   1.000  C
  H161     1.0000 0.58700  0.36640  0.94590  Biso   1.000  H
  C221     1.0000 0.65752  0.34000  0.90145  Biso   1.000  C
  C222     1.0000 0.71213  0.33213  0.92530  Biso   1.000  C
  H162     1.0000 0.73500  0.31880  0.88100  Biso   1.000  H
  C223     1.0000 0.73273  0.34425  0.01599  Biso   1.000  C
  H163     1.0000 0.76960  0.33880  0.03270  Biso   1.000  H
  C224     1.0000 0.66186  0.32187  0.71897  Biso   1.000  C
  H164     1.0000 0.69860  0.32840  0.70390  Biso   1.000  H
  C225     1.0000 0.62366  0.30607  0.65780  Biso   1.000  C
  H165     1.0000 0.63010  0.29980  0.59160  Biso   1.000  H
  C226     1.0000 0.58252  0.31232  0.79799  Biso   1.000  C
  H166     1.0000 0.55620  0.31120  0.84880  Biso   1.000  H
  C227     1.0000 0.62484  0.03417  0.96879  Biso   1.000  C
  H167     1.0000 0.60670  0.05760  0.97950  Biso   1.000  H
  C228     1.0000 0.83217  0.03370  0.81650  Biso   1.000  C
  H168     1.0000 0.84930  0.05710  0.80100  Biso   1.000  H
  N51      1.0000 0.75978  0.07927  0.04551  Biso   1.000  N
  N52      1.0000 0.67143  0.12049  0.94620  Biso   1.000  N
  N53      1.0000 0.61003  0.17786  0.49850  Biso   1.000  N
  N54      1.0000 0.56584  0.21579  0.60382  Biso   1.000  N
  N55      1.0000 0.70971  0.37756  0.36118  Biso   1.000  N
  N56      1.0000 0.79686  0.41894  0.25368  Biso   1.000  N
  N57      1.0000 0.63479  0.32630  0.80900  Biso   1.000  N
  N58      1.0000 0.57340  0.30045  0.70702  Biso   1.000  N
  N59      1.0000 0.78163  0.03422  0.85992  Biso   1.000  N
  N60      1.0000 0.67763  0.03409  0.93608  Biso   1.000  N
  Ni6      1.0000 0.73096  0.08294  0.90097  Biso   1.000  Ni
  C229     1.0000 0.69492  0.43955  0.57735  Biso   1.000  C
  H169     1.0000 0.67180  0.45430  0.53690  Biso   1.000  H
  C230     1.0000 0.68659  0.43417  0.68109  Biso   1.000  C
  H170     1.0000 0.65790  0.44450  0.71970  Biso   1.000  H
  C231     1.0000 0.72888  0.41096  0.71251  Biso   1.000  C
  H171     1.0000 0.73460  0.40230  0.77710  Biso   1.000  H
  C232     1.0000 0.76275  0.40237  0.62866  Biso   1.000  C
  C233     1.0000 0.81063  0.37874  0.62600  Biso   1.000  C
  C234     1.0000 0.84148  0.36849  0.54353  Biso   1.000  C
  C235     1.0000 0.89179  0.34586  0.54009  Biso   1.000  C
  H172     1.0000 0.91000  0.33500  0.59430  Biso   1.000  H
  C236     1.0000 0.90813  0.34319  0.44249  Biso   1.000  C
  H173     1.0000 0.93900  0.33000  0.41750  Biso   1.000  H
  C237     1.0000 0.86815  0.36466  0.38799  Biso   1.000  C
  H174     1.0000 0.86940  0.36800  0.31940  Biso   1.000  H
  C238     1.0000 0.83076  0.36375  0.72374  Biso   1.000  C
  C239     1.0000 0.84607  0.38926  0.79938  Biso   1.000  C
  H175     1.0000 0.84310  0.41570  0.78860  Biso   1.000  H
  C240     1.0000 0.86563  0.37606  0.89021  Biso   1.000  C
  H176     1.0000 0.87600  0.39340  0.93980  Biso   1.000  H
  C241     1.0000 0.86945  0.33646  0.90581  Biso   1.000  C
  C242     1.0000 0.85449  0.31032  0.83199  Biso   1.000  C
  H177     1.0000 0.85710  0.28390  0.84330  Biso   1.000  H
  C243     1.0000 0.83562  0.32430  0.74098  Biso   1.000  C
  H178     1.0000 0.82610  0.30700  0.69090  Biso   1.000  H
  C244     1.0000 0.88436  0.33867  0.09222  Biso   1.000  C
  H179     1.0000 0.86590  0.36140  0.10840  Biso   1.000  H
  C245     1.0000 0.91133  0.31470  0.15430  Biso   1.000  C
  H180     1.0000 0.91410  0.31830  0.22260  Biso   1.000  H
  C246     1.0000 0.92039  0.28934  0.01031  Biso   1.000  C
  H181     1.0000 0.93020  0.27270  0.95890  Biso   1.000  H
  C247     1.0000 0.82254  0.14255  0.92087  Biso   1.000  C
  H182     1.0000 0.82320  0.13900  0.98940  Biso   1.000  H
  C248     1.0000 0.85611  0.17003  0.87130  Biso   1.000  C
  H183     1.0000 0.88150  0.18720  0.89960  Biso   1.000  H
  C249     1.0000 0.84319  0.16592  0.77250  Biso   1.000  C
  H184     1.0000 0.85830  0.17990  0.72000  Biso   1.000  H
  C250     1.0000 0.80216  0.13619  0.76575  Biso   1.000  C
  C251     1.0000 0.77782  0.12172  0.67880  Biso   1.000  C
  C252     1.0000 0.73364  0.09484  0.67296  Biso   1.000  C
  C253     1.0000 0.71206  0.07792  0.58439  Biso   1.000  C
  H185     1.0000 0.72520  0.08180  0.52010  Biso   1.000  H
  C254     1.0000 0.66817  0.05474  0.61195  Biso   1.000  C
  H186     1.0000 0.64560  0.04000  0.57050  Biso   1.000  H
  C255     1.0000 0.66445  0.05792  0.71565  Biso   1.000  C
  H187     1.0000 0.63770  0.04520  0.75370  Biso   1.000  H
  C256     1.0000 0.80045  0.13565  0.58249  Biso   1.000  C
  C257     1.0000 0.85561  0.12826  0.55660  Biso   1.000  C
  H188     1.0000 0.87890  0.11550  0.60130  Biso   1.000  H
  C258     1.0000 0.87659  0.13969  0.46430  Biso   1.000  C
  H189     1.0000 0.91300  0.13360  0.44590  Biso   1.000  H
  C259     1.0000 0.84248  0.16000  0.40145  Biso   1.000  C
  C260     1.0000 0.78787  0.16787  0.42530  Biso   1.000  C
  H190     1.0000 0.76500  0.18120  0.38100  Biso   1.000  H
  C261     1.0000 0.76727  0.15575  0.51599  Biso   1.000  C
  H191     1.0000 0.73040  0.16120  0.53270  Biso   1.000  H
  C262     1.0000 0.83814  0.17813  0.21897  Biso   1.000  C
  H192     1.0000 0.80140  0.17160  0.20390  Biso   1.000  H
  C263     1.0000 0.87634  0.19393  0.15780  Biso   1.000  C
  H193     1.0000 0.86990  0.20020  0.09160  Biso   1.000  H
  C264     1.0000 0.91748  0.18768  0.29799  Biso   1.000  C
  H194     1.0000 0.94380  0.18880  0.34880  Biso   1.000  H
  C265     1.0000 0.87516  0.46583  0.46879  Biso   1.000  C
  H195     1.0000 0.89330  0.44240  0.47950  Biso   1.000  H
  C266     1.0000 0.66783  0.46630  0.31650  Biso   1.000  C
  H196     1.0000 0.65070  0.44290  0.30100  Biso   1.000  H
  N61      1.0000 0.74022  0.42073  0.54551  Biso   1.000  N
  N62      1.0000 0.82857  0.37951  0.44620  Biso   1.000  N
  N63      1.0000 0.88997  0.32214  0.99850  Biso   1.000  N
  N64      1.0000 0.93416  0.28421  0.10382  Biso   1.000  N
  N65      1.0000 0.79029  0.12244  0.86118  Biso   1.000  N
  N66      1.0000 0.70314  0.08106  0.75368  Biso   1.000  N
  N67      1.0000 0.86521  0.17370  0.30900  Biso   1.000  N
  N68      1.0000 0.92660  0.19955  0.20702  Biso   1.000  N
  N69      1.0000 0.71837  0.46578  0.35992  Biso   1.000  N
  N70      1.0000 0.82237  0.46591  0.43608  Biso   1.000  N
  Ni7      1.0000 0.76904  0.41706  0.40097  Biso   1.000  Ni
  C267     1.0000 0.19492  0.93955  0.07735  Biso   1.000  C
  H197     1.0000 0.17180  0.95430  0.03690  Biso   1.000  H
  C268     1.0000 0.18659  0.93417  0.18109  Biso   1.000  C
  H198     1.0000 0.15790  0.94450  0.21970  Biso   1.000  H
  C269     1.0000 0.22888  0.91096  0.21251  Biso   1.000  C
  H199     1.0000 0.23460  0.90230  0.27710  Biso   1.000  H
  C270     1.0000 0.26275  0.90237  0.12866  Biso   1.000  C
  C271     1.0000 0.31063  0.87874  0.12600  Biso   1.000  C
  C272     1.0000 0.34148  0.86849  0.04353  Biso   1.000  C
  C273     1.0000 0.39179  0.84586  0.04009  Biso   1.000  C
  H200     1.0000 0.41000  0.83500  0.09430  Biso   1.000  H
  C274     1.0000 0.40813  0.84319  0.94249  Biso   1.000  C
  H201     1.0000 0.43900  0.83000  0.91750  Biso   1.000  H
  C275     1.0000 0.36815  0.86466  0.88799  Biso   1.000  C
  H202     1.0000 0.36940  0.86800  0.81940  Biso   1.000  H
  C276     1.0000 0.33076  0.86375  0.22374  Biso   1.000  C
  C277     1.0000 0.34607  0.88926  0.29938  Biso   1.000  C
  H203     1.0000 0.34310  0.91570  0.28860  Biso   1.000  H
  C278     1.0000 0.36563  0.87606  0.39021  Biso   1.000  C
  H204     1.0000 0.37600  0.89340  0.43980  Biso   1.000  H
  C279     1.0000 0.36945  0.83646  0.40581  Biso   1.000  C
  C280     1.0000 0.35449  0.81032  0.33199  Biso   1.000  C
  H205     1.0000 0.35710  0.78390  0.34330  Biso   1.000  H
  C281     1.0000 0.33562  0.82430  0.24098  Biso   1.000  C
  H206     1.0000 0.32610  0.80700  0.19090  Biso   1.000  H
  C282     1.0000 0.38436  0.83867  0.59222  Biso   1.000  C
  H207     1.0000 0.36590  0.86140  0.60840  Biso   1.000  H
  C283     1.0000 0.41133  0.81470  0.65430  Biso   1.000  C
  H208     1.0000 0.41410  0.81830  0.72260  Biso   1.000  H
  C284     1.0000 0.42039  0.78934  0.51031  Biso   1.000  C
  H209     1.0000 0.43020  0.77270  0.45890  Biso   1.000  H
  C285     1.0000 0.32254  0.64255  0.42087  Biso   1.000  C
  H210     1.0000 0.32320  0.63900  0.48940  Biso   1.000  H
  C286     1.0000 0.35611  0.67003  0.37130  Biso   1.000  C
  H211     1.0000 0.38150  0.68720  0.39960  Biso   1.000  H
  C287     1.0000 0.34319  0.66592  0.27250  Biso   1.000  C
  H212     1.0000 0.35830  0.67990  0.22000  Biso   1.000  H
  C288     1.0000 0.30216  0.63619  0.26575  Biso   1.000  C
  C289     1.0000 0.27782  0.62172  0.17880  Biso   1.000  C
  C290     1.0000 0.23364  0.59484  0.17296  Biso   1.000  C
  C291     1.0000 0.21206  0.57792  0.08439  Biso   1.000  C
  H213     1.0000 0.22520  0.58180  0.02010  Biso   1.000  H
  C292     1.0000 0.16817  0.55474  0.11195  Biso   1.000  C
  H214     1.0000 0.14560  0.54000  0.07050  Biso   1.000  H
  C293     1.0000 0.16445  0.55792  0.21565  Biso   1.000  C
  H215     1.0000 0.13770  0.54520  0.25370  Biso   1.000  H
  C294     1.0000 0.30045  0.63565  0.08249  Biso   1.000  C
  C295     1.0000 0.35561  0.62826  0.05660  Biso   1.000  C
  H216     1.0000 0.37890  0.61550  0.10130  Biso   1.000  H
  C296     1.0000 0.37659  0.63969  0.96430  Biso   1.000  C
  H217     1.0000 0.41300  0.63360  0.94590  Biso   1.000  H
  C297     1.0000 0.34248  0.66000  0.90145  Biso   1.000  C
  C298     1.0000 0.28787  0.66787  0.92530  Biso   1.000  C
  H218     1.0000 0.26500  0.68120  0.88100  Biso   1.000  H
  C299     1.0000 0.26727  0.65575  0.01599  Biso   1.000  C
  H219     1.0000 0.23040  0.66120  0.03270  Biso   1.000  H
  C300     1.0000 0.33814  0.67813  0.71897  Biso   1.000  C
  H220     1.0000 0.30140  0.67160  0.70390  Biso   1.000  H
  C301     1.0000 0.37634  0.69393  0.65780  Biso   1.000  C
  H221     1.0000 0.36990  0.70020  0.59160  Biso   1.000  H
  C302     1.0000 0.41748  0.68768  0.79799  Biso   1.000  C
  H222     1.0000 0.44380  0.68880  0.84880  Biso   1.000  H
  C303     1.0000 0.37516  0.96583  0.96879  Biso   1.000  C
  H223     1.0000 0.39330  0.94240  0.97950  Biso   1.000  H
  C304     1.0000 0.16783  0.96630  0.81650  Biso   1.000  C
  H224     1.0000 0.15070  0.94290  0.80100  Biso   1.000  H
  N71      1.0000 0.24022  0.92073  0.04551  Biso   1.000  N
  N72      1.0000 0.32857  0.87951  0.94620  Biso   1.000  N
  N73      1.0000 0.38997  0.82214  0.49850  Biso   1.000  N
  N74      1.0000 0.43416  0.78421  0.60382  Biso   1.000  N
  N75      1.0000 0.29029  0.62244  0.36118  Biso   1.000  N
  N76      1.0000 0.20314  0.58106  0.25368  Biso   1.000  N
  N77      1.0000 0.36521  0.67370  0.80900  Biso   1.000  N
  N78      1.0000 0.42660  0.69955  0.70702  Biso   1.000  N
  N79      1.0000 0.21837  0.96578  0.85992  Biso   1.000  N
  N80      1.0000 0.32237  0.96591  0.93608  Biso   1.000  N
  Ni8      1.0000 0.26904  0.91706  0.90097  Biso   1.000  Ni
  C305     1.0000 0.09664  0.50000  0.48690  Biso   1.000  C
  H225     1.0000 0.06010  0.50000  0.51050  Biso   1.000  H
  C306     1.0000 0.20108  0.50000  0.41990  Biso   1.000  C
  C307     1.0000 0.25833  0.50000  0.37800  Biso   1.000  C
  C308     1.0000 0.35958  0.50000  0.29420  Biso   1.000  C
  H226     1.0000 0.39490  0.50000  0.26540  Biso   1.000  H
  C309     1.0000 0.59664  0.00000  0.98690  Biso   1.000  C
  H227     1.0000 0.56010  0.00000  0.01050  Biso   1.000  H
  C310     1.0000 0.70108  0.00000  0.91990  Biso   1.000  C
  C311     1.0000 0.75833  0.00000  0.87800  Biso   1.000  C
  C312     1.0000 0.85958  0.00000  0.79420  Biso   1.000  C
  H228     1.0000 0.89490  0.00000  0.76540  Biso   1.000  H
  C313     1.0000 0.90336  0.50000  0.48690  Biso   1.000  C
  H229     1.0000 0.93990  0.50000  0.51050  Biso   1.000  H
  C314     1.0000 0.79892  0.50000  0.41990  Biso   1.000  C
  C315     1.0000 0.74167  0.50000  0.37800  Biso   1.000  C
  C316     1.0000 0.64042  0.50000  0.29420  Biso   1.000  C
  H230     1.0000 0.60510  0.50000  0.26540  Biso   1.000  H
  C317     1.0000 0.40336  0.00000  0.98690  Biso   1.000  C
  H231     1.0000 0.43990  0.00000  0.01050  Biso   1.000  H
  C318     1.0000 0.29892  0.00000  0.91990  Biso   1.000  C
  C319     1.0000 0.24167  0.00000  0.87800  Biso   1.000  C
  C320     1.0000 0.14042  0.00000  0.79420  Biso   1.000  C
  H232     1.0000 0.10510  0.00000  0.76540  Biso   1.000  H
  Cl1      1.0000 0.00000  0.20937  0.97769  Biso   1.000  Cl
  Cl2      1.0000 0.00000  0.26967  0.33432  Biso   1.000  Cl
  Cd1      1.0000 0.00000  0.23833  0.15724  Biso   1.000  Cd
  Cl3      1.0000 0.50000  0.70937  0.47769  Biso   1.000  Cl
  Cl4      1.0000 0.50000  0.76967  0.83432  Biso   1.000  Cl
  Cd2      1.0000 0.50000  0.73833  0.65724  Biso   1.000  Cd
  Cl5      1.0000 0.00000  0.79063  0.97769  Biso   1.000  Cl
  Cl6      1.0000 0.00000  0.73033  0.33432  Biso   1.000  Cl
  Cd3      1.0000 0.00000  0.76167  0.15724  Biso   1.000  Cd
  Cl7      1.0000 0.50000  0.29063  0.47769  Biso   1.000  Cl
  Cl8      1.0000 0.50000  0.23033  0.83432  Biso   1.000  Cl
  Cd4      1.0000 0.50000  0.26167  0.65724  Biso   1.000  Cd
