data_image0
_cell_length_a       18.7077
_cell_length_b       21.5264
_cell_length_c       24.8114
_cell_angle_alpha    90
_cell_angle_beta     90
_cell_angle_gamma    90

_symmetry_space_group_name_H-M    P 1
_symmetry_int_tables_number       1

loop_
  _symmetry_equiv_pos_as_xyz
  'x, y, z'

loop_
  _atom_site_label
  _atom_site_occupancy
  _atom_site_fract_x
  _atom_site_fract_y
  _atom_site_fract_z
  _atom_site_thermal_displace_type
  _atom_site_B_iso_or_equiv
  _atom_site_type_symbol
  Zn1      1.0000 0.76128  0.85589  0.96442  Biso   1.000  Zn
  Zn2      1.0000 0.73872  0.35589  0.03558  Biso   1.000  Zn
  Zn3      1.0000 0.23872  0.14411  0.46442  Biso   1.000  Zn
  Zn4      1.0000 0.26128  0.64411  0.53558  Biso   1.000  Zn
  Zn5      1.0000 0.23872  0.14411  0.03558  Biso   1.000  Zn
  Zn6      1.0000 0.26128  0.64411  0.96442  Biso   1.000  Zn
  Zn7      1.0000 0.76128  0.85589  0.53558  Biso   1.000  Zn
  Zn8      1.0000 0.73872  0.35589  0.46442  Biso   1.000  Zn
  Zn9      1.0000 0.27181  0.84398  0.25000  Biso   1.000  Zn
  Zn10     1.0000 0.77061  0.02945  0.25000  Biso   1.000  Zn
  Zn11     1.0000 0.22819  0.34398  0.75000  Biso   1.000  Zn
  Zn12     1.0000 0.72939  0.52945  0.75000  Biso   1.000  Zn
  Zn13     1.0000 0.72819  0.15602  0.75000  Biso   1.000  Zn
  Zn14     1.0000 0.22939  0.97055  0.75000  Biso   1.000  Zn
  Zn15     1.0000 0.77181  0.65602  0.25000  Biso   1.000  Zn
  Zn16     1.0000 0.27061  0.47055  0.25000  Biso   1.000  Zn
  H1       1.0000 0.15540  0.80970  0.02250  Biso   1.000  H
  H2       1.0000 0.10720  0.76890  0.06020  Biso   1.000  H
  H3       1.0000 0.07420  0.00880  0.04460  Biso   1.000  H
  H4       1.0000 0.91150  0.93600  0.16770  Biso   1.000  H
  H5       1.0000 0.91970  0.86340  0.16720  Biso   1.000  H
  H6       1.0000 0.27860  0.76320  0.05950  Biso   1.000  H
  H7       1.0000 0.34020  0.77190  0.14570  Biso   1.000  H
  H8       1.0000 0.88760  0.87690  0.03680  Biso   1.000  H
  H9       1.0000 0.76470  0.90820  0.16270  Biso   1.000  H
  H10      1.0000 0.68890  0.88920  0.08480  Biso   1.000  H
  H11      1.0000 0.37580  0.08020  0.41660  Biso   1.000  H
  H12      1.0000 0.25570  0.97530  0.32390  Biso   1.000  H
  H13      1.0000 0.17870  0.03890  0.38070  Biso   1.000  H
  H14      1.0000 0.39890  0.95490  0.32400  Biso   1.000  H
  H15      1.0000 0.41250  0.02240  0.30230  Biso   1.000  H
  H16      1.0000 0.82650  0.13270  0.33940  Biso   1.000  H
  H17      1.0000 0.62050  0.13370  0.44740  Biso   1.000  H
  H18      1.0000 0.58060  0.15780  0.39570  Biso   1.000  H
  H19      1.0000 0.55480  0.67970  0.82080  Biso   1.000  H
  H20      1.0000 0.95700  0.79440  0.13740  Biso   1.000  H
  H21      1.0000 0.99380  0.76400  0.08710  Biso   1.000  H
  H22      1.0000 0.03720  0.77370  0.14050  Biso   1.000  H
  H23      1.0000 0.91500  0.01260  0.12130  Biso   1.000  H
  H24      1.0000 0.98400  0.05360  0.11730  Biso   1.000  H
  H25      1.0000 0.93920  0.03920  0.06540  Biso   1.000  H
  H26      1.0000 0.19890  0.89100  0.01340  Biso   1.000  H
  H27      1.0000 0.16250  0.94550  0.98180  Biso   1.000  H
  H28      1.0000 0.20350  0.95900  0.03560  Biso   1.000  H
  H29      1.0000 0.40990  0.89520  0.37700  Biso   1.000  H
  H30      1.0000 0.48030  0.86020  0.39280  Biso   1.000  H
  H31      1.0000 0.42790  0.88340  0.43790  Biso   1.000  H
  H32      1.0000 0.44990  0.09970  0.31200  Biso   1.000  H
  H33      1.0000 0.47790  0.14810  0.35420  Biso   1.000  H
  H34      1.0000 0.53050  0.11960  0.31180  Biso   1.000  H
  H35      1.0000 0.64920  0.98180  0.49990  Biso   1.000  H
  H36      1.0000 0.68710  0.02750  0.45990  Biso   1.000  H
  H37      1.0000 0.63710  0.05350  0.50520  Biso   1.000  H
  H38      1.0000 0.63800  0.04700  0.32910  Biso   1.000  H
  H39      1.0000 0.50220  0.77210  0.98140  Biso   1.000  H
  H40      1.0000 0.64000  0.73930  0.86660  Biso   1.000  H
  H41      1.0000 0.44300  0.67000  0.85490  Biso   1.000  H
  H42      1.0000 0.73100  0.17300  0.40800  Biso   1.000  H
  H43      1.0000 0.15300  0.83900  0.16270  Biso   1.000  H
  H44      1.0000 0.34460  0.30970  0.97750  Biso   1.000  H
  H45      1.0000 0.39280  0.26890  0.93980  Biso   1.000  H
  H46      1.0000 0.42580  0.50880  0.95540  Biso   1.000  H
  H47      1.0000 0.58850  0.43600  0.83230  Biso   1.000  H
  H48      1.0000 0.58030  0.36340  0.83280  Biso   1.000  H
  H49      1.0000 0.22140  0.26320  0.94050  Biso   1.000  H
  H50      1.0000 0.15980  0.27190  0.85430  Biso   1.000  H
  H51      1.0000 0.61240  0.37690  0.96320  Biso   1.000  H
  H52      1.0000 0.73530  0.40820  0.83730  Biso   1.000  H
  H53      1.0000 0.81110  0.38920  0.91520  Biso   1.000  H
  H54      1.0000 0.12420  0.58020  0.58340  Biso   1.000  H
  H55      1.0000 0.24430  0.47530  0.67610  Biso   1.000  H
  H56      1.0000 0.32130  0.53890  0.61930  Biso   1.000  H
  H57      1.0000 0.10110  0.45490  0.67600  Biso   1.000  H
  H58      1.0000 0.08750  0.52240  0.69770  Biso   1.000  H
  H59      1.0000 0.67350  0.63270  0.66060  Biso   1.000  H
  H60      1.0000 0.87950  0.63370  0.55260  Biso   1.000  H
  H61      1.0000 0.91940  0.65780  0.60430  Biso   1.000  H
  H62      1.0000 0.94520  0.17970  0.17920  Biso   1.000  H
  H63      1.0000 0.54300  0.29440  0.86260  Biso   1.000  H
  H64      1.0000 0.50620  0.26400  0.91290  Biso   1.000  H
  H65      1.0000 0.46280  0.27370  0.85950  Biso   1.000  H
  H66      1.0000 0.58500  0.51260  0.87870  Biso   1.000  H
  H67      1.0000 0.51600  0.55360  0.88270  Biso   1.000  H
  H68      1.0000 0.56080  0.53920  0.93460  Biso   1.000  H
  H69      1.0000 0.30110  0.39100  0.98660  Biso   1.000  H
  H70      1.0000 0.33750  0.44550  0.01820  Biso   1.000  H
  H71      1.0000 0.29650  0.45900  0.96440  Biso   1.000  H
  H72      1.0000 0.09010  0.39520  0.62300  Biso   1.000  H
  H73      1.0000 0.01970  0.36020  0.60720  Biso   1.000  H
  H74      1.0000 0.07210  0.38340  0.56210  Biso   1.000  H
  H75      1.0000 0.05010  0.59970  0.68800  Biso   1.000  H
  H76      1.0000 0.02210  0.64810  0.64580  Biso   1.000  H
  H77      1.0000 0.96950  0.61960  0.68820  Biso   1.000  H
  H78      1.0000 0.85080  0.48180  0.50010  Biso   1.000  H
  H79      1.0000 0.81290  0.52750  0.54010  Biso   1.000  H
  H80      1.0000 0.86290  0.55350  0.49480  Biso   1.000  H
  H81      1.0000 0.86200  0.54700  0.67090  Biso   1.000  H
  H82      1.0000 0.99780  0.27210  0.01860  Biso   1.000  H
  H83      1.0000 0.86000  0.23930  0.13340  Biso   1.000  H
  H84      1.0000 0.05700  0.17000  0.14510  Biso   1.000  H
  H85      1.0000 0.76900  0.67300  0.59200  Biso   1.000  H
  H86      1.0000 0.34700  0.33900  0.83730  Biso   1.000  H
  H87      1.0000 0.84460  0.19030  0.52250  Biso   1.000  H
  H88      1.0000 0.89280  0.23110  0.56020  Biso   1.000  H
  H89      1.0000 0.92580  0.99120  0.54460  Biso   1.000  H
  H90      1.0000 0.08850  0.06400  0.66770  Biso   1.000  H
  H91      1.0000 0.08030  0.13660  0.66720  Biso   1.000  H
  H92      1.0000 0.72140  0.23680  0.55950  Biso   1.000  H
  H93      1.0000 0.65980  0.22810  0.64570  Biso   1.000  H
  H94      1.0000 0.11240  0.12310  0.53680  Biso   1.000  H
  H95      1.0000 0.23530  0.09180  0.66270  Biso   1.000  H
  H96      1.0000 0.31110  0.11080  0.58480  Biso   1.000  H
  H97      1.0000 0.62420  0.91980  0.91660  Biso   1.000  H
  H98      1.0000 0.74430  0.02470  0.82390  Biso   1.000  H
  H99      1.0000 0.82130  0.96110  0.88070  Biso   1.000  H
  H100     1.0000 0.60110  0.04510  0.82400  Biso   1.000  H
  H101     1.0000 0.58750  0.97760  0.80230  Biso   1.000  H
  H102     1.0000 0.17350  0.86730  0.83940  Biso   1.000  H
  H103     1.0000 0.37950  0.86630  0.94740  Biso   1.000  H
  H104     1.0000 0.41940  0.84220  0.89570  Biso   1.000  H
  H105     1.0000 0.44520  0.32030  0.32080  Biso   1.000  H
  H106     1.0000 0.04300  0.20560  0.63740  Biso   1.000  H
  H107     1.0000 0.00620  0.23600  0.58710  Biso   1.000  H
  H108     1.0000 0.96280  0.22630  0.64050  Biso   1.000  H
  H109     1.0000 0.08500  0.98740  0.62130  Biso   1.000  H
  H110     1.0000 0.01600  0.94640  0.61730  Biso   1.000  H
  H111     1.0000 0.06080  0.96080  0.56540  Biso   1.000  H
  H112     1.0000 0.80110  0.10900  0.51340  Biso   1.000  H
  H113     1.0000 0.83750  0.05450  0.48180  Biso   1.000  H
  H114     1.0000 0.79650  0.04100  0.53560  Biso   1.000  H
  H115     1.0000 0.59010  0.10480  0.87700  Biso   1.000  H
  H116     1.0000 0.51970  0.13980  0.89280  Biso   1.000  H
  H117     1.0000 0.57210  0.11660  0.93790  Biso   1.000  H
  H118     1.0000 0.55010  0.90030  0.81200  Biso   1.000  H
  H119     1.0000 0.52210  0.85190  0.85420  Biso   1.000  H
  H120     1.0000 0.46950  0.88040  0.81180  Biso   1.000  H
  H121     1.0000 0.35080  0.01820  0.99990  Biso   1.000  H
  H122     1.0000 0.31290  0.97250  0.95990  Biso   1.000  H
  H123     1.0000 0.36290  0.94650  0.00520  Biso   1.000  H
  H124     1.0000 0.36200  0.95300  0.82910  Biso   1.000  H
  H125     1.0000 0.49780  0.22790  0.48140  Biso   1.000  H
  H126     1.0000 0.36000  0.26070  0.36660  Biso   1.000  H
  H127     1.0000 0.55700  0.33000  0.35490  Biso   1.000  H
  H128     1.0000 0.26900  0.82700  0.90800  Biso   1.000  H
  H129     1.0000 0.84700  0.16100  0.66270  Biso   1.000  H
  H130     1.0000 0.65540  0.69030  0.47750  Biso   1.000  H
  H131     1.0000 0.60720  0.73110  0.43980  Biso   1.000  H
  H132     1.0000 0.57420  0.49120  0.45540  Biso   1.000  H
  H133     1.0000 0.41150  0.56400  0.33230  Biso   1.000  H
  H134     1.0000 0.41970  0.63660  0.33280  Biso   1.000  H
  H135     1.0000 0.77860  0.73680  0.44050  Biso   1.000  H
  H136     1.0000 0.84020  0.72810  0.35430  Biso   1.000  H
  H137     1.0000 0.38760  0.62310  0.46320  Biso   1.000  H
  H138     1.0000 0.26470  0.59180  0.33730  Biso   1.000  H
  H139     1.0000 0.18890  0.61080  0.41520  Biso   1.000  H
  H140     1.0000 0.87580  0.41980  0.08340  Biso   1.000  H
  H141     1.0000 0.75570  0.52470  0.17610  Biso   1.000  H
  H142     1.0000 0.67870  0.46110  0.11930  Biso   1.000  H
  H143     1.0000 0.89890  0.54510  0.17600  Biso   1.000  H
  H144     1.0000 0.91250  0.47760  0.19770  Biso   1.000  H
  H145     1.0000 0.32650  0.36730  0.16060  Biso   1.000  H
  H146     1.0000 0.12050  0.36630  0.05260  Biso   1.000  H
  H147     1.0000 0.08060  0.34220  0.10430  Biso   1.000  H
  H148     1.0000 0.05480  0.82030  0.67920  Biso   1.000  H
  H149     1.0000 0.45700  0.70560  0.36260  Biso   1.000  H
  H150     1.0000 0.49380  0.73600  0.41290  Biso   1.000  H
  H151     1.0000 0.53720  0.72630  0.35950  Biso   1.000  H
  H152     1.0000 0.41500  0.48740  0.37870  Biso   1.000  H
  H153     1.0000 0.48400  0.44640  0.38270  Biso   1.000  H
  H154     1.0000 0.43920  0.46080  0.43460  Biso   1.000  H
  H155     1.0000 0.69890  0.60900  0.48660  Biso   1.000  H
  H156     1.0000 0.66250  0.55450  0.51820  Biso   1.000  H
  H157     1.0000 0.70350  0.54100  0.46440  Biso   1.000  H
  H158     1.0000 0.90990  0.60480  0.12300  Biso   1.000  H
  H159     1.0000 0.98030  0.63980  0.10720  Biso   1.000  H
  H160     1.0000 0.92790  0.61660  0.06210  Biso   1.000  H
  H161     1.0000 0.94990  0.40030  0.18800  Biso   1.000  H
  H162     1.0000 0.97790  0.35190  0.14580  Biso   1.000  H
  H163     1.0000 0.03050  0.38040  0.18820  Biso   1.000  H
  H164     1.0000 0.14920  0.51820  0.00010  Biso   1.000  H
  H165     1.0000 0.18710  0.47250  0.04010  Biso   1.000  H
  H166     1.0000 0.13710  0.44650  0.99480  Biso   1.000  H
  H167     1.0000 0.13800  0.45300  0.17090  Biso   1.000  H
  H168     1.0000 0.00220  0.72790  0.51860  Biso   1.000  H
  H169     1.0000 0.14000  0.76070  0.63340  Biso   1.000  H
  H170     1.0000 0.94300  0.83000  0.64510  Biso   1.000  H
  H171     1.0000 0.23100  0.32700  0.09200  Biso   1.000  H
  H172     1.0000 0.65300  0.66100  0.33730  Biso   1.000  H
  H173     1.0000 0.84460  0.19030  0.97750  Biso   1.000  H
  H174     1.0000 0.89280  0.23110  0.93980  Biso   1.000  H
  H175     1.0000 0.92580  0.99120  0.95540  Biso   1.000  H
  H176     1.0000 0.08850  0.06400  0.83230  Biso   1.000  H
  H177     1.0000 0.08030  0.13660  0.83280  Biso   1.000  H
  H178     1.0000 0.72140  0.23680  0.94050  Biso   1.000  H
  H179     1.0000 0.65980  0.22810  0.85430  Biso   1.000  H
  H180     1.0000 0.11240  0.12310  0.96320  Biso   1.000  H
  H181     1.0000 0.23530  0.09180  0.83730  Biso   1.000  H
  H182     1.0000 0.31110  0.11080  0.91520  Biso   1.000  H
  H183     1.0000 0.62420  0.91980  0.58340  Biso   1.000  H
  H184     1.0000 0.74430  0.02470  0.67610  Biso   1.000  H
  H185     1.0000 0.82130  0.96110  0.61930  Biso   1.000  H
  H186     1.0000 0.60110  0.04510  0.67600  Biso   1.000  H
  H187     1.0000 0.58750  0.97760  0.69770  Biso   1.000  H
  H188     1.0000 0.17350  0.86730  0.66060  Biso   1.000  H
  H189     1.0000 0.37950  0.86630  0.55260  Biso   1.000  H
  H190     1.0000 0.41940  0.84220  0.60430  Biso   1.000  H
  H191     1.0000 0.44520  0.32030  0.17920  Biso   1.000  H
  H192     1.0000 0.04300  0.20560  0.86260  Biso   1.000  H
  H193     1.0000 0.00620  0.23600  0.91290  Biso   1.000  H
  H194     1.0000 0.96280  0.22630  0.85950  Biso   1.000  H
  H195     1.0000 0.08500  0.98740  0.87870  Biso   1.000  H
  H196     1.0000 0.01600  0.94640  0.88270  Biso   1.000  H
  H197     1.0000 0.06080  0.96080  0.93460  Biso   1.000  H
  H198     1.0000 0.80110  0.10900  0.98660  Biso   1.000  H
  H199     1.0000 0.83750  0.05450  0.01820  Biso   1.000  H
  H200     1.0000 0.79650  0.04100  0.96440  Biso   1.000  H
  H201     1.0000 0.59010  0.10480  0.62300  Biso   1.000  H
  H202     1.0000 0.51970  0.13980  0.60720  Biso   1.000  H
  H203     1.0000 0.57210  0.11660  0.56210  Biso   1.000  H
  H204     1.0000 0.55010  0.90030  0.68800  Biso   1.000  H
  H205     1.0000 0.52210  0.85190  0.64580  Biso   1.000  H
  H206     1.0000 0.46950  0.88040  0.68820  Biso   1.000  H
  H207     1.0000 0.35080  0.01820  0.50010  Biso   1.000  H
  H208     1.0000 0.31290  0.97250  0.54010  Biso   1.000  H
  H209     1.0000 0.36290  0.94650  0.49480  Biso   1.000  H
  H210     1.0000 0.36200  0.95300  0.67090  Biso   1.000  H
  H211     1.0000 0.49780  0.22790  0.01860  Biso   1.000  H
  H212     1.0000 0.36000  0.26070  0.13340  Biso   1.000  H
  H213     1.0000 0.55700  0.33000  0.14510  Biso   1.000  H
  H214     1.0000 0.26900  0.82700  0.59200  Biso   1.000  H
  H215     1.0000 0.84700  0.16100  0.83730  Biso   1.000  H
  H216     1.0000 0.65540  0.69030  0.02250  Biso   1.000  H
  H217     1.0000 0.60720  0.73110  0.06020  Biso   1.000  H
  H218     1.0000 0.57420  0.49120  0.04460  Biso   1.000  H
  H219     1.0000 0.41150  0.56400  0.16770  Biso   1.000  H
  H220     1.0000 0.41970  0.63660  0.16720  Biso   1.000  H
  H221     1.0000 0.77860  0.73680  0.05950  Biso   1.000  H
  H222     1.0000 0.84020  0.72810  0.14570  Biso   1.000  H
  H223     1.0000 0.38760  0.62310  0.03680  Biso   1.000  H
  H224     1.0000 0.26470  0.59180  0.16270  Biso   1.000  H
  H225     1.0000 0.18890  0.61080  0.08480  Biso   1.000  H
  H226     1.0000 0.87580  0.41980  0.41660  Biso   1.000  H
  H227     1.0000 0.75570  0.52470  0.32390  Biso   1.000  H
  H228     1.0000 0.67870  0.46110  0.38070  Biso   1.000  H
  H229     1.0000 0.89890  0.54510  0.32400  Biso   1.000  H
  H230     1.0000 0.91250  0.47760  0.30230  Biso   1.000  H
  H231     1.0000 0.32650  0.36730  0.33940  Biso   1.000  H
  H232     1.0000 0.12050  0.36630  0.44740  Biso   1.000  H
  H233     1.0000 0.08060  0.34220  0.39570  Biso   1.000  H
  H234     1.0000 0.05480  0.82030  0.82080  Biso   1.000  H
  H235     1.0000 0.45700  0.70560  0.13740  Biso   1.000  H
  H236     1.0000 0.49380  0.73600  0.08710  Biso   1.000  H
  H237     1.0000 0.53720  0.72630  0.14050  Biso   1.000  H
  H238     1.0000 0.41500  0.48740  0.12130  Biso   1.000  H
  H239     1.0000 0.48400  0.44640  0.11730  Biso   1.000  H
  H240     1.0000 0.43920  0.46080  0.06540  Biso   1.000  H
  H241     1.0000 0.69890  0.60900  0.01340  Biso   1.000  H
  H242     1.0000 0.66250  0.55450  0.98180  Biso   1.000  H
  H243     1.0000 0.70350  0.54100  0.03560  Biso   1.000  H
  H244     1.0000 0.90990  0.60480  0.37700  Biso   1.000  H
  H245     1.0000 0.98030  0.63980  0.39280  Biso   1.000  H
  H246     1.0000 0.92790  0.61660  0.43790  Biso   1.000  H
  H247     1.0000 0.94990  0.40030  0.31200  Biso   1.000  H
  H248     1.0000 0.97790  0.35190  0.35420  Biso   1.000  H
  H249     1.0000 0.03050  0.38040  0.31180  Biso   1.000  H
  H250     1.0000 0.14920  0.51820  0.49990  Biso   1.000  H
  H251     1.0000 0.18710  0.47250  0.45990  Biso   1.000  H
  H252     1.0000 0.13710  0.44650  0.50520  Biso   1.000  H
  H253     1.0000 0.13800  0.45300  0.32910  Biso   1.000  H
  H254     1.0000 0.00220  0.72790  0.98140  Biso   1.000  H
  H255     1.0000 0.14000  0.76070  0.86660  Biso   1.000  H
  H256     1.0000 0.94300  0.83000  0.85490  Biso   1.000  H
  H257     1.0000 0.23100  0.32700  0.40800  Biso   1.000  H
  H258     1.0000 0.65300  0.66100  0.16270  Biso   1.000  H
  H259     1.0000 0.15540  0.80970  0.47750  Biso   1.000  H
  H260     1.0000 0.10720  0.76890  0.43980  Biso   1.000  H
  H261     1.0000 0.07420  0.00880  0.45540  Biso   1.000  H
  H262     1.0000 0.91150  0.93600  0.33230  Biso   1.000  H
  H263     1.0000 0.91970  0.86340  0.33280  Biso   1.000  H
  H264     1.0000 0.27860  0.76320  0.44050  Biso   1.000  H
  H265     1.0000 0.34020  0.77190  0.35430  Biso   1.000  H
  H266     1.0000 0.88760  0.87690  0.46320  Biso   1.000  H
  H267     1.0000 0.76470  0.90820  0.33730  Biso   1.000  H
  H268     1.0000 0.68890  0.88920  0.41520  Biso   1.000  H
  H269     1.0000 0.37580  0.08020  0.08340  Biso   1.000  H
  H270     1.0000 0.25570  0.97530  0.17610  Biso   1.000  H
  H271     1.0000 0.17870  0.03890  0.11930  Biso   1.000  H
  H272     1.0000 0.39890  0.95490  0.17600  Biso   1.000  H
  H273     1.0000 0.41250  0.02240  0.19770  Biso   1.000  H
  H274     1.0000 0.82650  0.13270  0.16060  Biso   1.000  H
  H275     1.0000 0.62050  0.13370  0.05260  Biso   1.000  H
  H276     1.0000 0.58060  0.15780  0.10430  Biso   1.000  H
  H277     1.0000 0.55480  0.67970  0.67920  Biso   1.000  H
  H278     1.0000 0.95700  0.79440  0.36260  Biso   1.000  H
  H279     1.0000 0.99380  0.76400  0.41290  Biso   1.000  H
  H280     1.0000 0.03720  0.77370  0.35950  Biso   1.000  H
  H281     1.0000 0.91500  0.01260  0.37870  Biso   1.000  H
  H282     1.0000 0.98400  0.05360  0.38270  Biso   1.000  H
  H283     1.0000 0.93920  0.03920  0.43460  Biso   1.000  H
  H284     1.0000 0.19890  0.89100  0.48660  Biso   1.000  H
  H285     1.0000 0.16250  0.94550  0.51820  Biso   1.000  H
  H286     1.0000 0.20350  0.95900  0.46440  Biso   1.000  H
  H287     1.0000 0.40990  0.89520  0.12300  Biso   1.000  H
  H288     1.0000 0.48030  0.86020  0.10720  Biso   1.000  H
  H289     1.0000 0.42790  0.88340  0.06210  Biso   1.000  H
  H290     1.0000 0.44990  0.09970  0.18800  Biso   1.000  H
  H291     1.0000 0.47790  0.14810  0.14580  Biso   1.000  H
  H292     1.0000 0.53050  0.11960  0.18820  Biso   1.000  H
  H293     1.0000 0.64920  0.98180  0.00010  Biso   1.000  H
  H294     1.0000 0.68710  0.02750  0.04010  Biso   1.000  H
  H295     1.0000 0.63710  0.05350  0.99480  Biso   1.000  H
  H296     1.0000 0.63800  0.04700  0.17090  Biso   1.000  H
  H297     1.0000 0.50220  0.77210  0.51860  Biso   1.000  H
  H298     1.0000 0.64000  0.73930  0.63340  Biso   1.000  H
  H299     1.0000 0.44300  0.67000  0.64510  Biso   1.000  H
  H300     1.0000 0.73100  0.17300  0.09200  Biso   1.000  H
  H301     1.0000 0.15300  0.83900  0.33730  Biso   1.000  H
  H302     1.0000 0.34460  0.30970  0.52250  Biso   1.000  H
  H303     1.0000 0.39280  0.26890  0.56020  Biso   1.000  H
  H304     1.0000 0.42580  0.50880  0.54460  Biso   1.000  H
  H305     1.0000 0.58850  0.43600  0.66770  Biso   1.000  H
  H306     1.0000 0.58030  0.36340  0.66720  Biso   1.000  H
  H307     1.0000 0.22140  0.26320  0.55950  Biso   1.000  H
  H308     1.0000 0.15980  0.27190  0.64570  Biso   1.000  H
  H309     1.0000 0.61240  0.37690  0.53680  Biso   1.000  H
  H310     1.0000 0.73530  0.40820  0.66270  Biso   1.000  H
  H311     1.0000 0.81110  0.38920  0.58480  Biso   1.000  H
  H312     1.0000 0.12420  0.58020  0.91660  Biso   1.000  H
  H313     1.0000 0.24430  0.47530  0.82390  Biso   1.000  H
  H314     1.0000 0.32130  0.53890  0.88070  Biso   1.000  H
  H315     1.0000 0.10110  0.45490  0.82400  Biso   1.000  H
  H316     1.0000 0.08750  0.52240  0.80230  Biso   1.000  H
  H317     1.0000 0.67350  0.63270  0.83940  Biso   1.000  H
  H318     1.0000 0.87950  0.63370  0.94740  Biso   1.000  H
  H319     1.0000 0.91940  0.65780  0.89570  Biso   1.000  H
  H320     1.0000 0.94520  0.17970  0.32080  Biso   1.000  H
  H321     1.0000 0.54300  0.29440  0.63740  Biso   1.000  H
  H322     1.0000 0.50620  0.26400  0.58710  Biso   1.000  H
  H323     1.0000 0.46280  0.27370  0.64050  Biso   1.000  H
  H324     1.0000 0.58500  0.51260  0.62130  Biso   1.000  H
  H325     1.0000 0.51600  0.55360  0.61730  Biso   1.000  H
  H326     1.0000 0.56080  0.53920  0.56540  Biso   1.000  H
  H327     1.0000 0.30110  0.39100  0.51340  Biso   1.000  H
  H328     1.0000 0.33750  0.44550  0.48180  Biso   1.000  H
  H329     1.0000 0.29650  0.45900  0.53560  Biso   1.000  H
  H330     1.0000 0.09010  0.39520  0.87700  Biso   1.000  H
  H331     1.0000 0.01970  0.36020  0.89280  Biso   1.000  H
  H332     1.0000 0.07210  0.38340  0.93790  Biso   1.000  H
  H333     1.0000 0.05010  0.59970  0.81200  Biso   1.000  H
  H334     1.0000 0.02210  0.64810  0.85420  Biso   1.000  H
  H335     1.0000 0.96950  0.61960  0.81180  Biso   1.000  H
  H336     1.0000 0.85080  0.48180  0.99990  Biso   1.000  H
  H337     1.0000 0.81290  0.52750  0.95990  Biso   1.000  H
  H338     1.0000 0.86290  0.55350  0.00520  Biso   1.000  H
  H339     1.0000 0.86200  0.54700  0.82910  Biso   1.000  H
  H340     1.0000 0.99780  0.27210  0.48140  Biso   1.000  H
  H341     1.0000 0.86000  0.23930  0.36660  Biso   1.000  H
  H342     1.0000 0.05700  0.17000  0.35490  Biso   1.000  H
  H343     1.0000 0.76900  0.67300  0.90800  Biso   1.000  H
  H344     1.0000 0.34700  0.33900  0.66270  Biso   1.000  H
  H345     1.0000 0.68800  0.84200  0.25000  Biso   1.000  H
  H346     1.0000 0.12000  0.12200  0.25000  Biso   1.000  H
  H347     1.0000 0.00700  0.13200  0.25000  Biso   1.000  H
  H348     1.0000 0.18700  0.03300  0.25000  Biso   1.000  H
  H349     1.0000 0.99500  0.94300  0.25000  Biso   1.000  H
  H350     1.0000 0.63400  0.74200  0.25000  Biso   1.000  H
  H351     1.0000 0.50600  0.92700  0.25000  Biso   1.000  H
  H352     1.0000 0.50800  0.73600  0.25000  Biso   1.000  H
  H353     1.0000 0.81200  0.34200  0.75000  Biso   1.000  H
  H354     1.0000 0.38000  0.62200  0.75000  Biso   1.000  H
  H355     1.0000 0.49300  0.63200  0.75000  Biso   1.000  H
  H356     1.0000 0.31300  0.53300  0.75000  Biso   1.000  H
  H357     1.0000 0.50500  0.44300  0.75000  Biso   1.000  H
  H358     1.0000 0.86600  0.24200  0.75000  Biso   1.000  H
  H359     1.0000 0.99400  0.42700  0.75000  Biso   1.000  H
  H360     1.0000 0.99200  0.23600  0.75000  Biso   1.000  H
  H361     1.0000 0.31200  0.15800  0.75000  Biso   1.000  H
  H362     1.0000 0.88000  0.87800  0.75000  Biso   1.000  H
  H363     1.0000 0.99300  0.86800  0.75000  Biso   1.000  H
  H364     1.0000 0.81300  0.96700  0.75000  Biso   1.000  H
  H365     1.0000 0.00500  0.05700  0.75000  Biso   1.000  H
  H366     1.0000 0.36600  0.25800  0.75000  Biso   1.000  H
  H367     1.0000 0.49400  0.07300  0.75000  Biso   1.000  H
  H368     1.0000 0.49200  0.26400  0.75000  Biso   1.000  H
  H369     1.0000 0.18800  0.65800  0.25000  Biso   1.000  H
  H370     1.0000 0.62000  0.37800  0.25000  Biso   1.000  H
  H371     1.0000 0.50700  0.36800  0.25000  Biso   1.000  H
  H372     1.0000 0.68700  0.46700  0.25000  Biso   1.000  H
  H373     1.0000 0.49500  0.55700  0.25000  Biso   1.000  H
  H374     1.0000 0.13400  0.75800  0.25000  Biso   1.000  H
  H375     1.0000 0.00600  0.57300  0.25000  Biso   1.000  H
  H376     1.0000 0.00800  0.76400  0.25000  Biso   1.000  H
  C1       1.0000 0.13500  0.80680  0.05840  Biso   1.000  C
  C2       1.0000 0.08710  0.86140  0.06795  Biso   1.000  C
  C3       1.0000 0.10610  0.91960  0.04830  Biso   1.000  C
  C4       1.0000 0.06210  0.97010  0.05860  Biso   1.000  C
  C5       1.0000 0.00060  0.96420  0.08940  Biso   1.000  C
  C6       1.0000 0.98150  0.90590  0.11010  Biso   1.000  C
  C7       1.0000 0.02390  0.85430  0.09829  Biso   1.000  C
  C8       1.0000 0.91550  0.89990  0.14450  Biso   1.000  C
  C9       1.0000 0.18980  0.82160  0.14980  Biso   1.000  C
  C10      1.0000 0.26010  0.77970  0.09120  Biso   1.000  C
  C11      1.0000 0.29350  0.78450  0.13900  Biso   1.000  C
  C12      1.0000 0.84750  0.88240  0.05840  Biso   1.000  C
  C13      1.0000 0.78020  0.89950  0.12790  Biso   1.000  C
  C14      1.0000 0.73860  0.88930  0.08470  Biso   1.000  C
  C15      1.0000 0.33590  0.06200  0.40095  Biso   1.000  C
  C16      1.0000 0.27050  0.00430  0.34940  Biso   1.000  C
  C17      1.0000 0.22840  0.03910  0.38130  Biso   1.000  C
  C18      1.0000 0.40470  0.99800  0.33460  Biso   1.000  C
  C19      1.0000 0.46850  0.00400  0.37146  Biso   1.000  C
  C20      1.0000 0.48760  0.95450  0.40540  Biso   1.000  C
  C21      1.0000 0.58160  0.01570  0.44280  Biso   1.000  C
  C22      1.0000 0.54380  0.96080  0.44020  Biso   1.000  C
  C23      1.0000 0.56310  0.06520  0.40970  Biso   1.000  C
  C24      1.0000 0.50700  0.05940  0.37264  Biso   1.000  C
  C25      1.0000 0.77950  0.12060  0.34550  Biso   1.000  C
  C26      1.0000 0.73670  0.14420  0.38380  Biso   1.000  C
  C27      1.0000 0.68020  0.07430  0.33840  Biso   1.000  C
  C28      1.0000 0.60790  0.12340  0.41050  Biso   1.000  C
  C29      1.0000 0.63460  0.79890  0.95870  Biso   1.000  C
  C30      1.0000 0.57960  0.75985  0.93034  Biso   1.000  C
  C31      1.0000 0.59530  0.73190  0.88160  Biso   1.000  C
  C32      1.0000 0.54440  0.69700  0.85420  Biso   1.000  C
  C33      1.0000 0.38870  0.70630  0.95050  Biso   1.000  C
  C34      1.0000 0.46140  0.71598  0.92591  Biso   1.000  C
  C35      1.0000 0.51120  0.75250  0.95150  Biso   1.000  C
  C36      1.0000 0.47780  0.68840  0.87760  Biso   1.000  C
  C37      1.0000 0.00090  0.79080  0.11760  Biso   1.000  C
  C38      1.0000 0.95550  0.02290  0.09930  Biso   1.000  C
  C39      1.0000 0.17390  0.92970  0.01700  Biso   1.000  C
  C40      1.0000 0.44770  0.89260  0.40310  Biso   1.000  C
  C41      1.0000 0.48980  0.11140  0.33420  Biso   1.000  C
  C42      1.0000 0.64440  0.02000  0.48030  Biso   1.000  C
  C43      1.0000 0.36500  0.30680  0.94160  Biso   1.000  C
  C44      1.0000 0.41290  0.36140  0.93205  Biso   1.000  C
  C45      1.0000 0.39390  0.41960  0.95170  Biso   1.000  C
  C46      1.0000 0.43790  0.47010  0.94140  Biso   1.000  C
  C47      1.0000 0.49940  0.46420  0.91060  Biso   1.000  C
  C48      1.0000 0.51850  0.40590  0.88990  Biso   1.000  C
  C49      1.0000 0.47610  0.35430  0.90171  Biso   1.000  C
  C50      1.0000 0.58450  0.39990  0.85550  Biso   1.000  C
  C51      1.0000 0.31020  0.32160  0.85020  Biso   1.000  C
  C52      1.0000 0.23990  0.27970  0.90880  Biso   1.000  C
  C53      1.0000 0.20650  0.28450  0.86100  Biso   1.000  C
  C54      1.0000 0.65250  0.38240  0.94160  Biso   1.000  C
  C55      1.0000 0.71980  0.39950  0.87210  Biso   1.000  C
  C56      1.0000 0.76140  0.38930  0.91530  Biso   1.000  C
  C57      1.0000 0.16410  0.56200  0.59905  Biso   1.000  C
  C58      1.0000 0.22950  0.50430  0.65060  Biso   1.000  C
  C59      1.0000 0.27160  0.53910  0.61870  Biso   1.000  C
  C60      1.0000 0.09530  0.49800  0.66540  Biso   1.000  C
  C61      1.0000 0.03150  0.50400  0.62854  Biso   1.000  C
  C62      1.0000 0.01240  0.45450  0.59460  Biso   1.000  C
  C63      1.0000 0.91840  0.51570  0.55720  Biso   1.000  C
  C64      1.0000 0.95620  0.46080  0.55980  Biso   1.000  C
  C65      1.0000 0.93690  0.56520  0.59030  Biso   1.000  C
  C66      1.0000 0.99300  0.55940  0.62736  Biso   1.000  C
  C67      1.0000 0.72050  0.62060  0.65450  Biso   1.000  C
  C68      1.0000 0.76330  0.64420  0.61620  Biso   1.000  C
  C69      1.0000 0.81980  0.57430  0.66160  Biso   1.000  C
  C70      1.0000 0.89210  0.62340  0.58950  Biso   1.000  C
  C71      1.0000 0.86540  0.29890  0.04130  Biso   1.000  C
  C72      1.0000 0.92040  0.25985  0.06966  Biso   1.000  C
  C73      1.0000 0.90470  0.23190  0.11840  Biso   1.000  C
  C74      1.0000 0.95560  0.19700  0.14580  Biso   1.000  C
  C75      1.0000 0.11130  0.20630  0.04950  Biso   1.000  C
  C76      1.0000 0.03860  0.21598  0.07409  Biso   1.000  C
  C77      1.0000 0.98880  0.25250  0.04850  Biso   1.000  C
  C78      1.0000 0.02220  0.18840  0.12240  Biso   1.000  C
  C79      1.0000 0.49910  0.29080  0.88240  Biso   1.000  C
  C80      1.0000 0.54450  0.52290  0.90070  Biso   1.000  C
  C81      1.0000 0.32610  0.42970  0.98300  Biso   1.000  C
  C82      1.0000 0.05230  0.39260  0.59690  Biso   1.000  C
  C83      1.0000 0.01020  0.61140  0.66580  Biso   1.000  C
  C84      1.0000 0.85560  0.52000  0.51970  Biso   1.000  C
  C85      1.0000 0.86500  0.19320  0.55840  Biso   1.000  C
  C86      1.0000 0.91290  0.13860  0.56795  Biso   1.000  C
  C87      1.0000 0.89390  0.08040  0.54830  Biso   1.000  C
  C88      1.0000 0.93790  0.02990  0.55860  Biso   1.000  C
  C89      1.0000 0.99940  0.03580  0.58940  Biso   1.000  C
  C90      1.0000 0.01850  0.09410  0.61010  Biso   1.000  C
  C91      1.0000 0.97610  0.14570  0.59829  Biso   1.000  C
  C92      1.0000 0.08450  0.10010  0.64450  Biso   1.000  C
  C93      1.0000 0.81020  0.17840  0.64980  Biso   1.000  C
  C94      1.0000 0.73990  0.22030  0.59120  Biso   1.000  C
  C95      1.0000 0.70650  0.21550  0.63900  Biso   1.000  C
  C96      1.0000 0.15250  0.11760  0.55840  Biso   1.000  C
  C97      1.0000 0.21980  0.10050  0.62790  Biso   1.000  C
  C98      1.0000 0.26140  0.11070  0.58470  Biso   1.000  C
  C99      1.0000 0.66410  0.93800  0.90095  Biso   1.000  C
  C100     1.0000 0.72950  0.99570  0.84940  Biso   1.000  C
  C101     1.0000 0.77160  0.96090  0.88130  Biso   1.000  C
  C102     1.0000 0.59530  0.00200  0.83460  Biso   1.000  C
  C103     1.0000 0.53150  0.99600  0.87146  Biso   1.000  C
  C104     1.0000 0.51240  0.04550  0.90540  Biso   1.000  C
  C105     1.0000 0.41840  0.98430  0.94280  Biso   1.000  C
  C106     1.0000 0.45620  0.03920  0.94020  Biso   1.000  C
  C107     1.0000 0.43690  0.93480  0.90970  Biso   1.000  C
  C108     1.0000 0.49300  0.94060  0.87264  Biso   1.000  C
  C109     1.0000 0.22050  0.87940  0.84550  Biso   1.000  C
  C110     1.0000 0.26330  0.85580  0.88380  Biso   1.000  C
  C111     1.0000 0.31980  0.92570  0.83840  Biso   1.000  C
  C112     1.0000 0.39210  0.87660  0.91050  Biso   1.000  C
  C113     1.0000 0.36540  0.20110  0.45870  Biso   1.000  C
  C114     1.0000 0.42040  0.24015  0.43034  Biso   1.000  C
  C115     1.0000 0.40470  0.26810  0.38160  Biso   1.000  C
  C116     1.0000 0.45560  0.30300  0.35420  Biso   1.000  C
  C117     1.0000 0.61130  0.29370  0.45050  Biso   1.000  C
  C118     1.0000 0.53860  0.28402  0.42591  Biso   1.000  C
  C119     1.0000 0.48880  0.24750  0.45150  Biso   1.000  C
  C120     1.0000 0.52220  0.31160  0.37760  Biso   1.000  C
  C121     1.0000 0.99910  0.20920  0.61760  Biso   1.000  C
  C122     1.0000 0.04450  0.97710  0.59930  Biso   1.000  C
  C123     1.0000 0.82610  0.07030  0.51700  Biso   1.000  C
  C124     1.0000 0.55230  0.10740  0.90310  Biso   1.000  C
  C125     1.0000 0.51020  0.88860  0.83420  Biso   1.000  C
  C126     1.0000 0.35560  0.98000  0.98030  Biso   1.000  C
  C127     1.0000 0.63500  0.69320  0.44160  Biso   1.000  C
  C128     1.0000 0.58710  0.63860  0.43205  Biso   1.000  C
  C129     1.0000 0.60610  0.58040  0.45170  Biso   1.000  C
  C130     1.0000 0.56210  0.52990  0.44140  Biso   1.000  C
  C131     1.0000 0.50060  0.53580  0.41060  Biso   1.000  C
  C132     1.0000 0.48150  0.59410  0.38990  Biso   1.000  C
  C133     1.0000 0.52390  0.64570  0.40171  Biso   1.000  C
  C134     1.0000 0.41550  0.60010  0.35550  Biso   1.000  C
  C135     1.0000 0.68980  0.67840  0.35020  Biso   1.000  C
  C136     1.0000 0.76010  0.72030  0.40880  Biso   1.000  C
  C137     1.0000 0.79350  0.71550  0.36100  Biso   1.000  C
  C138     1.0000 0.34750  0.61760  0.44160  Biso   1.000  C
  C139     1.0000 0.28020  0.60050  0.37210  Biso   1.000  C
  C140     1.0000 0.23860  0.61070  0.41530  Biso   1.000  C
  C141     1.0000 0.83590  0.43800  0.09905  Biso   1.000  C
  C142     1.0000 0.77050  0.49570  0.15060  Biso   1.000  C
  C143     1.0000 0.72840  0.46090  0.11870  Biso   1.000  C
  C144     1.0000 0.90470  0.50200  0.16540  Biso   1.000  C
  C145     1.0000 0.96850  0.49600  0.12854  Biso   1.000  C
  C146     1.0000 0.98760  0.54550  0.09460  Biso   1.000  C
  C147     1.0000 0.08160  0.48430  0.05720  Biso   1.000  C
  C148     1.0000 0.04380  0.53920  0.05980  Biso   1.000  C
  C149     1.0000 0.06310  0.43480  0.09030  Biso   1.000  C
  C150     1.0000 0.00700  0.44060  0.12736  Biso   1.000  C
  C151     1.0000 0.27950  0.37940  0.15450  Biso   1.000  C
  C152     1.0000 0.23670  0.35580  0.11620  Biso   1.000  C
  C153     1.0000 0.18020  0.42570  0.16160  Biso   1.000  C
  C154     1.0000 0.10790  0.37660  0.08950  Biso   1.000  C
  C155     1.0000 0.13460  0.70110  0.54130  Biso   1.000  C
  C156     1.0000 0.07960  0.74015  0.56966  Biso   1.000  C
  C157     1.0000 0.09530  0.76810  0.61840  Biso   1.000  C
  C158     1.0000 0.04440  0.80300  0.64580  Biso   1.000  C
  C159     1.0000 0.88870  0.79370  0.54950  Biso   1.000  C
  C160     1.0000 0.96140  0.78402  0.57409  Biso   1.000  C
  C161     1.0000 0.01120  0.74750  0.54850  Biso   1.000  C
  C162     1.0000 0.97780  0.81160  0.62240  Biso   1.000  C
  C163     1.0000 0.50090  0.70920  0.38240  Biso   1.000  C
  C164     1.0000 0.45550  0.47710  0.40070  Biso   1.000  C
  C165     1.0000 0.67390  0.57030  0.48300  Biso   1.000  C
  C166     1.0000 0.94770  0.60740  0.09690  Biso   1.000  C
  C167     1.0000 0.98980  0.38860  0.16580  Biso   1.000  C
  C168     1.0000 0.14440  0.48000  0.01970  Biso   1.000  C
  C169     1.0000 0.86500  0.19320  0.94160  Biso   1.000  C
  C170     1.0000 0.91290  0.13860  0.93205  Biso   1.000  C
  C171     1.0000 0.89390  0.08040  0.95170  Biso   1.000  C
  C172     1.0000 0.93790  0.02990  0.94140  Biso   1.000  C
  C173     1.0000 0.99940  0.03580  0.91060  Biso   1.000  C
  C174     1.0000 0.01850  0.09410  0.88990  Biso   1.000  C
  C175     1.0000 0.97610  0.14570  0.90171  Biso   1.000  C
  C176     1.0000 0.08450  0.10010  0.85550  Biso   1.000  C
  C177     1.0000 0.81020  0.17840  0.85020  Biso   1.000  C
  C178     1.0000 0.73990  0.22030  0.90880  Biso   1.000  C
  C179     1.0000 0.70650  0.21550  0.86100  Biso   1.000  C
  C180     1.0000 0.15250  0.11760  0.94160  Biso   1.000  C
  C181     1.0000 0.21980  0.10050  0.87210  Biso   1.000  C
  C182     1.0000 0.26140  0.11070  0.91530  Biso   1.000  C
  C183     1.0000 0.66410  0.93800  0.59905  Biso   1.000  C
  C184     1.0000 0.72950  0.99570  0.65060  Biso   1.000  C
  C185     1.0000 0.77160  0.96090  0.61870  Biso   1.000  C
  C186     1.0000 0.59530  0.00200  0.66540  Biso   1.000  C
  C187     1.0000 0.53150  0.99600  0.62854  Biso   1.000  C
  C188     1.0000 0.51240  0.04550  0.59460  Biso   1.000  C
  C189     1.0000 0.41840  0.98430  0.55720  Biso   1.000  C
  C190     1.0000 0.45620  0.03920  0.55980  Biso   1.000  C
  C191     1.0000 0.43690  0.93480  0.59030  Biso   1.000  C
  C192     1.0000 0.49300  0.94060  0.62736  Biso   1.000  C
  C193     1.0000 0.22050  0.87940  0.65450  Biso   1.000  C
  C194     1.0000 0.26330  0.85580  0.61620  Biso   1.000  C
  C195     1.0000 0.31980  0.92570  0.66160  Biso   1.000  C
  C196     1.0000 0.39210  0.87660  0.58950  Biso   1.000  C
  C197     1.0000 0.36540  0.20110  0.04130  Biso   1.000  C
  C198     1.0000 0.42040  0.24015  0.06966  Biso   1.000  C
  C199     1.0000 0.40470  0.26810  0.11840  Biso   1.000  C
  C200     1.0000 0.45560  0.30300  0.14580  Biso   1.000  C
  C201     1.0000 0.61130  0.29370  0.04950  Biso   1.000  C
  C202     1.0000 0.53860  0.28402  0.07409  Biso   1.000  C
  C203     1.0000 0.48880  0.24750  0.04850  Biso   1.000  C
  C204     1.0000 0.52220  0.31160  0.12240  Biso   1.000  C
  C205     1.0000 0.99910  0.20920  0.88240  Biso   1.000  C
  C206     1.0000 0.04450  0.97710  0.90070  Biso   1.000  C
  C207     1.0000 0.82610  0.07030  0.98300  Biso   1.000  C
  C208     1.0000 0.55230  0.10740  0.59690  Biso   1.000  C
  C209     1.0000 0.51020  0.88860  0.66580  Biso   1.000  C
  C210     1.0000 0.35560  0.98000  0.51970  Biso   1.000  C
  C211     1.0000 0.63500  0.69320  0.05840  Biso   1.000  C
  C212     1.0000 0.58710  0.63860  0.06795  Biso   1.000  C
  C213     1.0000 0.60610  0.58040  0.04830  Biso   1.000  C
  C214     1.0000 0.56210  0.52990  0.05860  Biso   1.000  C
  C215     1.0000 0.50060  0.53580  0.08940  Biso   1.000  C
  C216     1.0000 0.48150  0.59410  0.11010  Biso   1.000  C
  C217     1.0000 0.52390  0.64570  0.09829  Biso   1.000  C
  C218     1.0000 0.41550  0.60010  0.14450  Biso   1.000  C
  C219     1.0000 0.68980  0.67840  0.14980  Biso   1.000  C
  C220     1.0000 0.76010  0.72030  0.09120  Biso   1.000  C
  C221     1.0000 0.79350  0.71550  0.13900  Biso   1.000  C
  C222     1.0000 0.34750  0.61760  0.05840  Biso   1.000  C
  C223     1.0000 0.28020  0.60050  0.12790  Biso   1.000  C
  C224     1.0000 0.23860  0.61070  0.08470  Biso   1.000  C
  C225     1.0000 0.83590  0.43800  0.40095  Biso   1.000  C
  C226     1.0000 0.77050  0.49570  0.34940  Biso   1.000  C
  C227     1.0000 0.72840  0.46090  0.38130  Biso   1.000  C
  C228     1.0000 0.90470  0.50200  0.33460  Biso   1.000  C
  C229     1.0000 0.96850  0.49600  0.37146  Biso   1.000  C
  C230     1.0000 0.98760  0.54550  0.40540  Biso   1.000  C
  C231     1.0000 0.08160  0.48430  0.44280  Biso   1.000  C
  C232     1.0000 0.04380  0.53920  0.44020  Biso   1.000  C
  C233     1.0000 0.06310  0.43480  0.40970  Biso   1.000  C
  C234     1.0000 0.00700  0.44060  0.37264  Biso   1.000  C
  C235     1.0000 0.27950  0.37940  0.34550  Biso   1.000  C
  C236     1.0000 0.23670  0.35580  0.38380  Biso   1.000  C
  C237     1.0000 0.18020  0.42570  0.33840  Biso   1.000  C
  C238     1.0000 0.10790  0.37660  0.41050  Biso   1.000  C
  C239     1.0000 0.13460  0.70110  0.95870  Biso   1.000  C
  C240     1.0000 0.07960  0.74015  0.93034  Biso   1.000  C
  C241     1.0000 0.09530  0.76810  0.88160  Biso   1.000  C
  C242     1.0000 0.04440  0.80300  0.85420  Biso   1.000  C
  C243     1.0000 0.88870  0.79370  0.95050  Biso   1.000  C
  C244     1.0000 0.96140  0.78402  0.92591  Biso   1.000  C
  C245     1.0000 0.01120  0.74750  0.95150  Biso   1.000  C
  C246     1.0000 0.97780  0.81160  0.87760  Biso   1.000  C
  C247     1.0000 0.50090  0.70920  0.11760  Biso   1.000  C
  C248     1.0000 0.45550  0.47710  0.09930  Biso   1.000  C
  C249     1.0000 0.67390  0.57030  0.01700  Biso   1.000  C
  C250     1.0000 0.94770  0.60740  0.40310  Biso   1.000  C
  C251     1.0000 0.98980  0.38860  0.33420  Biso   1.000  C
  C252     1.0000 0.14440  0.48000  0.48030  Biso   1.000  C
  C253     1.0000 0.13500  0.80680  0.44160  Biso   1.000  C
  C254     1.0000 0.08710  0.86140  0.43205  Biso   1.000  C
  C255     1.0000 0.10610  0.91960  0.45170  Biso   1.000  C
  C256     1.0000 0.06210  0.97010  0.44140  Biso   1.000  C
  C257     1.0000 0.00060  0.96420  0.41060  Biso   1.000  C
  C258     1.0000 0.98150  0.90590  0.38990  Biso   1.000  C
  C259     1.0000 0.02390  0.85430  0.40171  Biso   1.000  C
  C260     1.0000 0.91550  0.89990  0.35550  Biso   1.000  C
  C261     1.0000 0.18980  0.82160  0.35020  Biso   1.000  C
  C262     1.0000 0.26010  0.77970  0.40880  Biso   1.000  C
  C263     1.0000 0.29350  0.78450  0.36100  Biso   1.000  C
  C264     1.0000 0.84750  0.88240  0.44160  Biso   1.000  C
  C265     1.0000 0.78020  0.89950  0.37210  Biso   1.000  C
  C266     1.0000 0.73860  0.88930  0.41530  Biso   1.000  C
  C267     1.0000 0.33590  0.06200  0.09905  Biso   1.000  C
  C268     1.0000 0.27050  0.00430  0.15060  Biso   1.000  C
  C269     1.0000 0.22840  0.03910  0.11870  Biso   1.000  C
  C270     1.0000 0.40470  0.99800  0.16540  Biso   1.000  C
  C271     1.0000 0.46850  0.00400  0.12854  Biso   1.000  C
  C272     1.0000 0.48760  0.95450  0.09460  Biso   1.000  C
  C273     1.0000 0.58160  0.01570  0.05720  Biso   1.000  C
  C274     1.0000 0.54380  0.96080  0.05980  Biso   1.000  C
  C275     1.0000 0.56310  0.06520  0.09030  Biso   1.000  C
  C276     1.0000 0.50700  0.05940  0.12736  Biso   1.000  C
  C277     1.0000 0.77950  0.12060  0.15450  Biso   1.000  C
  C278     1.0000 0.73670  0.14420  0.11620  Biso   1.000  C
  C279     1.0000 0.68020  0.07430  0.16160  Biso   1.000  C
  C280     1.0000 0.60790  0.12340  0.08950  Biso   1.000  C
  C281     1.0000 0.63460  0.79890  0.54130  Biso   1.000  C
  C282     1.0000 0.57960  0.75985  0.56966  Biso   1.000  C
  C283     1.0000 0.59530  0.73190  0.61840  Biso   1.000  C
  C284     1.0000 0.54440  0.69700  0.64580  Biso   1.000  C
  C285     1.0000 0.38870  0.70630  0.54950  Biso   1.000  C
  C286     1.0000 0.46140  0.71598  0.57409  Biso   1.000  C
  C287     1.0000 0.51120  0.75250  0.54850  Biso   1.000  C
  C288     1.0000 0.47780  0.68840  0.62240  Biso   1.000  C
  C289     1.0000 0.00090  0.79080  0.38240  Biso   1.000  C
  C290     1.0000 0.95550  0.02290  0.40070  Biso   1.000  C
  C291     1.0000 0.17390  0.92970  0.48300  Biso   1.000  C
  C292     1.0000 0.44770  0.89260  0.09690  Biso   1.000  C
  C293     1.0000 0.48980  0.11140  0.16580  Biso   1.000  C
  C294     1.0000 0.64440  0.02000  0.01970  Biso   1.000  C
  C295     1.0000 0.36500  0.30680  0.55840  Biso   1.000  C
  C296     1.0000 0.41290  0.36140  0.56795  Biso   1.000  C
  C297     1.0000 0.39390  0.41960  0.54830  Biso   1.000  C
  C298     1.0000 0.43790  0.47010  0.55860  Biso   1.000  C
  C299     1.0000 0.49940  0.46420  0.58940  Biso   1.000  C
  C300     1.0000 0.51850  0.40590  0.61010  Biso   1.000  C
  C301     1.0000 0.47610  0.35430  0.59829  Biso   1.000  C
  C302     1.0000 0.58450  0.39990  0.64450  Biso   1.000  C
  C303     1.0000 0.31020  0.32160  0.64980  Biso   1.000  C
  C304     1.0000 0.23990  0.27970  0.59120  Biso   1.000  C
  C305     1.0000 0.20650  0.28450  0.63900  Biso   1.000  C
  C306     1.0000 0.65250  0.38240  0.55840  Biso   1.000  C
  C307     1.0000 0.71980  0.39950  0.62790  Biso   1.000  C
  C308     1.0000 0.76140  0.38930  0.58470  Biso   1.000  C
  C309     1.0000 0.16410  0.56200  0.90095  Biso   1.000  C
  C310     1.0000 0.22950  0.50430  0.84940  Biso   1.000  C
  C311     1.0000 0.27160  0.53910  0.88130  Biso   1.000  C
  C312     1.0000 0.09530  0.49800  0.83460  Biso   1.000  C
  C313     1.0000 0.03150  0.50400  0.87146  Biso   1.000  C
  C314     1.0000 0.01240  0.45450  0.90540  Biso   1.000  C
  C315     1.0000 0.91840  0.51570  0.94280  Biso   1.000  C
  C316     1.0000 0.95620  0.46080  0.94020  Biso   1.000  C
  C317     1.0000 0.93690  0.56520  0.90970  Biso   1.000  C
  C318     1.0000 0.99300  0.55940  0.87264  Biso   1.000  C
  C319     1.0000 0.72050  0.62060  0.84550  Biso   1.000  C
  C320     1.0000 0.76330  0.64420  0.88380  Biso   1.000  C
  C321     1.0000 0.81980  0.57430  0.83840  Biso   1.000  C
  C322     1.0000 0.89210  0.62340  0.91050  Biso   1.000  C
  C323     1.0000 0.86540  0.29890  0.45870  Biso   1.000  C
  C324     1.0000 0.92040  0.25985  0.43034  Biso   1.000  C
  C325     1.0000 0.90470  0.23190  0.38160  Biso   1.000  C
  C326     1.0000 0.95560  0.19700  0.35420  Biso   1.000  C
  C327     1.0000 0.11130  0.20630  0.45050  Biso   1.000  C
  C328     1.0000 0.03860  0.21598  0.42591  Biso   1.000  C
  C329     1.0000 0.98880  0.25250  0.45150  Biso   1.000  C
  C330     1.0000 0.02220  0.18840  0.37760  Biso   1.000  C
  C331     1.0000 0.49910  0.29080  0.61760  Biso   1.000  C
  C332     1.0000 0.54450  0.52290  0.59930  Biso   1.000  C
  C333     1.0000 0.32610  0.42970  0.51700  Biso   1.000  C
  C334     1.0000 0.05230  0.39260  0.90310  Biso   1.000  C
  C335     1.0000 0.01020  0.61140  0.83420  Biso   1.000  C
  C336     1.0000 0.85560  0.52000  0.98030  Biso   1.000  C
  C337     1.0000 0.90990  0.04480  0.25000  Biso   1.000  C
  C338     1.0000 0.98940  0.03780  0.25000  Biso   1.000  C
  C339     1.0000 0.03050  0.09180  0.25000  Biso   1.000  C
  C340     1.0000 0.10370  0.08890  0.25000  Biso   1.000  C
  C341     1.0000 0.13810  0.03340  0.25000  Biso   1.000  C
  C342     1.0000 0.09970  0.97820  0.25000  Biso   1.000  C
  C343     1.0000 0.02460  0.98080  0.25000  Biso   1.000  C
  C344     1.0000 0.13760  0.91660  0.25000  Biso   1.000  C
  C345     1.0000 0.63850  0.95590  0.25000  Biso   1.000  C
  C346     1.0000 0.60210  0.89400  0.25000  Biso   1.000  C
  C347     1.0000 0.63950  0.83990  0.25000  Biso   1.000  C
  C348     1.0000 0.60450  0.78310  0.25000  Biso   1.000  C
  C349     1.0000 0.53130  0.78160  0.25000  Biso   1.000  C
  C350     1.0000 0.49070  0.83560  0.25000  Biso   1.000  C
  C351     1.0000 0.52730  0.89210  0.25000  Biso   1.000  C
  C352     1.0000 0.40970  0.83010  0.25000  Biso   1.000  C
  C353     1.0000 0.59010  0.54480  0.75000  Biso   1.000  C
  C354     1.0000 0.51060  0.53780  0.75000  Biso   1.000  C
  C355     1.0000 0.46950  0.59180  0.75000  Biso   1.000  C
  C356     1.0000 0.39630  0.58890  0.75000  Biso   1.000  C
  C357     1.0000 0.36190  0.53340  0.75000  Biso   1.000  C
  C358     1.0000 0.40030  0.47820  0.75000  Biso   1.000  C
  C359     1.0000 0.47540  0.48080  0.75000  Biso   1.000  C
  C360     1.0000 0.36240  0.41660  0.75000  Biso   1.000  C
  C361     1.0000 0.86150  0.45590  0.75000  Biso   1.000  C
  C362     1.0000 0.89790  0.39400  0.75000  Biso   1.000  C
  C363     1.0000 0.86050  0.33990  0.75000  Biso   1.000  C
  C364     1.0000 0.89550  0.28310  0.75000  Biso   1.000  C
  C365     1.0000 0.96870  0.28160  0.75000  Biso   1.000  C
  C366     1.0000 0.00930  0.33560  0.75000  Biso   1.000  C
  C367     1.0000 0.97270  0.39210  0.75000  Biso   1.000  C
  C368     1.0000 0.09030  0.33010  0.75000  Biso   1.000  C
  C369     1.0000 0.09010  0.95520  0.75000  Biso   1.000  C
  C370     1.0000 0.01060  0.96220  0.75000  Biso   1.000  C
  C371     1.0000 0.96950  0.90820  0.75000  Biso   1.000  C
  C372     1.0000 0.89630  0.91110  0.75000  Biso   1.000  C
  C373     1.0000 0.86190  0.96660  0.75000  Biso   1.000  C
  C374     1.0000 0.90030  0.02180  0.75000  Biso   1.000  C
  C375     1.0000 0.97540  0.01920  0.75000  Biso   1.000  C
  C376     1.0000 0.86240  0.08340  0.75000  Biso   1.000  C
  C377     1.0000 0.36150  0.04410  0.75000  Biso   1.000  C
  C378     1.0000 0.39790  0.10600  0.75000  Biso   1.000  C
  C379     1.0000 0.36050  0.16010  0.75000  Biso   1.000  C
  C380     1.0000 0.39550  0.21690  0.75000  Biso   1.000  C
  C381     1.0000 0.46870  0.21840  0.75000  Biso   1.000  C
  C382     1.0000 0.50930  0.16440  0.75000  Biso   1.000  C
  C383     1.0000 0.47270  0.10790  0.75000  Biso   1.000  C
  C384     1.0000 0.59030  0.16990  0.75000  Biso   1.000  C
  C385     1.0000 0.40990  0.45520  0.25000  Biso   1.000  C
  C386     1.0000 0.48940  0.46220  0.25000  Biso   1.000  C
  C387     1.0000 0.53050  0.40820  0.25000  Biso   1.000  C
  C388     1.0000 0.60370  0.41110  0.25000  Biso   1.000  C
  C389     1.0000 0.63810  0.46660  0.25000  Biso   1.000  C
  C390     1.0000 0.59970  0.52180  0.25000  Biso   1.000  C
  C391     1.0000 0.52460  0.51920  0.25000  Biso   1.000  C
  C392     1.0000 0.63760  0.58340  0.25000  Biso   1.000  C
  C393     1.0000 0.13850  0.54410  0.25000  Biso   1.000  C
  C394     1.0000 0.10210  0.60600  0.25000  Biso   1.000  C
  C395     1.0000 0.13950  0.66010  0.25000  Biso   1.000  C
  C396     1.0000 0.10450  0.71690  0.25000  Biso   1.000  C
  C397     1.0000 0.03130  0.71840  0.25000  Biso   1.000  C
  C398     1.0000 0.99070  0.66440  0.25000  Biso   1.000  C
  C399     1.0000 0.02730  0.60790  0.25000  Biso   1.000  C
  C400     1.0000 0.90970  0.66990  0.25000  Biso   1.000  C
  N1       1.0000 0.24930  0.81030  0.17603  Biso   1.000  N
  N2       1.0000 0.78091  0.87912  0.04067  Biso   1.000  N
  N3       1.0000 0.74410  0.07660  0.31708  Biso   1.000  N
  N4       1.0000 0.26947  0.07488  0.41474  Biso   1.000  N
  N5       1.0000 0.19360  0.80400  0.09856  Biso   1.000  N
  N6       1.0000 0.85010  0.89470  0.11090  Biso   1.000  N
  N7       1.0000 0.33886  0.01970  0.36195  Biso   1.000  N
  N8       1.0000 0.67320  0.11419  0.37860  Biso   1.000  N
  N9       1.0000 0.25070  0.31030  0.82397  Biso   1.000  N
  N10      1.0000 0.71909  0.37912  0.95933  Biso   1.000  N
  N11      1.0000 0.75590  0.57660  0.68292  Biso   1.000  N
  N12      1.0000 0.23053  0.57488  0.58526  Biso   1.000  N
  N13      1.0000 0.30640  0.30400  0.90144  Biso   1.000  N
  N14      1.0000 0.64990  0.39470  0.88910  Biso   1.000  N
  N15      1.0000 0.16114  0.51970  0.63805  Biso   1.000  N
  N16      1.0000 0.82680  0.61419  0.62140  Biso   1.000  N
  N17      1.0000 0.75070  0.18970  0.67603  Biso   1.000  N
  N18      1.0000 0.21909  0.12088  0.54067  Biso   1.000  N
  N19      1.0000 0.25590  0.92340  0.81708  Biso   1.000  N
  N20      1.0000 0.73053  0.92512  0.91474  Biso   1.000  N
  N21      1.0000 0.80640  0.19600  0.59856  Biso   1.000  N
  N22      1.0000 0.14990  0.10530  0.61090  Biso   1.000  N
  N23      1.0000 0.66114  0.98030  0.86195  Biso   1.000  N
  N24      1.0000 0.32680  0.88581  0.87860  Biso   1.000  N
  N25      1.0000 0.74930  0.68970  0.32397  Biso   1.000  N
  N26      1.0000 0.28091  0.62088  0.45933  Biso   1.000  N
  N27      1.0000 0.24410  0.42340  0.18292  Biso   1.000  N
  N28      1.0000 0.76947  0.42512  0.08526  Biso   1.000  N
  N29      1.0000 0.69360  0.69600  0.40144  Biso   1.000  N
  N30      1.0000 0.35010  0.60530  0.38910  Biso   1.000  N
  N31      1.0000 0.83886  0.48030  0.13805  Biso   1.000  N
  N32      1.0000 0.17320  0.38581  0.12140  Biso   1.000  N
  N33      1.0000 0.75070  0.18970  0.82397  Biso   1.000  N
  N34      1.0000 0.21909  0.12088  0.95933  Biso   1.000  N
  N35      1.0000 0.25590  0.92340  0.68292  Biso   1.000  N
  N36      1.0000 0.73053  0.92512  0.58526  Biso   1.000  N
  N37      1.0000 0.80640  0.19600  0.90144  Biso   1.000  N
  N38      1.0000 0.14990  0.10530  0.88910  Biso   1.000  N
  N39      1.0000 0.66114  0.98030  0.63805  Biso   1.000  N
  N40      1.0000 0.32680  0.88581  0.62140  Biso   1.000  N
  N41      1.0000 0.74930  0.68970  0.17603  Biso   1.000  N
  N42      1.0000 0.28091  0.62088  0.04067  Biso   1.000  N
  N43      1.0000 0.24410  0.42340  0.31708  Biso   1.000  N
  N44      1.0000 0.76947  0.42512  0.41474  Biso   1.000  N
  N45      1.0000 0.69360  0.69600  0.09856  Biso   1.000  N
  N46      1.0000 0.35010  0.60530  0.11090  Biso   1.000  N
  N47      1.0000 0.83886  0.48030  0.36195  Biso   1.000  N
  N48      1.0000 0.17320  0.38581  0.37860  Biso   1.000  N
  N49      1.0000 0.24930  0.81030  0.32397  Biso   1.000  N
  N50      1.0000 0.78091  0.87912  0.45933  Biso   1.000  N
  N51      1.0000 0.74410  0.07660  0.18292  Biso   1.000  N
  N52      1.0000 0.26947  0.07488  0.08526  Biso   1.000  N
  N53      1.0000 0.19360  0.80400  0.40144  Biso   1.000  N
  N54      1.0000 0.85010  0.89470  0.38910  Biso   1.000  N
  N55      1.0000 0.33886  0.01970  0.13805  Biso   1.000  N
  N56      1.0000 0.67320  0.11419  0.12140  Biso   1.000  N
  N57      1.0000 0.25070  0.31030  0.67603  Biso   1.000  N
  N58      1.0000 0.71909  0.37912  0.54067  Biso   1.000  N
  N59      1.0000 0.75590  0.57660  0.81708  Biso   1.000  N
  N60      1.0000 0.23053  0.57488  0.91474  Biso   1.000  N
  N61      1.0000 0.30640  0.30400  0.59856  Biso   1.000  N
  N62      1.0000 0.64990  0.39470  0.61090  Biso   1.000  N
  N63      1.0000 0.16114  0.51970  0.86195  Biso   1.000  N
  N64      1.0000 0.82680  0.61419  0.87860  Biso   1.000  N
  O1       1.0000 0.69875  0.78802  0.94381  Biso   1.000  O
  O2       1.0000 0.61678  0.83789  0.99176  Biso   1.000  O
  O3       1.0000 0.35545  0.65804  0.93299  Biso   1.000  O
  O4       1.0000 0.36607  0.74237  0.98467  Biso   1.000  O
  O5       1.0000 0.80125  0.28802  0.05619  Biso   1.000  O
  O6       1.0000 0.88322  0.33789  0.00824  Biso   1.000  O
  O7       1.0000 0.14455  0.15804  0.06701  Biso   1.000  O
  O8       1.0000 0.13393  0.24237  0.01533  Biso   1.000  O
  O9       1.0000 0.30125  0.21198  0.44381  Biso   1.000  O
  O10      1.0000 0.38322  0.16211  0.49176  Biso   1.000  O
  O11      1.0000 0.64455  0.34196  0.43299  Biso   1.000  O
  O12      1.0000 0.63393  0.25763  0.48467  Biso   1.000  O
  O13      1.0000 0.19875  0.71198  0.55619  Biso   1.000  O
  O14      1.0000 0.11678  0.66211  0.50824  Biso   1.000  O
  O15      1.0000 0.85545  0.84196  0.56701  Biso   1.000  O
  O16      1.0000 0.86607  0.75763  0.51533  Biso   1.000  O
  O17      1.0000 0.30125  0.21198  0.05619  Biso   1.000  O
  O18      1.0000 0.38322  0.16211  0.00824  Biso   1.000  O
  O19      1.0000 0.64455  0.34196  0.06701  Biso   1.000  O
  O20      1.0000 0.63393  0.25763  0.01533  Biso   1.000  O
  O21      1.0000 0.19875  0.71198  0.94381  Biso   1.000  O
  O22      1.0000 0.11678  0.66211  0.99176  Biso   1.000  O
  O23      1.0000 0.85545  0.84196  0.93299  Biso   1.000  O
  O24      1.0000 0.86607  0.75763  0.98467  Biso   1.000  O
  O25      1.0000 0.69875  0.78802  0.55619  Biso   1.000  O
  O26      1.0000 0.61678  0.83789  0.50824  Biso   1.000  O
  O27      1.0000 0.35545  0.65804  0.56701  Biso   1.000  O
  O28      1.0000 0.36607  0.74237  0.51533  Biso   1.000  O
  O29      1.0000 0.80125  0.28802  0.44381  Biso   1.000  O
  O30      1.0000 0.88322  0.33789  0.49176  Biso   1.000  O
  O31      1.0000 0.14455  0.15804  0.43299  Biso   1.000  O
  O32      1.0000 0.13393  0.24237  0.48467  Biso   1.000  O
  O33      1.0000 0.88390  0.09780  0.25000  Biso   1.000  O
  O34      1.0000 0.87100  0.99534  0.25000  Biso   1.000  O
  O35      1.0000 0.10230  0.86847  0.25000  Biso   1.000  O
  O36      1.0000 0.20630  0.91886  0.25000  Biso   1.000  O
  O37      1.0000 0.70830  0.95436  0.25000  Biso   1.000  O
  O38      1.0000 0.60340  0.00444  0.25000  Biso   1.000  O
  O39      1.0000 0.37270  0.87966  0.25000  Biso   1.000  O
  O40      1.0000 0.38360  0.77790  0.25000  Biso   1.000  O
  O41      1.0000 0.61610  0.59780  0.75000  Biso   1.000  O
  O42      1.0000 0.62900  0.49534  0.75000  Biso   1.000  O
  O43      1.0000 0.39770  0.36847  0.75000  Biso   1.000  O
  O44      1.0000 0.29370  0.41886  0.75000  Biso   1.000  O
  O45      1.0000 0.79170  0.45436  0.75000  Biso   1.000  O
  O46      1.0000 0.89660  0.50444  0.75000  Biso   1.000  O
  O47      1.0000 0.12730  0.37966  0.75000  Biso   1.000  O
  O48      1.0000 0.11640  0.27790  0.75000  Biso   1.000  O
  O49      1.0000 0.11610  0.90220  0.75000  Biso   1.000  O
  O50      1.0000 0.12900  0.00466  0.75000  Biso   1.000  O
  O51      1.0000 0.89770  0.13153  0.75000  Biso   1.000  O
  O52      1.0000 0.79370  0.08114  0.75000  Biso   1.000  O
  O53      1.0000 0.29170  0.04564  0.75000  Biso   1.000  O
  O54      1.0000 0.39660  0.99556  0.75000  Biso   1.000  O
  O55      1.0000 0.62730  0.12034  0.75000  Biso   1.000  O
  O56      1.0000 0.61640  0.22210  0.75000  Biso   1.000  O
  O57      1.0000 0.38390  0.40220  0.25000  Biso   1.000  O
  O58      1.0000 0.37100  0.50466  0.25000  Biso   1.000  O
  O59      1.0000 0.60230  0.63153  0.25000  Biso   1.000  O
  O60      1.0000 0.70630  0.58114  0.25000  Biso   1.000  O
  O61      1.0000 0.20830  0.54564  0.25000  Biso   1.000  O
  O62      1.0000 0.10340  0.49556  0.25000  Biso   1.000  O
  O63      1.0000 0.87270  0.62034  0.25000  Biso   1.000  O
  O64      1.0000 0.88360  0.72210  0.25000  Biso   1.000  O
