data_image0
_cell_length_a       31.2009
_cell_length_b       31.2009
_cell_length_c       31.2009
_cell_angle_alpha    90
_cell_angle_beta     90
_cell_angle_gamma    90

_symmetry_space_group_name_H-M    "P 1"
_symmetry_int_tables_number       1

loop_
  _symmetry_equiv_pos_as_xyz
  'x, y, z'

loop_
  _atom_site_label
  _atom_site_occupancy
  _atom_site_fract_x
  _atom_site_fract_y
  _atom_site_fract_z
  _atom_site_thermal_displace_type
  _atom_site_B_iso_or_equiv
  _atom_site_type_symbol
  Cd1      1.0000 0.06204  0.12044  0.92395  Biso   1.000  Cd
  C1       1.0000 0.88070  0.16440  0.00640  Biso   1.000  C
  C2       1.0000 0.88590  0.20190  0.03250  Biso   1.000  C
  H1       1.0000 0.86390  0.21210  0.04980  Biso   1.000  H
  C3       1.0000 0.92670  0.22280  0.03050  Biso   1.000  C
  H2       1.0000 0.93150  0.24940  0.04320  Biso   1.000  H
  C4       1.0000 0.95800  0.20150  0.00890  Biso   1.000  C
  H3       1.0000 0.98520  0.21360  0.00970  Biso   1.000  H
  C5       1.0000 0.95400  0.16570  0.98690  Biso   1.000  C
  C6       1.0000 0.91540  0.14620  0.98590  Biso   1.000  C
  C7       1.0000 0.91180  0.10270  0.96300  Biso   1.000  C
  C8       1.0000 0.91820  0.06490  0.98760  Biso   1.000  C
  C9       1.0000 0.91600  0.02570  0.96760  Biso   1.000  C
  H4       1.0000 0.92000  0.00120  0.98400  Biso   1.000  H
  C10      1.0000 0.90810  0.02100  0.92350  Biso   1.000  C
  H5       1.0000 0.90680  0.99430  0.91040  Biso   1.000  H
  C11      1.0000 0.90260  0.05830  0.90150  Biso   1.000  C
  H6       1.0000 0.89720  0.05640  0.87220  Biso   1.000  H
  C12      1.0000 0.90430  0.09850  0.91900  Biso   1.000  C
  C13      1.0000 0.83730  0.14550  0.00650  Biso   1.000  C
  C14      1.0000 0.99300  0.14980  0.96140  Biso   1.000  C
  C15      1.0000 0.92120  0.06550  0.03580  Biso   1.000  C
  C16      1.0000 0.89560  0.13580  0.88860  Biso   1.000  C
  O1       1.0000 0.83110  0.10740  0.00910  Biso   1.000  O
  O2       1.0000 0.80550  0.17240  0.00250  Biso   1.000  O
  O3       1.0000 0.99620  0.14970  0.92600  Biso   1.000  O
  O4       1.0000 0.01930  0.13100  0.97770  Biso   1.000  O
  O5       1.0000 0.94640  0.08960  0.05330  Biso   1.000  O
  O6       1.0000 0.90010  0.03860  0.05530  Biso   1.000  O
  O7       1.0000 0.89940  0.13040  0.85030  Biso   1.000  O
  O8       1.0000 0.88180  0.17070  0.90460  Biso   1.000  O
  Cd2      1.0000 0.56204  0.62044  0.42395  Biso   1.000  Cd
  C17      1.0000 0.38070  0.66440  0.50640  Biso   1.000  C
  C18      1.0000 0.38590  0.70190  0.53250  Biso   1.000  C
  H7       1.0000 0.36390  0.71210  0.54980  Biso   1.000  H
  C19      1.0000 0.42670  0.72280  0.53050  Biso   1.000  C
  H8       1.0000 0.43150  0.74940  0.54320  Biso   1.000  H
  C20      1.0000 0.45800  0.70150  0.50890  Biso   1.000  C
  H9       1.0000 0.48520  0.71360  0.50970  Biso   1.000  H
  C21      1.0000 0.45400  0.66570  0.48690  Biso   1.000  C
  C22      1.0000 0.41540  0.64620  0.48590  Biso   1.000  C
  C23      1.0000 0.41180  0.60270  0.46300  Biso   1.000  C
  C24      1.0000 0.41820  0.56490  0.48760  Biso   1.000  C
  C25      1.0000 0.41600  0.52570  0.46760  Biso   1.000  C
  H10      1.0000 0.42000  0.50120  0.48400  Biso   1.000  H
  C26      1.0000 0.40810  0.52100  0.42350  Biso   1.000  C
  H11      1.0000 0.40680  0.49430  0.41040  Biso   1.000  H
  C27      1.0000 0.40260  0.55830  0.40150  Biso   1.000  C
  H12      1.0000 0.39720  0.55640  0.37220  Biso   1.000  H
  C28      1.0000 0.40430  0.59850  0.41900  Biso   1.000  C
  C29      1.0000 0.33730  0.64550  0.50650  Biso   1.000  C
  C30      1.0000 0.49300  0.64980  0.46140  Biso   1.000  C
  C31      1.0000 0.42120  0.56550  0.53580  Biso   1.000  C
  C32      1.0000 0.39560  0.63580  0.38860  Biso   1.000  C
  O9       1.0000 0.33110  0.60740  0.50910  Biso   1.000  O
  O10      1.0000 0.30550  0.67240  0.50250  Biso   1.000  O
  O11      1.0000 0.49620  0.64970  0.42600  Biso   1.000  O
  O12      1.0000 0.51930  0.63100  0.47770  Biso   1.000  O
  O13      1.0000 0.44640  0.58960  0.55330  Biso   1.000  O
  O14      1.0000 0.40010  0.53860  0.55530  Biso   1.000  O
  O15      1.0000 0.39940  0.63040  0.35030  Biso   1.000  O
  O16      1.0000 0.38180  0.67070  0.40460  Biso   1.000  O
  Cd3      1.0000 0.43796  0.87956  0.42395  Biso   1.000  Cd
  C33      1.0000 0.61930  0.83560  0.50640  Biso   1.000  C
  C34      1.0000 0.61410  0.79810  0.53250  Biso   1.000  C
  H13      1.0000 0.63610  0.78790  0.54980  Biso   1.000  H
  C35      1.0000 0.57330  0.77720  0.53050  Biso   1.000  C
  H14      1.0000 0.56850  0.75060  0.54320  Biso   1.000  H
  C36      1.0000 0.54200  0.79850  0.50890  Biso   1.000  C
  H15      1.0000 0.51480  0.78640  0.50970  Biso   1.000  H
  C37      1.0000 0.54600  0.83430  0.48690  Biso   1.000  C
  C38      1.0000 0.58460  0.85380  0.48590  Biso   1.000  C
  C39      1.0000 0.58820  0.89730  0.46300  Biso   1.000  C
  C40      1.0000 0.58180  0.93510  0.48760  Biso   1.000  C
  C41      1.0000 0.58400  0.97430  0.46760  Biso   1.000  C
  H16      1.0000 0.58000  0.99880  0.48400  Biso   1.000  H
  C42      1.0000 0.59190  0.97900  0.42350  Biso   1.000  C
  H17      1.0000 0.59320  0.00570  0.41040  Biso   1.000  H
  C43      1.0000 0.59740  0.94170  0.40150  Biso   1.000  C
  H18      1.0000 0.60280  0.94360  0.37220  Biso   1.000  H
  C44      1.0000 0.59570  0.90150  0.41900  Biso   1.000  C
  C45      1.0000 0.66270  0.85450  0.50650  Biso   1.000  C
  C46      1.0000 0.50700  0.85020  0.46140  Biso   1.000  C
  C47      1.0000 0.57880  0.93450  0.53580  Biso   1.000  C
  C48      1.0000 0.60440  0.86420  0.38860  Biso   1.000  C
  O17      1.0000 0.66890  0.89260  0.50910  Biso   1.000  O
  O18      1.0000 0.69450  0.82760  0.50250  Biso   1.000  O
  O19      1.0000 0.50380  0.85030  0.42600  Biso   1.000  O
  O20      1.0000 0.48070  0.86900  0.47770  Biso   1.000  O
  O21      1.0000 0.55360  0.91040  0.55330  Biso   1.000  O
  O22      1.0000 0.59990  0.96140  0.55530  Biso   1.000  O
  O23      1.0000 0.60060  0.86960  0.35030  Biso   1.000  O
  O24      1.0000 0.61820  0.82930  0.40460  Biso   1.000  O
  Cd4      1.0000 0.93796  0.37956  0.92395  Biso   1.000  Cd
  C49      1.0000 0.11930  0.33560  0.00640  Biso   1.000  C
  C50      1.0000 0.11410  0.29810  0.03250  Biso   1.000  C
  H19      1.0000 0.13610  0.28790  0.04980  Biso   1.000  H
  C51      1.0000 0.07330  0.27720  0.03050  Biso   1.000  C
  H20      1.0000 0.06850  0.25060  0.04320  Biso   1.000  H
  C52      1.0000 0.04200  0.29850  0.00890  Biso   1.000  C
  H21      1.0000 0.01480  0.28640  0.00970  Biso   1.000  H
  C53      1.0000 0.04600  0.33430  0.98690  Biso   1.000  C
  C54      1.0000 0.08460  0.35380  0.98590  Biso   1.000  C
  C55      1.0000 0.08820  0.39730  0.96300  Biso   1.000  C
  C56      1.0000 0.08180  0.43510  0.98760  Biso   1.000  C
  C57      1.0000 0.08400  0.47430  0.96760  Biso   1.000  C
  H22      1.0000 0.08000  0.49880  0.98400  Biso   1.000  H
  C58      1.0000 0.09190  0.47900  0.92350  Biso   1.000  C
  H23      1.0000 0.09320  0.50570  0.91040  Biso   1.000  H
  C59      1.0000 0.09740  0.44170  0.90150  Biso   1.000  C
  H24      1.0000 0.10280  0.44360  0.87220  Biso   1.000  H
  C60      1.0000 0.09570  0.40150  0.91900  Biso   1.000  C
  C61      1.0000 0.16270  0.35450  0.00650  Biso   1.000  C
  C62      1.0000 0.00700  0.35020  0.96140  Biso   1.000  C
  C63      1.0000 0.07880  0.43450  0.03580  Biso   1.000  C
  C64      1.0000 0.10440  0.36420  0.88860  Biso   1.000  C
  O25      1.0000 0.16890  0.39260  0.00910  Biso   1.000  O
  O26      1.0000 0.19450  0.32760  0.00250  Biso   1.000  O
  O27      1.0000 0.00380  0.35030  0.92600  Biso   1.000  O
  O28      1.0000 0.98070  0.36900  0.97770  Biso   1.000  O
  O29      1.0000 0.05360  0.41040  0.05330  Biso   1.000  O
  O30      1.0000 0.09990  0.46140  0.05530  Biso   1.000  O
  O31      1.0000 0.10060  0.36960  0.85030  Biso   1.000  O
  O32      1.0000 0.11820  0.32930  0.90460  Biso   1.000  O
  Cd5      1.0000 0.93796  0.62044  0.57605  Biso   1.000  Cd
  C65      1.0000 0.11930  0.66440  0.49360  Biso   1.000  C
  C66      1.0000 0.11410  0.70190  0.46750  Biso   1.000  C
  H25      1.0000 0.13610  0.71210  0.45020  Biso   1.000  H
  C67      1.0000 0.07330  0.72280  0.46950  Biso   1.000  C
  H26      1.0000 0.06850  0.74940  0.45680  Biso   1.000  H
  C68      1.0000 0.04200  0.70150  0.49110  Biso   1.000  C
  H27      1.0000 0.01480  0.71360  0.49030  Biso   1.000  H
  C69      1.0000 0.04600  0.66570  0.51310  Biso   1.000  C
  C70      1.0000 0.08460  0.64620  0.51410  Biso   1.000  C
  C71      1.0000 0.08820  0.60270  0.53700  Biso   1.000  C
  C72      1.0000 0.08180  0.56490  0.51240  Biso   1.000  C
  C73      1.0000 0.08400  0.52570  0.53240  Biso   1.000  C
  H28      1.0000 0.08000  0.50120  0.51600  Biso   1.000  H
  C74      1.0000 0.09190  0.52100  0.57650  Biso   1.000  C
  H29      1.0000 0.09320  0.49430  0.58960  Biso   1.000  H
  C75      1.0000 0.09740  0.55830  0.59850  Biso   1.000  C
  H30      1.0000 0.10280  0.55640  0.62780  Biso   1.000  H
  C76      1.0000 0.09570  0.59850  0.58100  Biso   1.000  C
  C77      1.0000 0.16270  0.64550  0.49350  Biso   1.000  C
  C78      1.0000 0.00700  0.64980  0.53860  Biso   1.000  C
  C79      1.0000 0.07880  0.56550  0.46420  Biso   1.000  C
  C80      1.0000 0.10440  0.63580  0.61140  Biso   1.000  C
  O33      1.0000 0.16890  0.60740  0.49090  Biso   1.000  O
  O34      1.0000 0.19450  0.67240  0.49750  Biso   1.000  O
  O35      1.0000 0.00380  0.64970  0.57400  Biso   1.000  O
  O36      1.0000 0.98070  0.63100  0.52230  Biso   1.000  O
  O37      1.0000 0.05360  0.58960  0.44670  Biso   1.000  O
  O38      1.0000 0.09990  0.53860  0.44470  Biso   1.000  O
  O39      1.0000 0.10060  0.63040  0.64970  Biso   1.000  O
  O40      1.0000 0.11820  0.67070  0.59540  Biso   1.000  O
  Cd6      1.0000 0.43796  0.12044  0.07605  Biso   1.000  Cd
  C81      1.0000 0.61930  0.16440  0.99360  Biso   1.000  C
  C82      1.0000 0.61410  0.20190  0.96750  Biso   1.000  C
  H31      1.0000 0.63610  0.21210  0.95020  Biso   1.000  H
  C83      1.0000 0.57330  0.22280  0.96950  Biso   1.000  C
  H32      1.0000 0.56850  0.24940  0.95680  Biso   1.000  H
  C84      1.0000 0.54200  0.20150  0.99110  Biso   1.000  C
  H33      1.0000 0.51480  0.21360  0.99030  Biso   1.000  H
  C85      1.0000 0.54600  0.16570  0.01310  Biso   1.000  C
  C86      1.0000 0.58460  0.14620  0.01410  Biso   1.000  C
  C87      1.0000 0.58820  0.10270  0.03700  Biso   1.000  C
  C88      1.0000 0.58180  0.06490  0.01240  Biso   1.000  C
  C89      1.0000 0.58400  0.02570  0.03240  Biso   1.000  C
  H34      1.0000 0.58000  0.00120  0.01600  Biso   1.000  H
  C90      1.0000 0.59190  0.02100  0.07650  Biso   1.000  C
  H35      1.0000 0.59320  0.99430  0.08960  Biso   1.000  H
  C91      1.0000 0.59740  0.05830  0.09850  Biso   1.000  C
  H36      1.0000 0.60280  0.05640  0.12780  Biso   1.000  H
  C92      1.0000 0.59570  0.09850  0.08100  Biso   1.000  C
  C93      1.0000 0.66270  0.14550  0.99350  Biso   1.000  C
  C94      1.0000 0.50700  0.14980  0.03860  Biso   1.000  C
  C95      1.0000 0.57880  0.06550  0.96420  Biso   1.000  C
  C96      1.0000 0.60440  0.13580  0.11140  Biso   1.000  C
  O41      1.0000 0.66890  0.10740  0.99090  Biso   1.000  O
  O42      1.0000 0.69450  0.17240  0.99750  Biso   1.000  O
  O43      1.0000 0.50380  0.14970  0.07400  Biso   1.000  O
  O44      1.0000 0.48070  0.13100  0.02230  Biso   1.000  O
  O45      1.0000 0.55360  0.08960  0.94670  Biso   1.000  O
  O46      1.0000 0.59990  0.03860  0.94470  Biso   1.000  O
  O47      1.0000 0.60060  0.13040  0.14970  Biso   1.000  O
  O48      1.0000 0.61820  0.17070  0.09540  Biso   1.000  O
  Cd7      1.0000 0.56204  0.37956  0.07605  Biso   1.000  Cd
  C97      1.0000 0.38070  0.33560  0.99360  Biso   1.000  C
  C98      1.0000 0.38590  0.29810  0.96750  Biso   1.000  C
  H37      1.0000 0.36390  0.28790  0.95020  Biso   1.000  H
  C99      1.0000 0.42670  0.27720  0.96950  Biso   1.000  C
  H38      1.0000 0.43150  0.25060  0.95680  Biso   1.000  H
  C100     1.0000 0.45800  0.29850  0.99110  Biso   1.000  C
  H39      1.0000 0.48520  0.28640  0.99030  Biso   1.000  H
  C101     1.0000 0.45400  0.33430  0.01310  Biso   1.000  C
  C102     1.0000 0.41540  0.35380  0.01410  Biso   1.000  C
  C103     1.0000 0.41180  0.39730  0.03700  Biso   1.000  C
  C104     1.0000 0.41820  0.43510  0.01240  Biso   1.000  C
  C105     1.0000 0.41600  0.47430  0.03240  Biso   1.000  C
  H40      1.0000 0.42000  0.49880  0.01600  Biso   1.000  H
  C106     1.0000 0.40810  0.47900  0.07650  Biso   1.000  C
  H41      1.0000 0.40680  0.50570  0.08960  Biso   1.000  H
  C107     1.0000 0.40260  0.44170  0.09850  Biso   1.000  C
  H42      1.0000 0.39720  0.44360  0.12780  Biso   1.000  H
  C108     1.0000 0.40430  0.40150  0.08100  Biso   1.000  C
  C109     1.0000 0.33730  0.35450  0.99350  Biso   1.000  C
  C110     1.0000 0.49300  0.35020  0.03860  Biso   1.000  C
  C111     1.0000 0.42120  0.43450  0.96420  Biso   1.000  C
  C112     1.0000 0.39560  0.36420  0.11140  Biso   1.000  C
  O49      1.0000 0.33110  0.39260  0.99090  Biso   1.000  O
  O50      1.0000 0.30550  0.32760  0.99750  Biso   1.000  O
  O51      1.0000 0.49620  0.35030  0.07400  Biso   1.000  O
  O52      1.0000 0.51930  0.36900  0.02230  Biso   1.000  O
  O53      1.0000 0.44640  0.41040  0.94670  Biso   1.000  O
  O54      1.0000 0.40010  0.46140  0.94470  Biso   1.000  O
  O55      1.0000 0.39940  0.36960  0.14970  Biso   1.000  O
  O56      1.0000 0.38180  0.32930  0.09540  Biso   1.000  O
  Cd8      1.0000 0.06204  0.87956  0.57605  Biso   1.000  Cd
  C113     1.0000 0.88070  0.83560  0.49360  Biso   1.000  C
  C114     1.0000 0.88590  0.79810  0.46750  Biso   1.000  C
  H43      1.0000 0.86390  0.78790  0.45020  Biso   1.000  H
  C115     1.0000 0.92670  0.77720  0.46950  Biso   1.000  C
  H44      1.0000 0.93150  0.75060  0.45680  Biso   1.000  H
  C116     1.0000 0.95800  0.79850  0.49110  Biso   1.000  C
  H45      1.0000 0.98520  0.78640  0.49030  Biso   1.000  H
  C117     1.0000 0.95400  0.83430  0.51310  Biso   1.000  C
  C118     1.0000 0.91540  0.85380  0.51410  Biso   1.000  C
  C119     1.0000 0.91180  0.89730  0.53700  Biso   1.000  C
  C120     1.0000 0.91820  0.93510  0.51240  Biso   1.000  C
  C121     1.0000 0.91600  0.97430  0.53240  Biso   1.000  C
  H46      1.0000 0.92000  0.99880  0.51600  Biso   1.000  H
  C122     1.0000 0.90810  0.97900  0.57650  Biso   1.000  C
  H47      1.0000 0.90680  0.00570  0.58960  Biso   1.000  H
  C123     1.0000 0.90260  0.94170  0.59850  Biso   1.000  C
  H48      1.0000 0.89720  0.94360  0.62780  Biso   1.000  H
  C124     1.0000 0.90430  0.90150  0.58100  Biso   1.000  C
  C125     1.0000 0.83730  0.85450  0.49350  Biso   1.000  C
  C126     1.0000 0.99300  0.85020  0.53860  Biso   1.000  C
  C127     1.0000 0.92120  0.93450  0.46420  Biso   1.000  C
  C128     1.0000 0.89560  0.86420  0.61140  Biso   1.000  C
  O57      1.0000 0.83110  0.89260  0.49090  Biso   1.000  O
  O58      1.0000 0.80550  0.82760  0.49750  Biso   1.000  O
  O59      1.0000 0.99620  0.85030  0.57400  Biso   1.000  O
  O60      1.0000 0.01930  0.86900  0.52230  Biso   1.000  O
  O61      1.0000 0.94640  0.91040  0.44670  Biso   1.000  O
  O62      1.0000 0.90010  0.96140  0.44470  Biso   1.000  O
  O63      1.0000 0.89940  0.86960  0.64970  Biso   1.000  O
  O64      1.0000 0.88180  0.82930  0.59540  Biso   1.000  O
  Cd9      1.0000 0.92395  0.06204  0.12044  Biso   1.000  Cd
  C129     1.0000 0.00640  0.88070  0.16440  Biso   1.000  C
  C130     1.0000 0.03250  0.88590  0.20190  Biso   1.000  C
  H49      1.0000 0.04980  0.86390  0.21210  Biso   1.000  H
  C131     1.0000 0.03050  0.92670  0.22280  Biso   1.000  C
  H50      1.0000 0.04320  0.93150  0.24940  Biso   1.000  H
  C132     1.0000 0.00890  0.95800  0.20150  Biso   1.000  C
  H51      1.0000 0.00970  0.98520  0.21360  Biso   1.000  H
  C133     1.0000 0.98690  0.95400  0.16570  Biso   1.000  C
  C134     1.0000 0.98590  0.91540  0.14620  Biso   1.000  C
  C135     1.0000 0.96300  0.91180  0.10270  Biso   1.000  C
  C136     1.0000 0.98760  0.91820  0.06490  Biso   1.000  C
  C137     1.0000 0.96760  0.91600  0.02570  Biso   1.000  C
  H52      1.0000 0.98400  0.92000  0.00120  Biso   1.000  H
  C138     1.0000 0.92350  0.90810  0.02100  Biso   1.000  C
  H53      1.0000 0.91040  0.90680  0.99430  Biso   1.000  H
  C139     1.0000 0.90150  0.90260  0.05830  Biso   1.000  C
  H54      1.0000 0.87220  0.89720  0.05640  Biso   1.000  H
  C140     1.0000 0.91900  0.90430  0.09850  Biso   1.000  C
  C141     1.0000 0.00650  0.83730  0.14550  Biso   1.000  C
  C142     1.0000 0.96140  0.99300  0.14980  Biso   1.000  C
  C143     1.0000 0.03580  0.92120  0.06550  Biso   1.000  C
  C144     1.0000 0.88860  0.89560  0.13580  Biso   1.000  C
  O65      1.0000 0.00910  0.83110  0.10740  Biso   1.000  O
  O66      1.0000 0.00250  0.80550  0.17240  Biso   1.000  O
  O67      1.0000 0.92600  0.99620  0.14970  Biso   1.000  O
  O68      1.0000 0.97770  0.01930  0.13100  Biso   1.000  O
  O69      1.0000 0.05330  0.94640  0.08960  Biso   1.000  O
  O70      1.0000 0.05530  0.90010  0.03860  Biso   1.000  O
  O71      1.0000 0.85030  0.89940  0.13040  Biso   1.000  O
  O72      1.0000 0.90460  0.88180  0.17070  Biso   1.000  O
  Cd10     1.0000 0.42395  0.56204  0.62044  Biso   1.000  Cd
  C145     1.0000 0.50640  0.38070  0.66440  Biso   1.000  C
  C146     1.0000 0.53250  0.38590  0.70190  Biso   1.000  C
  H55      1.0000 0.54980  0.36390  0.71210  Biso   1.000  H
  C147     1.0000 0.53050  0.42670  0.72280  Biso   1.000  C
  H56      1.0000 0.54320  0.43150  0.74940  Biso   1.000  H
  C148     1.0000 0.50890  0.45800  0.70150  Biso   1.000  C
  H57      1.0000 0.50970  0.48520  0.71360  Biso   1.000  H
  C149     1.0000 0.48690  0.45400  0.66570  Biso   1.000  C
  C150     1.0000 0.48590  0.41540  0.64620  Biso   1.000  C
  C151     1.0000 0.46300  0.41180  0.60270  Biso   1.000  C
  C152     1.0000 0.48760  0.41820  0.56490  Biso   1.000  C
  C153     1.0000 0.46760  0.41600  0.52570  Biso   1.000  C
  H58      1.0000 0.48400  0.42000  0.50120  Biso   1.000  H
  C154     1.0000 0.42350  0.40810  0.52100  Biso   1.000  C
  H59      1.0000 0.41040  0.40680  0.49430  Biso   1.000  H
  C155     1.0000 0.40150  0.40260  0.55830  Biso   1.000  C
  H60      1.0000 0.37220  0.39720  0.55640  Biso   1.000  H
  C156     1.0000 0.41900  0.40430  0.59850  Biso   1.000  C
  C157     1.0000 0.50650  0.33730  0.64550  Biso   1.000  C
  C158     1.0000 0.46140  0.49300  0.64980  Biso   1.000  C
  C159     1.0000 0.53580  0.42120  0.56550  Biso   1.000  C
  C160     1.0000 0.38860  0.39560  0.63580  Biso   1.000  C
  O73      1.0000 0.50910  0.33110  0.60740  Biso   1.000  O
  O74      1.0000 0.50250  0.30550  0.67240  Biso   1.000  O
  O75      1.0000 0.42600  0.49620  0.64970  Biso   1.000  O
  O76      1.0000 0.47770  0.51930  0.63100  Biso   1.000  O
  O77      1.0000 0.55330  0.44640  0.58960  Biso   1.000  O
  O78      1.0000 0.55530  0.40010  0.53860  Biso   1.000  O
  O79      1.0000 0.35030  0.39940  0.63040  Biso   1.000  O
  O80      1.0000 0.40460  0.38180  0.67070  Biso   1.000  O
  Cd11     1.0000 0.42395  0.43796  0.87956  Biso   1.000  Cd
  C161     1.0000 0.50640  0.61930  0.83560  Biso   1.000  C
  C162     1.0000 0.53250  0.61410  0.79810  Biso   1.000  C
  H61      1.0000 0.54980  0.63610  0.78790  Biso   1.000  H
  C163     1.0000 0.53050  0.57330  0.77720  Biso   1.000  C
  H62      1.0000 0.54320  0.56850  0.75060  Biso   1.000  H
  C164     1.0000 0.50890  0.54200  0.79850  Biso   1.000  C
  H63      1.0000 0.50970  0.51480  0.78640  Biso   1.000  H
  C165     1.0000 0.48690  0.54600  0.83430  Biso   1.000  C
  C166     1.0000 0.48590  0.58460  0.85380  Biso   1.000  C
  C167     1.0000 0.46300  0.58820  0.89730  Biso   1.000  C
  C168     1.0000 0.48760  0.58180  0.93510  Biso   1.000  C
  C169     1.0000 0.46760  0.58400  0.97430  Biso   1.000  C
  H64      1.0000 0.48400  0.58000  0.99880  Biso   1.000  H
  C170     1.0000 0.42350  0.59190  0.97900  Biso   1.000  C
  H65      1.0000 0.41040  0.59320  0.00570  Biso   1.000  H
  C171     1.0000 0.40150  0.59740  0.94170  Biso   1.000  C
  H66      1.0000 0.37220  0.60280  0.94360  Biso   1.000  H
  C172     1.0000 0.41900  0.59570  0.90150  Biso   1.000  C
  C173     1.0000 0.50650  0.66270  0.85450  Biso   1.000  C
  C174     1.0000 0.46140  0.50700  0.85020  Biso   1.000  C
  C175     1.0000 0.53580  0.57880  0.93450  Biso   1.000  C
  C176     1.0000 0.38860  0.60440  0.86420  Biso   1.000  C
  O81      1.0000 0.50910  0.66890  0.89260  Biso   1.000  O
  O82      1.0000 0.50250  0.69450  0.82760  Biso   1.000  O
  O83      1.0000 0.42600  0.50380  0.85030  Biso   1.000  O
  O84      1.0000 0.47770  0.48070  0.86900  Biso   1.000  O
  O85      1.0000 0.55330  0.55360  0.91040  Biso   1.000  O
  O86      1.0000 0.55530  0.59990  0.96140  Biso   1.000  O
  O87      1.0000 0.35030  0.60060  0.86960  Biso   1.000  O
  O88      1.0000 0.40460  0.61820  0.82930  Biso   1.000  O
  Cd12     1.0000 0.92395  0.93796  0.37956  Biso   1.000  Cd
  C177     1.0000 0.00640  0.11930  0.33560  Biso   1.000  C
  C178     1.0000 0.03250  0.11410  0.29810  Biso   1.000  C
  H67      1.0000 0.04980  0.13610  0.28790  Biso   1.000  H
  C179     1.0000 0.03050  0.07330  0.27720  Biso   1.000  C
  H68      1.0000 0.04320  0.06850  0.25060  Biso   1.000  H
  C180     1.0000 0.00890  0.04200  0.29850  Biso   1.000  C
  H69      1.0000 0.00970  0.01480  0.28640  Biso   1.000  H
  C181     1.0000 0.98690  0.04600  0.33430  Biso   1.000  C
  C182     1.0000 0.98590  0.08460  0.35380  Biso   1.000  C
  C183     1.0000 0.96300  0.08820  0.39730  Biso   1.000  C
  C184     1.0000 0.98760  0.08180  0.43510  Biso   1.000  C
  C185     1.0000 0.96760  0.08400  0.47430  Biso   1.000  C
  H70      1.0000 0.98400  0.08000  0.49880  Biso   1.000  H
  C186     1.0000 0.92350  0.09190  0.47900  Biso   1.000  C
  H71      1.0000 0.91040  0.09320  0.50570  Biso   1.000  H
  C187     1.0000 0.90150  0.09740  0.44170  Biso   1.000  C
  H72      1.0000 0.87220  0.10280  0.44360  Biso   1.000  H
  C188     1.0000 0.91900  0.09570  0.40150  Biso   1.000  C
  C189     1.0000 0.00650  0.16270  0.35450  Biso   1.000  C
  C190     1.0000 0.96140  0.00700  0.35020  Biso   1.000  C
  C191     1.0000 0.03580  0.07880  0.43450  Biso   1.000  C
  C192     1.0000 0.88860  0.10440  0.36420  Biso   1.000  C
  O89      1.0000 0.00910  0.16890  0.39260  Biso   1.000  O
  O90      1.0000 0.00250  0.19450  0.32760  Biso   1.000  O
  O91      1.0000 0.92600  0.00380  0.35030  Biso   1.000  O
  O92      1.0000 0.97770  0.98070  0.36900  Biso   1.000  O
  O93      1.0000 0.05330  0.05360  0.41040  Biso   1.000  O
  O94      1.0000 0.05530  0.09990  0.46140  Biso   1.000  O
  O95      1.0000 0.85030  0.10060  0.36960  Biso   1.000  O
  O96      1.0000 0.90460  0.11820  0.32930  Biso   1.000  O
  Cd13     1.0000 0.57605  0.93796  0.62044  Biso   1.000  Cd
  C193     1.0000 0.49360  0.11930  0.66440  Biso   1.000  C
  C194     1.0000 0.46750  0.11410  0.70190  Biso   1.000  C
  H73      1.0000 0.45020  0.13610  0.71210  Biso   1.000  H
  C195     1.0000 0.46950  0.07330  0.72280  Biso   1.000  C
  H74      1.0000 0.45680  0.06850  0.74940  Biso   1.000  H
  C196     1.0000 0.49110  0.04200  0.70150  Biso   1.000  C
  H75      1.0000 0.49030  0.01480  0.71360  Biso   1.000  H
  C197     1.0000 0.51310  0.04600  0.66570  Biso   1.000  C
  C198     1.0000 0.51410  0.08460  0.64620  Biso   1.000  C
  C199     1.0000 0.53700  0.08820  0.60270  Biso   1.000  C
  C200     1.0000 0.51240  0.08180  0.56490  Biso   1.000  C
  C201     1.0000 0.53240  0.08400  0.52570  Biso   1.000  C
  H76      1.0000 0.51600  0.08000  0.50120  Biso   1.000  H
  C202     1.0000 0.57650  0.09190  0.52100  Biso   1.000  C
  H77      1.0000 0.58960  0.09320  0.49430  Biso   1.000  H
  C203     1.0000 0.59850  0.09740  0.55830  Biso   1.000  C
  H78      1.0000 0.62780  0.10280  0.55640  Biso   1.000  H
  C204     1.0000 0.58100  0.09570  0.59850  Biso   1.000  C
  C205     1.0000 0.49350  0.16270  0.64550  Biso   1.000  C
  C206     1.0000 0.53860  0.00700  0.64980  Biso   1.000  C
  C207     1.0000 0.46420  0.07880  0.56550  Biso   1.000  C
  C208     1.0000 0.61140  0.10440  0.63580  Biso   1.000  C
  O97      1.0000 0.49090  0.16890  0.60740  Biso   1.000  O
  O98      1.0000 0.49750  0.19450  0.67240  Biso   1.000  O
  O99      1.0000 0.57400  0.00380  0.64970  Biso   1.000  O
  O100     1.0000 0.52230  0.98070  0.63100  Biso   1.000  O
  O101     1.0000 0.44670  0.05360  0.58960  Biso   1.000  O
  O102     1.0000 0.44470  0.09990  0.53860  Biso   1.000  O
  O103     1.0000 0.64970  0.10060  0.63040  Biso   1.000  O
  O104     1.0000 0.59540  0.11820  0.67070  Biso   1.000  O
  Cd14     1.0000 0.07605  0.43796  0.12044  Biso   1.000  Cd
  C209     1.0000 0.99360  0.61930  0.16440  Biso   1.000  C
  C210     1.0000 0.96750  0.61410  0.20190  Biso   1.000  C
  H79      1.0000 0.95020  0.63610  0.21210  Biso   1.000  H
  C211     1.0000 0.96950  0.57330  0.22280  Biso   1.000  C
  H80      1.0000 0.95680  0.56850  0.24940  Biso   1.000  H
  C212     1.0000 0.99110  0.54200  0.20150  Biso   1.000  C
  H81      1.0000 0.99030  0.51480  0.21360  Biso   1.000  H
  C213     1.0000 0.01310  0.54600  0.16570  Biso   1.000  C
  C214     1.0000 0.01410  0.58460  0.14620  Biso   1.000  C
  C215     1.0000 0.03700  0.58820  0.10270  Biso   1.000  C
  C216     1.0000 0.01240  0.58180  0.06490  Biso   1.000  C
  C217     1.0000 0.03240  0.58400  0.02570  Biso   1.000  C
  H82      1.0000 0.01600  0.58000  0.00120  Biso   1.000  H
  C218     1.0000 0.07650  0.59190  0.02100  Biso   1.000  C
  H83      1.0000 0.08960  0.59320  0.99430  Biso   1.000  H
  C219     1.0000 0.09850  0.59740  0.05830  Biso   1.000  C
  H84      1.0000 0.12780  0.60280  0.05640  Biso   1.000  H
  C220     1.0000 0.08100  0.59570  0.09850  Biso   1.000  C
  C221     1.0000 0.99350  0.66270  0.14550  Biso   1.000  C
  C222     1.0000 0.03860  0.50700  0.14980  Biso   1.000  C
  C223     1.0000 0.96420  0.57880  0.06550  Biso   1.000  C
  C224     1.0000 0.11140  0.60440  0.13580  Biso   1.000  C
  O105     1.0000 0.99090  0.66890  0.10740  Biso   1.000  O
  O106     1.0000 0.99750  0.69450  0.17240  Biso   1.000  O
  O107     1.0000 0.07400  0.50380  0.14970  Biso   1.000  O
  O108     1.0000 0.02230  0.48070  0.13100  Biso   1.000  O
  O109     1.0000 0.94670  0.55360  0.08960  Biso   1.000  O
  O110     1.0000 0.94470  0.59990  0.03860  Biso   1.000  O
  O111     1.0000 0.14970  0.60060  0.13040  Biso   1.000  O
  O112     1.0000 0.09540  0.61820  0.17070  Biso   1.000  O
  Cd15     1.0000 0.07605  0.56204  0.37956  Biso   1.000  Cd
  C225     1.0000 0.99360  0.38070  0.33560  Biso   1.000  C
  C226     1.0000 0.96750  0.38590  0.29810  Biso   1.000  C
  H85      1.0000 0.95020  0.36390  0.28790  Biso   1.000  H
  C227     1.0000 0.96950  0.42670  0.27720  Biso   1.000  C
  H86      1.0000 0.95680  0.43150  0.25060  Biso   1.000  H
  C228     1.0000 0.99110  0.45800  0.29850  Biso   1.000  C
  H87      1.0000 0.99030  0.48520  0.28640  Biso   1.000  H
  C229     1.0000 0.01310  0.45400  0.33430  Biso   1.000  C
  C230     1.0000 0.01410  0.41540  0.35380  Biso   1.000  C
  C231     1.0000 0.03700  0.41180  0.39730  Biso   1.000  C
  C232     1.0000 0.01240  0.41820  0.43510  Biso   1.000  C
  C233     1.0000 0.03240  0.41600  0.47430  Biso   1.000  C
  H88      1.0000 0.01600  0.42000  0.49880  Biso   1.000  H
  C234     1.0000 0.07650  0.40810  0.47900  Biso   1.000  C
  H89      1.0000 0.08960  0.40680  0.50570  Biso   1.000  H
  C235     1.0000 0.09850  0.40260  0.44170  Biso   1.000  C
  H90      1.0000 0.12780  0.39720  0.44360  Biso   1.000  H
  C236     1.0000 0.08100  0.40430  0.40150  Biso   1.000  C
  C237     1.0000 0.99350  0.33730  0.35450  Biso   1.000  C
  C238     1.0000 0.03860  0.49300  0.35020  Biso   1.000  C
  C239     1.0000 0.96420  0.42120  0.43450  Biso   1.000  C
  C240     1.0000 0.11140  0.39560  0.36420  Biso   1.000  C
  O113     1.0000 0.99090  0.33110  0.39260  Biso   1.000  O
  O114     1.0000 0.99750  0.30550  0.32760  Biso   1.000  O
  O115     1.0000 0.07400  0.49620  0.35030  Biso   1.000  O
  O116     1.0000 0.02230  0.51930  0.36900  Biso   1.000  O
  O117     1.0000 0.94670  0.44640  0.41040  Biso   1.000  O
  O118     1.0000 0.94470  0.40010  0.46140  Biso   1.000  O
  O119     1.0000 0.14970  0.39940  0.36960  Biso   1.000  O
  O120     1.0000 0.09540  0.38180  0.32930  Biso   1.000  O
  Cd16     1.0000 0.57605  0.06204  0.87956  Biso   1.000  Cd
  C241     1.0000 0.49360  0.88070  0.83560  Biso   1.000  C
  C242     1.0000 0.46750  0.88590  0.79810  Biso   1.000  C
  H91      1.0000 0.45020  0.86390  0.78790  Biso   1.000  H
  C243     1.0000 0.46950  0.92670  0.77720  Biso   1.000  C
  H92      1.0000 0.45680  0.93150  0.75060  Biso   1.000  H
  C244     1.0000 0.49110  0.95800  0.79850  Biso   1.000  C
  H93      1.0000 0.49030  0.98520  0.78640  Biso   1.000  H
  C245     1.0000 0.51310  0.95400  0.83430  Biso   1.000  C
  C246     1.0000 0.51410  0.91540  0.85380  Biso   1.000  C
  C247     1.0000 0.53700  0.91180  0.89730  Biso   1.000  C
  C248     1.0000 0.51240  0.91820  0.93510  Biso   1.000  C
  C249     1.0000 0.53240  0.91600  0.97430  Biso   1.000  C
  H94      1.0000 0.51600  0.92000  0.99880  Biso   1.000  H
  C250     1.0000 0.57650  0.90810  0.97900  Biso   1.000  C
  H95      1.0000 0.58960  0.90680  0.00570  Biso   1.000  H
  C251     1.0000 0.59850  0.90260  0.94170  Biso   1.000  C
  H96      1.0000 0.62780  0.89720  0.94360  Biso   1.000  H
  C252     1.0000 0.58100  0.90430  0.90150  Biso   1.000  C
  C253     1.0000 0.49350  0.83730  0.85450  Biso   1.000  C
  C254     1.0000 0.53860  0.99300  0.85020  Biso   1.000  C
  C255     1.0000 0.46420  0.92120  0.93450  Biso   1.000  C
  C256     1.0000 0.61140  0.89560  0.86420  Biso   1.000  C
  O121     1.0000 0.49090  0.83110  0.89260  Biso   1.000  O
  O122     1.0000 0.49750  0.80550  0.82760  Biso   1.000  O
  O123     1.0000 0.57400  0.99620  0.85030  Biso   1.000  O
  O124     1.0000 0.52230  0.01930  0.86900  Biso   1.000  O
  O125     1.0000 0.44670  0.94640  0.91040  Biso   1.000  O
  O126     1.0000 0.44470  0.90010  0.96140  Biso   1.000  O
  O127     1.0000 0.64970  0.89940  0.86960  Biso   1.000  O
  O128     1.0000 0.59540  0.88180  0.82930  Biso   1.000  O
  Cd17     1.0000 0.12044  0.92395  0.06204  Biso   1.000  Cd
  C257     1.0000 0.16440  0.00640  0.88070  Biso   1.000  C
  C258     1.0000 0.20190  0.03250  0.88590  Biso   1.000  C
  H97      1.0000 0.21210  0.04980  0.86390  Biso   1.000  H
  C259     1.0000 0.22280  0.03050  0.92670  Biso   1.000  C
  H98      1.0000 0.24940  0.04320  0.93150  Biso   1.000  H
  C260     1.0000 0.20150  0.00890  0.95800  Biso   1.000  C
  H99      1.0000 0.21360  0.00970  0.98520  Biso   1.000  H
  C261     1.0000 0.16570  0.98690  0.95400  Biso   1.000  C
  C262     1.0000 0.14620  0.98590  0.91540  Biso   1.000  C
  C263     1.0000 0.10270  0.96300  0.91180  Biso   1.000  C
  C264     1.0000 0.06490  0.98760  0.91820  Biso   1.000  C
  C265     1.0000 0.02570  0.96760  0.91600  Biso   1.000  C
  H100     1.0000 0.00120  0.98400  0.92000  Biso   1.000  H
  C266     1.0000 0.02100  0.92350  0.90810  Biso   1.000  C
  H101     1.0000 0.99430  0.91040  0.90680  Biso   1.000  H
  C267     1.0000 0.05830  0.90150  0.90260  Biso   1.000  C
  H102     1.0000 0.05640  0.87220  0.89720  Biso   1.000  H
  C268     1.0000 0.09850  0.91900  0.90430  Biso   1.000  C
  C269     1.0000 0.14550  0.00650  0.83730  Biso   1.000  C
  C270     1.0000 0.14980  0.96140  0.99300  Biso   1.000  C
  C271     1.0000 0.06550  0.03580  0.92120  Biso   1.000  C
  C272     1.0000 0.13580  0.88860  0.89560  Biso   1.000  C
  O129     1.0000 0.10740  0.00910  0.83110  Biso   1.000  O
  O130     1.0000 0.17240  0.00250  0.80550  Biso   1.000  O
  O131     1.0000 0.14970  0.92600  0.99620  Biso   1.000  O
  O132     1.0000 0.13100  0.97770  0.01930  Biso   1.000  O
  O133     1.0000 0.08960  0.05330  0.94640  Biso   1.000  O
  O134     1.0000 0.03860  0.05530  0.90010  Biso   1.000  O
  O135     1.0000 0.13040  0.85030  0.89940  Biso   1.000  O
  O136     1.0000 0.17070  0.90460  0.88180  Biso   1.000  O
  Cd18     1.0000 0.62044  0.42395  0.56204  Biso   1.000  Cd
  C273     1.0000 0.66440  0.50640  0.38070  Biso   1.000  C
  C274     1.0000 0.70190  0.53250  0.38590  Biso   1.000  C
  H103     1.0000 0.71210  0.54980  0.36390  Biso   1.000  H
  C275     1.0000 0.72280  0.53050  0.42670  Biso   1.000  C
  H104     1.0000 0.74940  0.54320  0.43150  Biso   1.000  H
  C276     1.0000 0.70150  0.50890  0.45800  Biso   1.000  C
  H105     1.0000 0.71360  0.50970  0.48520  Biso   1.000  H
  C277     1.0000 0.66570  0.48690  0.45400  Biso   1.000  C
  C278     1.0000 0.64620  0.48590  0.41540  Biso   1.000  C
  C279     1.0000 0.60270  0.46300  0.41180  Biso   1.000  C
  C280     1.0000 0.56490  0.48760  0.41820  Biso   1.000  C
  C281     1.0000 0.52570  0.46760  0.41600  Biso   1.000  C
  H106     1.0000 0.50120  0.48400  0.42000  Biso   1.000  H
  C282     1.0000 0.52100  0.42350  0.40810  Biso   1.000  C
  H107     1.0000 0.49430  0.41040  0.40680  Biso   1.000  H
  C283     1.0000 0.55830  0.40150  0.40260  Biso   1.000  C
  H108     1.0000 0.55640  0.37220  0.39720  Biso   1.000  H
  C284     1.0000 0.59850  0.41900  0.40430  Biso   1.000  C
  C285     1.0000 0.64550  0.50650  0.33730  Biso   1.000  C
  C286     1.0000 0.64980  0.46140  0.49300  Biso   1.000  C
  C287     1.0000 0.56550  0.53580  0.42120  Biso   1.000  C
  C288     1.0000 0.63580  0.38860  0.39560  Biso   1.000  C
  O137     1.0000 0.60740  0.50910  0.33110  Biso   1.000  O
  O138     1.0000 0.67240  0.50250  0.30550  Biso   1.000  O
  O139     1.0000 0.64970  0.42600  0.49620  Biso   1.000  O
  O140     1.0000 0.63100  0.47770  0.51930  Biso   1.000  O
  O141     1.0000 0.58960  0.55330  0.44640  Biso   1.000  O
  O142     1.0000 0.53860  0.55530  0.40010  Biso   1.000  O
  O143     1.0000 0.63040  0.35030  0.39940  Biso   1.000  O
  O144     1.0000 0.67070  0.40460  0.38180  Biso   1.000  O
  Cd19     1.0000 0.87956  0.42395  0.43796  Biso   1.000  Cd
  C289     1.0000 0.83560  0.50640  0.61930  Biso   1.000  C
  C290     1.0000 0.79810  0.53250  0.61410  Biso   1.000  C
  H109     1.0000 0.78790  0.54980  0.63610  Biso   1.000  H
  C291     1.0000 0.77720  0.53050  0.57330  Biso   1.000  C
  H110     1.0000 0.75060  0.54320  0.56850  Biso   1.000  H
  C292     1.0000 0.79850  0.50890  0.54200  Biso   1.000  C
  H111     1.0000 0.78640  0.50970  0.51480  Biso   1.000  H
  C293     1.0000 0.83430  0.48690  0.54600  Biso   1.000  C
  C294     1.0000 0.85380  0.48590  0.58460  Biso   1.000  C
  C295     1.0000 0.89730  0.46300  0.58820  Biso   1.000  C
  C296     1.0000 0.93510  0.48760  0.58180  Biso   1.000  C
  C297     1.0000 0.97430  0.46760  0.58400  Biso   1.000  C
  H112     1.0000 0.99880  0.48400  0.58000  Biso   1.000  H
  C298     1.0000 0.97900  0.42350  0.59190  Biso   1.000  C
  H113     1.0000 0.00570  0.41040  0.59320  Biso   1.000  H
  C299     1.0000 0.94170  0.40150  0.59740  Biso   1.000  C
  H114     1.0000 0.94360  0.37220  0.60280  Biso   1.000  H
  C300     1.0000 0.90150  0.41900  0.59570  Biso   1.000  C
  C301     1.0000 0.85450  0.50650  0.66270  Biso   1.000  C
  C302     1.0000 0.85020  0.46140  0.50700  Biso   1.000  C
  C303     1.0000 0.93450  0.53580  0.57880  Biso   1.000  C
  C304     1.0000 0.86420  0.38860  0.60440  Biso   1.000  C
  O145     1.0000 0.89260  0.50910  0.66890  Biso   1.000  O
  O146     1.0000 0.82760  0.50250  0.69450  Biso   1.000  O
  O147     1.0000 0.85030  0.42600  0.50380  Biso   1.000  O
  O148     1.0000 0.86900  0.47770  0.48070  Biso   1.000  O
  O149     1.0000 0.91040  0.55330  0.55360  Biso   1.000  O
  O150     1.0000 0.96140  0.55530  0.59990  Biso   1.000  O
  O151     1.0000 0.86960  0.35030  0.60060  Biso   1.000  O
  O152     1.0000 0.82930  0.40460  0.61820  Biso   1.000  O
  Cd20     1.0000 0.37956  0.92395  0.93796  Biso   1.000  Cd
  C305     1.0000 0.33560  0.00640  0.11930  Biso   1.000  C
  C306     1.0000 0.29810  0.03250  0.11410  Biso   1.000  C
  H115     1.0000 0.28790  0.04980  0.13610  Biso   1.000  H
  C307     1.0000 0.27720  0.03050  0.07330  Biso   1.000  C
  H116     1.0000 0.25060  0.04320  0.06850  Biso   1.000  H
  C308     1.0000 0.29850  0.00890  0.04200  Biso   1.000  C
  H117     1.0000 0.28640  0.00970  0.01480  Biso   1.000  H
  C309     1.0000 0.33430  0.98690  0.04600  Biso   1.000  C
  C310     1.0000 0.35380  0.98590  0.08460  Biso   1.000  C
  C311     1.0000 0.39730  0.96300  0.08820  Biso   1.000  C
  C312     1.0000 0.43510  0.98760  0.08180  Biso   1.000  C
  C313     1.0000 0.47430  0.96760  0.08400  Biso   1.000  C
  H118     1.0000 0.49880  0.98400  0.08000  Biso   1.000  H
  C314     1.0000 0.47900  0.92350  0.09190  Biso   1.000  C
  H119     1.0000 0.50570  0.91040  0.09320  Biso   1.000  H
  C315     1.0000 0.44170  0.90150  0.09740  Biso   1.000  C
  H120     1.0000 0.44360  0.87220  0.10280  Biso   1.000  H
  C316     1.0000 0.40150  0.91900  0.09570  Biso   1.000  C
  C317     1.0000 0.35450  0.00650  0.16270  Biso   1.000  C
  C318     1.0000 0.35020  0.96140  0.00700  Biso   1.000  C
  C319     1.0000 0.43450  0.03580  0.07880  Biso   1.000  C
  C320     1.0000 0.36420  0.88860  0.10440  Biso   1.000  C
  O153     1.0000 0.39260  0.00910  0.16890  Biso   1.000  O
  O154     1.0000 0.32760  0.00250  0.19450  Biso   1.000  O
  O155     1.0000 0.35030  0.92600  0.00380  Biso   1.000  O
  O156     1.0000 0.36900  0.97770  0.98070  Biso   1.000  O
  O157     1.0000 0.41040  0.05330  0.05360  Biso   1.000  O
  O158     1.0000 0.46140  0.05530  0.09990  Biso   1.000  O
  O159     1.0000 0.36960  0.85030  0.10060  Biso   1.000  O
  O160     1.0000 0.32930  0.90460  0.11820  Biso   1.000  O
  Cd21     1.0000 0.62044  0.57605  0.93796  Biso   1.000  Cd
  C321     1.0000 0.66440  0.49360  0.11930  Biso   1.000  C
  C322     1.0000 0.70190  0.46750  0.11410  Biso   1.000  C
  H121     1.0000 0.71210  0.45020  0.13610  Biso   1.000  H
  C323     1.0000 0.72280  0.46950  0.07330  Biso   1.000  C
  H122     1.0000 0.74940  0.45680  0.06850  Biso   1.000  H
  C324     1.0000 0.70150  0.49110  0.04200  Biso   1.000  C
  H123     1.0000 0.71360  0.49030  0.01480  Biso   1.000  H
  C325     1.0000 0.66570  0.51310  0.04600  Biso   1.000  C
  C326     1.0000 0.64620  0.51410  0.08460  Biso   1.000  C
  C327     1.0000 0.60270  0.53700  0.08820  Biso   1.000  C
  C328     1.0000 0.56490  0.51240  0.08180  Biso   1.000  C
  C329     1.0000 0.52570  0.53240  0.08400  Biso   1.000  C
  H124     1.0000 0.50120  0.51600  0.08000  Biso   1.000  H
  C330     1.0000 0.52100  0.57650  0.09190  Biso   1.000  C
  H125     1.0000 0.49430  0.58960  0.09320  Biso   1.000  H
  C331     1.0000 0.55830  0.59850  0.09740  Biso   1.000  C
  H126     1.0000 0.55640  0.62780  0.10280  Biso   1.000  H
  C332     1.0000 0.59850  0.58100  0.09570  Biso   1.000  C
  C333     1.0000 0.64550  0.49350  0.16270  Biso   1.000  C
  C334     1.0000 0.64980  0.53860  0.00700  Biso   1.000  C
  C335     1.0000 0.56550  0.46420  0.07880  Biso   1.000  C
  C336     1.0000 0.63580  0.61140  0.10440  Biso   1.000  C
  O161     1.0000 0.60740  0.49090  0.16890  Biso   1.000  O
  O162     1.0000 0.67240  0.49750  0.19450  Biso   1.000  O
  O163     1.0000 0.64970  0.57400  0.00380  Biso   1.000  O
  O164     1.0000 0.63100  0.52230  0.98070  Biso   1.000  O
  O165     1.0000 0.58960  0.44670  0.05360  Biso   1.000  O
  O166     1.0000 0.53860  0.44470  0.09990  Biso   1.000  O
  O167     1.0000 0.63040  0.64970  0.10060  Biso   1.000  O
  O168     1.0000 0.67070  0.59540  0.11820  Biso   1.000  O
  Cd22     1.0000 0.12044  0.07605  0.43796  Biso   1.000  Cd
  C337     1.0000 0.16440  0.99360  0.61930  Biso   1.000  C
  C338     1.0000 0.20190  0.96750  0.61410  Biso   1.000  C
  H127     1.0000 0.21210  0.95020  0.63610  Biso   1.000  H
  C339     1.0000 0.22280  0.96950  0.57330  Biso   1.000  C
  H128     1.0000 0.24940  0.95680  0.56850  Biso   1.000  H
  C340     1.0000 0.20150  0.99110  0.54200  Biso   1.000  C
  H129     1.0000 0.21360  0.99030  0.51480  Biso   1.000  H
  C341     1.0000 0.16570  0.01310  0.54600  Biso   1.000  C
  C342     1.0000 0.14620  0.01410  0.58460  Biso   1.000  C
  C343     1.0000 0.10270  0.03700  0.58820  Biso   1.000  C
  C344     1.0000 0.06490  0.01240  0.58180  Biso   1.000  C
  C345     1.0000 0.02570  0.03240  0.58400  Biso   1.000  C
  H130     1.0000 0.00120  0.01600  0.58000  Biso   1.000  H
  C346     1.0000 0.02100  0.07650  0.59190  Biso   1.000  C
  H131     1.0000 0.99430  0.08960  0.59320  Biso   1.000  H
  C347     1.0000 0.05830  0.09850  0.59740  Biso   1.000  C
  H132     1.0000 0.05640  0.12780  0.60280  Biso   1.000  H
  C348     1.0000 0.09850  0.08100  0.59570  Biso   1.000  C
  C349     1.0000 0.14550  0.99350  0.66270  Biso   1.000  C
  C350     1.0000 0.14980  0.03860  0.50700  Biso   1.000  C
  C351     1.0000 0.06550  0.96420  0.57880  Biso   1.000  C
  C352     1.0000 0.13580  0.11140  0.60440  Biso   1.000  C
  O169     1.0000 0.10740  0.99090  0.66890  Biso   1.000  O
  O170     1.0000 0.17240  0.99750  0.69450  Biso   1.000  O
  O171     1.0000 0.14970  0.07400  0.50380  Biso   1.000  O
  O172     1.0000 0.13100  0.02230  0.48070  Biso   1.000  O
  O173     1.0000 0.08960  0.94670  0.55360  Biso   1.000  O
  O174     1.0000 0.03860  0.94470  0.59990  Biso   1.000  O
  O175     1.0000 0.13040  0.14970  0.60060  Biso   1.000  O
  O176     1.0000 0.17070  0.09540  0.61820  Biso   1.000  O
  Cd23     1.0000 0.37956  0.07605  0.56204  Biso   1.000  Cd
  C353     1.0000 0.33560  0.99360  0.38070  Biso   1.000  C
  C354     1.0000 0.29810  0.96750  0.38590  Biso   1.000  C
  H133     1.0000 0.28790  0.95020  0.36390  Biso   1.000  H
  C355     1.0000 0.27720  0.96950  0.42670  Biso   1.000  C
  H134     1.0000 0.25060  0.95680  0.43150  Biso   1.000  H
  C356     1.0000 0.29850  0.99110  0.45800  Biso   1.000  C
  H135     1.0000 0.28640  0.99030  0.48520  Biso   1.000  H
  C357     1.0000 0.33430  0.01310  0.45400  Biso   1.000  C
  C358     1.0000 0.35380  0.01410  0.41540  Biso   1.000  C
  C359     1.0000 0.39730  0.03700  0.41180  Biso   1.000  C
  C360     1.0000 0.43510  0.01240  0.41820  Biso   1.000  C
  C361     1.0000 0.47430  0.03240  0.41600  Biso   1.000  C
  H136     1.0000 0.49880  0.01600  0.42000  Biso   1.000  H
  C362     1.0000 0.47900  0.07650  0.40810  Biso   1.000  C
  H137     1.0000 0.50570  0.08960  0.40680  Biso   1.000  H
  C363     1.0000 0.44170  0.09850  0.40260  Biso   1.000  C
  H138     1.0000 0.44360  0.12780  0.39720  Biso   1.000  H
  C364     1.0000 0.40150  0.08100  0.40430  Biso   1.000  C
  C365     1.0000 0.35450  0.99350  0.33730  Biso   1.000  C
  C366     1.0000 0.35020  0.03860  0.49300  Biso   1.000  C
  C367     1.0000 0.43450  0.96420  0.42120  Biso   1.000  C
  C368     1.0000 0.36420  0.11140  0.39560  Biso   1.000  C
  O177     1.0000 0.39260  0.99090  0.33110  Biso   1.000  O
  O178     1.0000 0.32760  0.99750  0.30550  Biso   1.000  O
  O179     1.0000 0.35030  0.07400  0.49620  Biso   1.000  O
  O180     1.0000 0.36900  0.02230  0.51930  Biso   1.000  O
  O181     1.0000 0.41040  0.94670  0.44640  Biso   1.000  O
  O182     1.0000 0.46140  0.94470  0.40010  Biso   1.000  O
  O183     1.0000 0.36960  0.14970  0.39940  Biso   1.000  O
  O184     1.0000 0.32930  0.09540  0.38180  Biso   1.000  O
  Cd24     1.0000 0.87956  0.57605  0.06204  Biso   1.000  Cd
  C369     1.0000 0.83560  0.49360  0.88070  Biso   1.000  C
  C370     1.0000 0.79810  0.46750  0.88590  Biso   1.000  C
  H139     1.0000 0.78790  0.45020  0.86390  Biso   1.000  H
  C371     1.0000 0.77720  0.46950  0.92670  Biso   1.000  C
  H140     1.0000 0.75060  0.45680  0.93150  Biso   1.000  H
  C372     1.0000 0.79850  0.49110  0.95800  Biso   1.000  C
  H141     1.0000 0.78640  0.49030  0.98520  Biso   1.000  H
  C373     1.0000 0.83430  0.51310  0.95400  Biso   1.000  C
  C374     1.0000 0.85380  0.51410  0.91540  Biso   1.000  C
  C375     1.0000 0.89730  0.53700  0.91180  Biso   1.000  C
  C376     1.0000 0.93510  0.51240  0.91820  Biso   1.000  C
  C377     1.0000 0.97430  0.53240  0.91600  Biso   1.000  C
  H142     1.0000 0.99880  0.51600  0.92000  Biso   1.000  H
  C378     1.0000 0.97900  0.57650  0.90810  Biso   1.000  C
  H143     1.0000 0.00570  0.58960  0.90680  Biso   1.000  H
  C379     1.0000 0.94170  0.59850  0.90260  Biso   1.000  C
  H144     1.0000 0.94360  0.62780  0.89720  Biso   1.000  H
  C380     1.0000 0.90150  0.58100  0.90430  Biso   1.000  C
  C381     1.0000 0.85450  0.49350  0.83730  Biso   1.000  C
  C382     1.0000 0.85020  0.53860  0.99300  Biso   1.000  C
  C383     1.0000 0.93450  0.46420  0.92120  Biso   1.000  C
  C384     1.0000 0.86420  0.61140  0.89560  Biso   1.000  C
  O185     1.0000 0.89260  0.49090  0.83110  Biso   1.000  O
  O186     1.0000 0.82760  0.49750  0.80550  Biso   1.000  O
  O187     1.0000 0.85030  0.57400  0.99620  Biso   1.000  O
  O188     1.0000 0.86900  0.52230  0.01930  Biso   1.000  O
  O189     1.0000 0.91040  0.44670  0.94640  Biso   1.000  O
  O190     1.0000 0.96140  0.44470  0.90010  Biso   1.000  O
  O191     1.0000 0.86960  0.64970  0.89940  Biso   1.000  O
  O192     1.0000 0.82930  0.59540  0.88180  Biso   1.000  O
  Cd25     1.0000 0.37044  0.31204  0.17395  Biso   1.000  Cd
  C385     1.0000 0.41440  0.13070  0.25640  Biso   1.000  C
  C386     1.0000 0.45190  0.13590  0.28250  Biso   1.000  C
  H145     1.0000 0.46210  0.11390  0.29980  Biso   1.000  H
  C387     1.0000 0.47280  0.17670  0.28050  Biso   1.000  C
  H146     1.0000 0.49940  0.18150  0.29320  Biso   1.000  H
  C388     1.0000 0.45150  0.20800  0.25890  Biso   1.000  C
  H147     1.0000 0.46360  0.23520  0.25970  Biso   1.000  H
  C389     1.0000 0.41570  0.20400  0.23690  Biso   1.000  C
  C390     1.0000 0.39620  0.16540  0.23590  Biso   1.000  C
  C391     1.0000 0.35270  0.16180  0.21300  Biso   1.000  C
  C392     1.0000 0.31490  0.16820  0.23760  Biso   1.000  C
  C393     1.0000 0.27570  0.16600  0.21760  Biso   1.000  C
  H148     1.0000 0.25120  0.17000  0.23400  Biso   1.000  H
  C394     1.0000 0.27100  0.15810  0.17350  Biso   1.000  C
  H149     1.0000 0.24430  0.15680  0.16040  Biso   1.000  H
  C395     1.0000 0.30830  0.15260  0.15150  Biso   1.000  C
  H150     1.0000 0.30640  0.14720  0.12220  Biso   1.000  H
  C396     1.0000 0.34850  0.15430  0.16900  Biso   1.000  C
  C397     1.0000 0.39550  0.08730  0.25650  Biso   1.000  C
  C398     1.0000 0.39980  0.24300  0.21140  Biso   1.000  C
  C399     1.0000 0.31550  0.17120  0.28580  Biso   1.000  C
  C400     1.0000 0.38580  0.14560  0.13860  Biso   1.000  C
  O193     1.0000 0.35740  0.08110  0.25910  Biso   1.000  O
  O194     1.0000 0.42240  0.05550  0.25250  Biso   1.000  O
  O195     1.0000 0.39970  0.24620  0.17600  Biso   1.000  O
  O196     1.0000 0.38100  0.26930  0.22770  Biso   1.000  O
  O197     1.0000 0.33960  0.19640  0.30330  Biso   1.000  O
  O198     1.0000 0.28860  0.15010  0.30530  Biso   1.000  O
  O199     1.0000 0.38040  0.14940  0.10030  Biso   1.000  O
  O200     1.0000 0.42070  0.13180  0.15460  Biso   1.000  O
  Cd26     1.0000 0.87044  0.81204  0.67395  Biso   1.000  Cd
  C401     1.0000 0.91440  0.63070  0.75640  Biso   1.000  C
  C402     1.0000 0.95190  0.63590  0.78250  Biso   1.000  C
  H151     1.0000 0.96210  0.61390  0.79980  Biso   1.000  H
  C403     1.0000 0.97280  0.67670  0.78050  Biso   1.000  C
  H152     1.0000 0.99940  0.68150  0.79320  Biso   1.000  H
  C404     1.0000 0.95150  0.70800  0.75890  Biso   1.000  C
  H153     1.0000 0.96360  0.73520  0.75970  Biso   1.000  H
  C405     1.0000 0.91570  0.70400  0.73690  Biso   1.000  C
  C406     1.0000 0.89620  0.66540  0.73590  Biso   1.000  C
  C407     1.0000 0.85270  0.66180  0.71300  Biso   1.000  C
  C408     1.0000 0.81490  0.66820  0.73760  Biso   1.000  C
  C409     1.0000 0.77570  0.66600  0.71760  Biso   1.000  C
  H154     1.0000 0.75120  0.67000  0.73400  Biso   1.000  H
  C410     1.0000 0.77100  0.65810  0.67350  Biso   1.000  C
  H155     1.0000 0.74430  0.65680  0.66040  Biso   1.000  H
  C411     1.0000 0.80830  0.65260  0.65150  Biso   1.000  C
  H156     1.0000 0.80640  0.64720  0.62220  Biso   1.000  H
  C412     1.0000 0.84850  0.65430  0.66900  Biso   1.000  C
  C413     1.0000 0.89550  0.58730  0.75650  Biso   1.000  C
  C414     1.0000 0.89980  0.74300  0.71140  Biso   1.000  C
  C415     1.0000 0.81550  0.67120  0.78580  Biso   1.000  C
  C416     1.0000 0.88580  0.64560  0.63860  Biso   1.000  C
  O201     1.0000 0.85740  0.58110  0.75910  Biso   1.000  O
  O202     1.0000 0.92240  0.55550  0.75250  Biso   1.000  O
  O203     1.0000 0.89970  0.74620  0.67600  Biso   1.000  O
  O204     1.0000 0.88100  0.76930  0.72770  Biso   1.000  O
  O205     1.0000 0.83960  0.69640  0.80330  Biso   1.000  O
  O206     1.0000 0.78860  0.65010  0.80530  Biso   1.000  O
  O207     1.0000 0.88040  0.64940  0.60030  Biso   1.000  O
  O208     1.0000 0.92070  0.63180  0.65460  Biso   1.000  O
  Cd27     1.0000 0.12956  0.68796  0.67395  Biso   1.000  Cd
  C417     1.0000 0.08560  0.86930  0.75640  Biso   1.000  C
  C418     1.0000 0.04810  0.86410  0.78250  Biso   1.000  C
  H157     1.0000 0.03790  0.88610  0.79980  Biso   1.000  H
  C419     1.0000 0.02720  0.82330  0.78050  Biso   1.000  C
  H158     1.0000 0.00060  0.81850  0.79320  Biso   1.000  H
  C420     1.0000 0.04850  0.79200  0.75890  Biso   1.000  C
  H159     1.0000 0.03640  0.76480  0.75970  Biso   1.000  H
  C421     1.0000 0.08430  0.79600  0.73690  Biso   1.000  C
  C422     1.0000 0.10380  0.83460  0.73590  Biso   1.000  C
  C423     1.0000 0.14730  0.83820  0.71300  Biso   1.000  C
  C424     1.0000 0.18510  0.83180  0.73760  Biso   1.000  C
  C425     1.0000 0.22430  0.83400  0.71760  Biso   1.000  C
  H160     1.0000 0.24880  0.83000  0.73400  Biso   1.000  H
  C426     1.0000 0.22900  0.84190  0.67350  Biso   1.000  C
  H161     1.0000 0.25570  0.84320  0.66040  Biso   1.000  H
  C427     1.0000 0.19170  0.84740  0.65150  Biso   1.000  C
  H162     1.0000 0.19360  0.85280  0.62220  Biso   1.000  H
  C428     1.0000 0.15150  0.84570  0.66900  Biso   1.000  C
  C429     1.0000 0.10450  0.91270  0.75650  Biso   1.000  C
  C430     1.0000 0.10020  0.75700  0.71140  Biso   1.000  C
  C431     1.0000 0.18450  0.82880  0.78580  Biso   1.000  C
  C432     1.0000 0.11420  0.85440  0.63860  Biso   1.000  C
  O209     1.0000 0.14260  0.91890  0.75910  Biso   1.000  O
  O210     1.0000 0.07760  0.94450  0.75250  Biso   1.000  O
  O211     1.0000 0.10030  0.75380  0.67600  Biso   1.000  O
  O212     1.0000 0.11900  0.73070  0.72770  Biso   1.000  O
  O213     1.0000 0.16040  0.80360  0.80330  Biso   1.000  O
  O214     1.0000 0.21140  0.84990  0.80530  Biso   1.000  O
  O215     1.0000 0.11960  0.85060  0.60030  Biso   1.000  O
  O216     1.0000 0.07930  0.86820  0.65460  Biso   1.000  O
  Cd28     1.0000 0.62956  0.18796  0.17395  Biso   1.000  Cd
  C433     1.0000 0.58560  0.36930  0.25640  Biso   1.000  C
  C434     1.0000 0.54810  0.36410  0.28250  Biso   1.000  C
  H163     1.0000 0.53790  0.38610  0.29980  Biso   1.000  H
  C435     1.0000 0.52720  0.32330  0.28050  Biso   1.000  C
  H164     1.0000 0.50060  0.31850  0.29320  Biso   1.000  H
  C436     1.0000 0.54850  0.29200  0.25890  Biso   1.000  C
  H165     1.0000 0.53640  0.26480  0.25970  Biso   1.000  H
  C437     1.0000 0.58430  0.29600  0.23690  Biso   1.000  C
  C438     1.0000 0.60380  0.33460  0.23590  Biso   1.000  C
  C439     1.0000 0.64730  0.33820  0.21300  Biso   1.000  C
  C440     1.0000 0.68510  0.33180  0.23760  Biso   1.000  C
  C441     1.0000 0.72430  0.33400  0.21760  Biso   1.000  C
  H166     1.0000 0.74880  0.33000  0.23400  Biso   1.000  H
  C442     1.0000 0.72900  0.34190  0.17350  Biso   1.000  C
  H167     1.0000 0.75570  0.34320  0.16040  Biso   1.000  H
  C443     1.0000 0.69170  0.34740  0.15150  Biso   1.000  C
  H168     1.0000 0.69360  0.35280  0.12220  Biso   1.000  H
  C444     1.0000 0.65150  0.34570  0.16900  Biso   1.000  C
  C445     1.0000 0.60450  0.41270  0.25650  Biso   1.000  C
  C446     1.0000 0.60020  0.25700  0.21140  Biso   1.000  C
  C447     1.0000 0.68450  0.32880  0.28580  Biso   1.000  C
  C448     1.0000 0.61420  0.35440  0.13860  Biso   1.000  C
  O217     1.0000 0.64260  0.41890  0.25910  Biso   1.000  O
  O218     1.0000 0.57760  0.44450  0.25250  Biso   1.000  O
  O219     1.0000 0.60030  0.25380  0.17600  Biso   1.000  O
  O220     1.0000 0.61900  0.23070  0.22770  Biso   1.000  O
  O221     1.0000 0.66040  0.30360  0.30330  Biso   1.000  O
  O222     1.0000 0.71140  0.34990  0.30530  Biso   1.000  O
  O223     1.0000 0.61960  0.35060  0.10030  Biso   1.000  O
  O224     1.0000 0.57930  0.36820  0.15460  Biso   1.000  O
  Cd29     1.0000 0.87044  0.18796  0.82605  Biso   1.000  Cd
  C449     1.0000 0.91440  0.36930  0.74360  Biso   1.000  C
  C450     1.0000 0.95190  0.36410  0.71750  Biso   1.000  C
  H169     1.0000 0.96210  0.38610  0.70020  Biso   1.000  H
  C451     1.0000 0.97280  0.32330  0.71950  Biso   1.000  C
  H170     1.0000 0.99940  0.31850  0.70680  Biso   1.000  H
  C452     1.0000 0.95150  0.29200  0.74110  Biso   1.000  C
  H171     1.0000 0.96360  0.26480  0.74030  Biso   1.000  H
  C453     1.0000 0.91570  0.29600  0.76310  Biso   1.000  C
  C454     1.0000 0.89620  0.33460  0.76410  Biso   1.000  C
  C455     1.0000 0.85270  0.33820  0.78700  Biso   1.000  C
  C456     1.0000 0.81490  0.33180  0.76240  Biso   1.000  C
  C457     1.0000 0.77570  0.33400  0.78240  Biso   1.000  C
  H172     1.0000 0.75120  0.33000  0.76600  Biso   1.000  H
  C458     1.0000 0.77100  0.34190  0.82650  Biso   1.000  C
  H173     1.0000 0.74430  0.34320  0.83960  Biso   1.000  H
  C459     1.0000 0.80830  0.34740  0.84850  Biso   1.000  C
  H174     1.0000 0.80640  0.35280  0.87780  Biso   1.000  H
  C460     1.0000 0.84850  0.34570  0.83100  Biso   1.000  C
  C461     1.0000 0.89550  0.41270  0.74350  Biso   1.000  C
  C462     1.0000 0.89980  0.25700  0.78860  Biso   1.000  C
  C463     1.0000 0.81550  0.32880  0.71420  Biso   1.000  C
  C464     1.0000 0.88580  0.35440  0.86140  Biso   1.000  C
  O225     1.0000 0.85740  0.41890  0.74090  Biso   1.000  O
  O226     1.0000 0.92240  0.44450  0.74750  Biso   1.000  O
  O227     1.0000 0.89970  0.25380  0.82400  Biso   1.000  O
  O228     1.0000 0.88100  0.23070  0.77230  Biso   1.000  O
  O229     1.0000 0.83960  0.30360  0.69670  Biso   1.000  O
  O230     1.0000 0.78860  0.34990  0.69470  Biso   1.000  O
  O231     1.0000 0.88040  0.35060  0.89970  Biso   1.000  O
  O232     1.0000 0.92070  0.36820  0.84540  Biso   1.000  O
  Cd30     1.0000 0.37044  0.68796  0.32605  Biso   1.000  Cd
  C465     1.0000 0.41440  0.86930  0.24360  Biso   1.000  C
  C466     1.0000 0.45190  0.86410  0.21750  Biso   1.000  C
  H175     1.0000 0.46210  0.88610  0.20020  Biso   1.000  H
  C467     1.0000 0.47280  0.82330  0.21950  Biso   1.000  C
  H176     1.0000 0.49940  0.81850  0.20680  Biso   1.000  H
  C468     1.0000 0.45150  0.79200  0.24110  Biso   1.000  C
  H177     1.0000 0.46360  0.76480  0.24030  Biso   1.000  H
  C469     1.0000 0.41570  0.79600  0.26310  Biso   1.000  C
  C470     1.0000 0.39620  0.83460  0.26410  Biso   1.000  C
  C471     1.0000 0.35270  0.83820  0.28700  Biso   1.000  C
  C472     1.0000 0.31490  0.83180  0.26240  Biso   1.000  C
  C473     1.0000 0.27570  0.83400  0.28240  Biso   1.000  C
  H178     1.0000 0.25120  0.83000  0.26600  Biso   1.000  H
  C474     1.0000 0.27100  0.84190  0.32650  Biso   1.000  C
  H179     1.0000 0.24430  0.84320  0.33960  Biso   1.000  H
  C475     1.0000 0.30830  0.84740  0.34850  Biso   1.000  C
  H180     1.0000 0.30640  0.85280  0.37780  Biso   1.000  H
  C476     1.0000 0.34850  0.84570  0.33100  Biso   1.000  C
  C477     1.0000 0.39550  0.91270  0.24350  Biso   1.000  C
  C478     1.0000 0.39980  0.75700  0.28860  Biso   1.000  C
  C479     1.0000 0.31550  0.82880  0.21420  Biso   1.000  C
  C480     1.0000 0.38580  0.85440  0.36140  Biso   1.000  C
  O233     1.0000 0.35740  0.91890  0.24090  Biso   1.000  O
  O234     1.0000 0.42240  0.94450  0.24750  Biso   1.000  O
  O235     1.0000 0.39970  0.75380  0.32400  Biso   1.000  O
  O236     1.0000 0.38100  0.73070  0.27230  Biso   1.000  O
  O237     1.0000 0.33960  0.80360  0.19670  Biso   1.000  O
  O238     1.0000 0.28860  0.84990  0.19470  Biso   1.000  O
  O239     1.0000 0.38040  0.85060  0.39970  Biso   1.000  O
  O240     1.0000 0.42070  0.86820  0.34540  Biso   1.000  O
  Cd31     1.0000 0.62956  0.81204  0.32605  Biso   1.000  Cd
  C481     1.0000 0.58560  0.63070  0.24360  Biso   1.000  C
  C482     1.0000 0.54810  0.63590  0.21750  Biso   1.000  C
  H181     1.0000 0.53790  0.61390  0.20020  Biso   1.000  H
  C483     1.0000 0.52720  0.67670  0.21950  Biso   1.000  C
  H182     1.0000 0.50060  0.68150  0.20680  Biso   1.000  H
  C484     1.0000 0.54850  0.70800  0.24110  Biso   1.000  C
  H183     1.0000 0.53640  0.73520  0.24030  Biso   1.000  H
  C485     1.0000 0.58430  0.70400  0.26310  Biso   1.000  C
  C486     1.0000 0.60380  0.66540  0.26410  Biso   1.000  C
  C487     1.0000 0.64730  0.66180  0.28700  Biso   1.000  C
  C488     1.0000 0.68510  0.66820  0.26240  Biso   1.000  C
  C489     1.0000 0.72430  0.66600  0.28240  Biso   1.000  C
  H184     1.0000 0.74880  0.67000  0.26600  Biso   1.000  H
  C490     1.0000 0.72900  0.65810  0.32650  Biso   1.000  C
  H185     1.0000 0.75570  0.65680  0.33960  Biso   1.000  H
  C491     1.0000 0.69170  0.65260  0.34850  Biso   1.000  C
  H186     1.0000 0.69360  0.64720  0.37780  Biso   1.000  H
  C492     1.0000 0.65150  0.65430  0.33100  Biso   1.000  C
  C493     1.0000 0.60450  0.58730  0.24350  Biso   1.000  C
  C494     1.0000 0.60020  0.74300  0.28860  Biso   1.000  C
  C495     1.0000 0.68450  0.67120  0.21420  Biso   1.000  C
  C496     1.0000 0.61420  0.64560  0.36140  Biso   1.000  C
  O241     1.0000 0.64260  0.58110  0.24090  Biso   1.000  O
  O242     1.0000 0.57760  0.55550  0.24750  Biso   1.000  O
  O243     1.0000 0.60030  0.74620  0.32400  Biso   1.000  O
  O244     1.0000 0.61900  0.76930  0.27230  Biso   1.000  O
  O245     1.0000 0.66040  0.69640  0.19670  Biso   1.000  O
  O246     1.0000 0.71140  0.65010  0.19470  Biso   1.000  O
  O247     1.0000 0.61960  0.64940  0.39970  Biso   1.000  O
  O248     1.0000 0.57930  0.63180  0.34540  Biso   1.000  O
  Cd32     1.0000 0.12956  0.31204  0.82605  Biso   1.000  Cd
  C497     1.0000 0.08560  0.13070  0.74360  Biso   1.000  C
  C498     1.0000 0.04810  0.13590  0.71750  Biso   1.000  C
  H187     1.0000 0.03790  0.11390  0.70020  Biso   1.000  H
  C499     1.0000 0.02720  0.17670  0.71950  Biso   1.000  C
  H188     1.0000 0.00060  0.18150  0.70680  Biso   1.000  H
  C500     1.0000 0.04850  0.20800  0.74110  Biso   1.000  C
  H189     1.0000 0.03640  0.23520  0.74030  Biso   1.000  H
  C501     1.0000 0.08430  0.20400  0.76310  Biso   1.000  C
  C502     1.0000 0.10380  0.16540  0.76410  Biso   1.000  C
  C503     1.0000 0.14730  0.16180  0.78700  Biso   1.000  C
  C504     1.0000 0.18510  0.16820  0.76240  Biso   1.000  C
  C505     1.0000 0.22430  0.16600  0.78240  Biso   1.000  C
  H190     1.0000 0.24880  0.17000  0.76600  Biso   1.000  H
  C506     1.0000 0.22900  0.15810  0.82650  Biso   1.000  C
  H191     1.0000 0.25570  0.15680  0.83960  Biso   1.000  H
  C507     1.0000 0.19170  0.15260  0.84850  Biso   1.000  C
  H192     1.0000 0.19360  0.14720  0.87780  Biso   1.000  H
  C508     1.0000 0.15150  0.15430  0.83100  Biso   1.000  C
  C509     1.0000 0.10450  0.08730  0.74350  Biso   1.000  C
  C510     1.0000 0.10020  0.24300  0.78860  Biso   1.000  C
  C511     1.0000 0.18450  0.17120  0.71420  Biso   1.000  C
  C512     1.0000 0.11420  0.14560  0.86140  Biso   1.000  C
  O249     1.0000 0.14260  0.08110  0.74090  Biso   1.000  O
  O250     1.0000 0.07760  0.05550  0.74750  Biso   1.000  O
  O251     1.0000 0.10030  0.24620  0.82400  Biso   1.000  O
  O252     1.0000 0.11900  0.26930  0.77230  Biso   1.000  O
  O253     1.0000 0.16040  0.19640  0.69670  Biso   1.000  O
  O254     1.0000 0.21140  0.15010  0.69470  Biso   1.000  O
  O255     1.0000 0.11960  0.14940  0.89970  Biso   1.000  O
  O256     1.0000 0.07930  0.13180  0.84540  Biso   1.000  O
  Cd33     1.0000 0.31204  0.17395  0.37044  Biso   1.000  Cd
  C513     1.0000 0.13070  0.25640  0.41440  Biso   1.000  C
  C514     1.0000 0.13590  0.28250  0.45190  Biso   1.000  C
  H193     1.0000 0.11390  0.29980  0.46210  Biso   1.000  H
  C515     1.0000 0.17670  0.28050  0.47280  Biso   1.000  C
  H194     1.0000 0.18150  0.29320  0.49940  Biso   1.000  H
  C516     1.0000 0.20800  0.25890  0.45150  Biso   1.000  C
  H195     1.0000 0.23520  0.25970  0.46360  Biso   1.000  H
  C517     1.0000 0.20400  0.23690  0.41570  Biso   1.000  C
  C518     1.0000 0.16540  0.23590  0.39620  Biso   1.000  C
  C519     1.0000 0.16180  0.21300  0.35270  Biso   1.000  C
  C520     1.0000 0.16820  0.23760  0.31490  Biso   1.000  C
  C521     1.0000 0.16600  0.21760  0.27570  Biso   1.000  C
  H196     1.0000 0.17000  0.23400  0.25120  Biso   1.000  H
  C522     1.0000 0.15810  0.17350  0.27100  Biso   1.000  C
  H197     1.0000 0.15680  0.16040  0.24430  Biso   1.000  H
  C523     1.0000 0.15260  0.15150  0.30830  Biso   1.000  C
  H198     1.0000 0.14720  0.12220  0.30640  Biso   1.000  H
  C524     1.0000 0.15430  0.16900  0.34850  Biso   1.000  C
  C525     1.0000 0.08730  0.25650  0.39550  Biso   1.000  C
  C526     1.0000 0.24300  0.21140  0.39980  Biso   1.000  C
  C527     1.0000 0.17120  0.28580  0.31550  Biso   1.000  C
  C528     1.0000 0.14560  0.13860  0.38580  Biso   1.000  C
  O257     1.0000 0.08110  0.25910  0.35740  Biso   1.000  O
  O258     1.0000 0.05550  0.25250  0.42240  Biso   1.000  O
  O259     1.0000 0.24620  0.17600  0.39970  Biso   1.000  O
  O260     1.0000 0.26930  0.22770  0.38100  Biso   1.000  O
  O261     1.0000 0.19640  0.30330  0.33960  Biso   1.000  O
  O262     1.0000 0.15010  0.30530  0.28860  Biso   1.000  O
  O263     1.0000 0.14940  0.10030  0.38040  Biso   1.000  O
  O264     1.0000 0.13180  0.15460  0.42070  Biso   1.000  O
  Cd34     1.0000 0.81204  0.67395  0.87044  Biso   1.000  Cd
  C529     1.0000 0.63070  0.75640  0.91440  Biso   1.000  C
  C530     1.0000 0.63590  0.78250  0.95190  Biso   1.000  C
  H199     1.0000 0.61390  0.79980  0.96210  Biso   1.000  H
  C531     1.0000 0.67670  0.78050  0.97280  Biso   1.000  C
  H200     1.0000 0.68150  0.79320  0.99940  Biso   1.000  H
  C532     1.0000 0.70800  0.75890  0.95150  Biso   1.000  C
  H201     1.0000 0.73520  0.75970  0.96360  Biso   1.000  H
  C533     1.0000 0.70400  0.73690  0.91570  Biso   1.000  C
  C534     1.0000 0.66540  0.73590  0.89620  Biso   1.000  C
  C535     1.0000 0.66180  0.71300  0.85270  Biso   1.000  C
  C536     1.0000 0.66820  0.73760  0.81490  Biso   1.000  C
  C537     1.0000 0.66600  0.71760  0.77570  Biso   1.000  C
  H202     1.0000 0.67000  0.73400  0.75120  Biso   1.000  H
  C538     1.0000 0.65810  0.67350  0.77100  Biso   1.000  C
  H203     1.0000 0.65680  0.66040  0.74430  Biso   1.000  H
  C539     1.0000 0.65260  0.65150  0.80830  Biso   1.000  C
  H204     1.0000 0.64720  0.62220  0.80640  Biso   1.000  H
  C540     1.0000 0.65430  0.66900  0.84850  Biso   1.000  C
  C541     1.0000 0.58730  0.75650  0.89550  Biso   1.000  C
  C542     1.0000 0.74300  0.71140  0.89980  Biso   1.000  C
  C543     1.0000 0.67120  0.78580  0.81550  Biso   1.000  C
  C544     1.0000 0.64560  0.63860  0.88580  Biso   1.000  C
  O265     1.0000 0.58110  0.75910  0.85740  Biso   1.000  O
  O266     1.0000 0.55550  0.75250  0.92240  Biso   1.000  O
  O267     1.0000 0.74620  0.67600  0.89970  Biso   1.000  O
  O268     1.0000 0.76930  0.72770  0.88100  Biso   1.000  O
  O269     1.0000 0.69640  0.80330  0.83960  Biso   1.000  O
  O270     1.0000 0.65010  0.80530  0.78860  Biso   1.000  O
  O271     1.0000 0.64940  0.60030  0.88040  Biso   1.000  O
  O272     1.0000 0.63180  0.65460  0.92070  Biso   1.000  O
  Cd35     1.0000 0.68796  0.67395  0.12956  Biso   1.000  Cd
  C545     1.0000 0.86930  0.75640  0.08560  Biso   1.000  C
  C546     1.0000 0.86410  0.78250  0.04810  Biso   1.000  C
  H205     1.0000 0.88610  0.79980  0.03790  Biso   1.000  H
  C547     1.0000 0.82330  0.78050  0.02720  Biso   1.000  C
  H206     1.0000 0.81850  0.79320  0.00060  Biso   1.000  H
  C548     1.0000 0.79200  0.75890  0.04850  Biso   1.000  C
  H207     1.0000 0.76480  0.75970  0.03640  Biso   1.000  H
  C549     1.0000 0.79600  0.73690  0.08430  Biso   1.000  C
  C550     1.0000 0.83460  0.73590  0.10380  Biso   1.000  C
  C551     1.0000 0.83820  0.71300  0.14730  Biso   1.000  C
  C552     1.0000 0.83180  0.73760  0.18510  Biso   1.000  C
  C553     1.0000 0.83400  0.71760  0.22430  Biso   1.000  C
  H208     1.0000 0.83000  0.73400  0.24880  Biso   1.000  H
  C554     1.0000 0.84190  0.67350  0.22900  Biso   1.000  C
  H209     1.0000 0.84320  0.66040  0.25570  Biso   1.000  H
  C555     1.0000 0.84740  0.65150  0.19170  Biso   1.000  C
  H210     1.0000 0.85280  0.62220  0.19360  Biso   1.000  H
  C556     1.0000 0.84570  0.66900  0.15150  Biso   1.000  C
  C557     1.0000 0.91270  0.75650  0.10450  Biso   1.000  C
  C558     1.0000 0.75700  0.71140  0.10020  Biso   1.000  C
  C559     1.0000 0.82880  0.78580  0.18450  Biso   1.000  C
  C560     1.0000 0.85440  0.63860  0.11420  Biso   1.000  C
  O273     1.0000 0.91890  0.75910  0.14260  Biso   1.000  O
  O274     1.0000 0.94450  0.75250  0.07760  Biso   1.000  O
  O275     1.0000 0.75380  0.67600  0.10030  Biso   1.000  O
  O276     1.0000 0.73070  0.72770  0.11900  Biso   1.000  O
  O277     1.0000 0.80360  0.80330  0.16040  Biso   1.000  O
  O278     1.0000 0.84990  0.80530  0.21140  Biso   1.000  O
  O279     1.0000 0.85060  0.60030  0.11960  Biso   1.000  O
  O280     1.0000 0.86820  0.65460  0.07930  Biso   1.000  O
  Cd36     1.0000 0.18796  0.17395  0.62956  Biso   1.000  Cd
  C561     1.0000 0.36930  0.25640  0.58560  Biso   1.000  C
  C562     1.0000 0.36410  0.28250  0.54810  Biso   1.000  C
  H211     1.0000 0.38610  0.29980  0.53790  Biso   1.000  H
  C563     1.0000 0.32330  0.28050  0.52720  Biso   1.000  C
  H212     1.0000 0.31850  0.29320  0.50060  Biso   1.000  H
  C564     1.0000 0.29200  0.25890  0.54850  Biso   1.000  C
  H213     1.0000 0.26480  0.25970  0.53640  Biso   1.000  H
  C565     1.0000 0.29600  0.23690  0.58430  Biso   1.000  C
  C566     1.0000 0.33460  0.23590  0.60380  Biso   1.000  C
  C567     1.0000 0.33820  0.21300  0.64730  Biso   1.000  C
  C568     1.0000 0.33180  0.23760  0.68510  Biso   1.000  C
  C569     1.0000 0.33400  0.21760  0.72430  Biso   1.000  C
  H214     1.0000 0.33000  0.23400  0.74880  Biso   1.000  H
  C570     1.0000 0.34190  0.17350  0.72900  Biso   1.000  C
  H215     1.0000 0.34320  0.16040  0.75570  Biso   1.000  H
  C571     1.0000 0.34740  0.15150  0.69170  Biso   1.000  C
  H216     1.0000 0.35280  0.12220  0.69360  Biso   1.000  H
  C572     1.0000 0.34570  0.16900  0.65150  Biso   1.000  C
  C573     1.0000 0.41270  0.25650  0.60450  Biso   1.000  C
  C574     1.0000 0.25700  0.21140  0.60020  Biso   1.000  C
  C575     1.0000 0.32880  0.28580  0.68450  Biso   1.000  C
  C576     1.0000 0.35440  0.13860  0.61420  Biso   1.000  C
  O281     1.0000 0.41890  0.25910  0.64260  Biso   1.000  O
  O282     1.0000 0.44450  0.25250  0.57760  Biso   1.000  O
  O283     1.0000 0.25380  0.17600  0.60030  Biso   1.000  O
  O284     1.0000 0.23070  0.22770  0.61900  Biso   1.000  O
  O285     1.0000 0.30360  0.30330  0.66040  Biso   1.000  O
  O286     1.0000 0.34990  0.30530  0.71140  Biso   1.000  O
  O287     1.0000 0.35060  0.10030  0.61960  Biso   1.000  O
  O288     1.0000 0.36820  0.15460  0.57930  Biso   1.000  O
  Cd37     1.0000 0.18796  0.82605  0.87044  Biso   1.000  Cd
  C577     1.0000 0.36930  0.74360  0.91440  Biso   1.000  C
  C578     1.0000 0.36410  0.71750  0.95190  Biso   1.000  C
  H217     1.0000 0.38610  0.70020  0.96210  Biso   1.000  H
  C579     1.0000 0.32330  0.71950  0.97280  Biso   1.000  C
  H218     1.0000 0.31850  0.70680  0.99940  Biso   1.000  H
  C580     1.0000 0.29200  0.74110  0.95150  Biso   1.000  C
  H219     1.0000 0.26480  0.74030  0.96360  Biso   1.000  H
  C581     1.0000 0.29600  0.76310  0.91570  Biso   1.000  C
  C582     1.0000 0.33460  0.76410  0.89620  Biso   1.000  C
  C583     1.0000 0.33820  0.78700  0.85270  Biso   1.000  C
  C584     1.0000 0.33180  0.76240  0.81490  Biso   1.000  C
  C585     1.0000 0.33400  0.78240  0.77570  Biso   1.000  C
  H220     1.0000 0.33000  0.76600  0.75120  Biso   1.000  H
  C586     1.0000 0.34190  0.82650  0.77100  Biso   1.000  C
  H221     1.0000 0.34320  0.83960  0.74430  Biso   1.000  H
  C587     1.0000 0.34740  0.84850  0.80830  Biso   1.000  C
  H222     1.0000 0.35280  0.87780  0.80640  Biso   1.000  H
  C588     1.0000 0.34570  0.83100  0.84850  Biso   1.000  C
  C589     1.0000 0.41270  0.74350  0.89550  Biso   1.000  C
  C590     1.0000 0.25700  0.78860  0.89980  Biso   1.000  C
  C591     1.0000 0.32880  0.71420  0.81550  Biso   1.000  C
  C592     1.0000 0.35440  0.86140  0.88580  Biso   1.000  C
  O289     1.0000 0.41890  0.74090  0.85740  Biso   1.000  O
  O290     1.0000 0.44450  0.74750  0.92240  Biso   1.000  O
  O291     1.0000 0.25380  0.82400  0.89970  Biso   1.000  O
  O292     1.0000 0.23070  0.77230  0.88100  Biso   1.000  O
  O293     1.0000 0.30360  0.69670  0.83960  Biso   1.000  O
  O294     1.0000 0.34990  0.69470  0.78860  Biso   1.000  O
  O295     1.0000 0.35060  0.89970  0.88040  Biso   1.000  O
  O296     1.0000 0.36820  0.84540  0.92070  Biso   1.000  O
  Cd38     1.0000 0.68796  0.32605  0.37044  Biso   1.000  Cd
  C593     1.0000 0.86930  0.24360  0.41440  Biso   1.000  C
  C594     1.0000 0.86410  0.21750  0.45190  Biso   1.000  C
  H223     1.0000 0.88610  0.20020  0.46210  Biso   1.000  H
  C595     1.0000 0.82330  0.21950  0.47280  Biso   1.000  C
  H224     1.0000 0.81850  0.20680  0.49940  Biso   1.000  H
  C596     1.0000 0.79200  0.24110  0.45150  Biso   1.000  C
  H225     1.0000 0.76480  0.24030  0.46360  Biso   1.000  H
  C597     1.0000 0.79600  0.26310  0.41570  Biso   1.000  C
  C598     1.0000 0.83460  0.26410  0.39620  Biso   1.000  C
  C599     1.0000 0.83820  0.28700  0.35270  Biso   1.000  C
  C600     1.0000 0.83180  0.26240  0.31490  Biso   1.000  C
  C601     1.0000 0.83400  0.28240  0.27570  Biso   1.000  C
  H226     1.0000 0.83000  0.26600  0.25120  Biso   1.000  H
  C602     1.0000 0.84190  0.32650  0.27100  Biso   1.000  C
  H227     1.0000 0.84320  0.33960  0.24430  Biso   1.000  H
  C603     1.0000 0.84740  0.34850  0.30830  Biso   1.000  C
  H228     1.0000 0.85280  0.37780  0.30640  Biso   1.000  H
  C604     1.0000 0.84570  0.33100  0.34850  Biso   1.000  C
  C605     1.0000 0.91270  0.24350  0.39550  Biso   1.000  C
  C606     1.0000 0.75700  0.28860  0.39980  Biso   1.000  C
  C607     1.0000 0.82880  0.21420  0.31550  Biso   1.000  C
  C608     1.0000 0.85440  0.36140  0.38580  Biso   1.000  C
  O297     1.0000 0.91890  0.24090  0.35740  Biso   1.000  O
  O298     1.0000 0.94450  0.24750  0.42240  Biso   1.000  O
  O299     1.0000 0.75380  0.32400  0.39970  Biso   1.000  O
  O300     1.0000 0.73070  0.27230  0.38100  Biso   1.000  O
  O301     1.0000 0.80360  0.19670  0.33960  Biso   1.000  O
  O302     1.0000 0.84990  0.19470  0.28860  Biso   1.000  O
  O303     1.0000 0.85060  0.39970  0.38040  Biso   1.000  O
  O304     1.0000 0.86820  0.34540  0.42070  Biso   1.000  O
  Cd39     1.0000 0.81204  0.32605  0.62956  Biso   1.000  Cd
  C609     1.0000 0.63070  0.24360  0.58560  Biso   1.000  C
  C610     1.0000 0.63590  0.21750  0.54810  Biso   1.000  C
  H229     1.0000 0.61390  0.20020  0.53790  Biso   1.000  H
  C611     1.0000 0.67670  0.21950  0.52720  Biso   1.000  C
  H230     1.0000 0.68150  0.20680  0.50060  Biso   1.000  H
  C612     1.0000 0.70800  0.24110  0.54850  Biso   1.000  C
  H231     1.0000 0.73520  0.24030  0.53640  Biso   1.000  H
  C613     1.0000 0.70400  0.26310  0.58430  Biso   1.000  C
  C614     1.0000 0.66540  0.26410  0.60380  Biso   1.000  C
  C615     1.0000 0.66180  0.28700  0.64730  Biso   1.000  C
  C616     1.0000 0.66820  0.26240  0.68510  Biso   1.000  C
  C617     1.0000 0.66600  0.28240  0.72430  Biso   1.000  C
  H232     1.0000 0.67000  0.26600  0.74880  Biso   1.000  H
  C618     1.0000 0.65810  0.32650  0.72900  Biso   1.000  C
  H233     1.0000 0.65680  0.33960  0.75570  Biso   1.000  H
  C619     1.0000 0.65260  0.34850  0.69170  Biso   1.000  C
  H234     1.0000 0.64720  0.37780  0.69360  Biso   1.000  H
  C620     1.0000 0.65430  0.33100  0.65150  Biso   1.000  C
  C621     1.0000 0.58730  0.24350  0.60450  Biso   1.000  C
  C622     1.0000 0.74300  0.28860  0.60020  Biso   1.000  C
  C623     1.0000 0.67120  0.21420  0.68450  Biso   1.000  C
  C624     1.0000 0.64560  0.36140  0.61420  Biso   1.000  C
  O305     1.0000 0.58110  0.24090  0.64260  Biso   1.000  O
  O306     1.0000 0.55550  0.24750  0.57760  Biso   1.000  O
  O307     1.0000 0.74620  0.32400  0.60030  Biso   1.000  O
  O308     1.0000 0.76930  0.27230  0.61900  Biso   1.000  O
  O309     1.0000 0.69640  0.19670  0.66040  Biso   1.000  O
  O310     1.0000 0.65010  0.19470  0.71140  Biso   1.000  O
  O311     1.0000 0.64940  0.39970  0.61960  Biso   1.000  O
  O312     1.0000 0.63180  0.34540  0.57930  Biso   1.000  O
  Cd40     1.0000 0.31204  0.82605  0.12956  Biso   1.000  Cd
  C625     1.0000 0.13070  0.74360  0.08560  Biso   1.000  C
  C626     1.0000 0.13590  0.71750  0.04810  Biso   1.000  C
  H235     1.0000 0.11390  0.70020  0.03790  Biso   1.000  H
  C627     1.0000 0.17670  0.71950  0.02720  Biso   1.000  C
  H236     1.0000 0.18150  0.70680  0.00060  Biso   1.000  H
  C628     1.0000 0.20800  0.74110  0.04850  Biso   1.000  C
  H237     1.0000 0.23520  0.74030  0.03640  Biso   1.000  H
  C629     1.0000 0.20400  0.76310  0.08430  Biso   1.000  C
  C630     1.0000 0.16540  0.76410  0.10380  Biso   1.000  C
  C631     1.0000 0.16180  0.78700  0.14730  Biso   1.000  C
  C632     1.0000 0.16820  0.76240  0.18510  Biso   1.000  C
  C633     1.0000 0.16600  0.78240  0.22430  Biso   1.000  C
  H238     1.0000 0.17000  0.76600  0.24880  Biso   1.000  H
  C634     1.0000 0.15810  0.82650  0.22900  Biso   1.000  C
  H239     1.0000 0.15680  0.83960  0.25570  Biso   1.000  H
  C635     1.0000 0.15260  0.84850  0.19170  Biso   1.000  C
  H240     1.0000 0.14720  0.87780  0.19360  Biso   1.000  H
  C636     1.0000 0.15430  0.83100  0.15150  Biso   1.000  C
  C637     1.0000 0.08730  0.74350  0.10450  Biso   1.000  C
  C638     1.0000 0.24300  0.78860  0.10020  Biso   1.000  C
  C639     1.0000 0.17120  0.71420  0.18450  Biso   1.000  C
  C640     1.0000 0.14560  0.86140  0.11420  Biso   1.000  C
  O313     1.0000 0.08110  0.74090  0.14260  Biso   1.000  O
  O314     1.0000 0.05550  0.74750  0.07760  Biso   1.000  O
  O315     1.0000 0.24620  0.82400  0.10030  Biso   1.000  O
  O316     1.0000 0.26930  0.77230  0.11900  Biso   1.000  O
  O317     1.0000 0.19640  0.69670  0.16040  Biso   1.000  O
  O318     1.0000 0.15010  0.69470  0.21140  Biso   1.000  O
  O319     1.0000 0.14940  0.89970  0.11960  Biso   1.000  O
  O320     1.0000 0.13180  0.84540  0.07930  Biso   1.000  O
  Cd41     1.0000 0.17395  0.37044  0.31204  Biso   1.000  Cd
  C641     1.0000 0.25640  0.41440  0.13070  Biso   1.000  C
  C642     1.0000 0.28250  0.45190  0.13590  Biso   1.000  C
  H241     1.0000 0.29980  0.46210  0.11390  Biso   1.000  H
  C643     1.0000 0.28050  0.47280  0.17670  Biso   1.000  C
  H242     1.0000 0.29320  0.49940  0.18150  Biso   1.000  H
  C644     1.0000 0.25890  0.45150  0.20800  Biso   1.000  C
  H243     1.0000 0.25970  0.46360  0.23520  Biso   1.000  H
  C645     1.0000 0.23690  0.41570  0.20400  Biso   1.000  C
  C646     1.0000 0.23590  0.39620  0.16540  Biso   1.000  C
  C647     1.0000 0.21300  0.35270  0.16180  Biso   1.000  C
  C648     1.0000 0.23760  0.31490  0.16820  Biso   1.000  C
  C649     1.0000 0.21760  0.27570  0.16600  Biso   1.000  C
  H244     1.0000 0.23400  0.25120  0.17000  Biso   1.000  H
  C650     1.0000 0.17350  0.27100  0.15810  Biso   1.000  C
  H245     1.0000 0.16040  0.24430  0.15680  Biso   1.000  H
  C651     1.0000 0.15150  0.30830  0.15260  Biso   1.000  C
  H246     1.0000 0.12220  0.30640  0.14720  Biso   1.000  H
  C652     1.0000 0.16900  0.34850  0.15430  Biso   1.000  C
  C653     1.0000 0.25650  0.39550  0.08730  Biso   1.000  C
  C654     1.0000 0.21140  0.39980  0.24300  Biso   1.000  C
  C655     1.0000 0.28580  0.31550  0.17120  Biso   1.000  C
  C656     1.0000 0.13860  0.38580  0.14560  Biso   1.000  C
  O321     1.0000 0.25910  0.35740  0.08110  Biso   1.000  O
  O322     1.0000 0.25250  0.42240  0.05550  Biso   1.000  O
  O323     1.0000 0.17600  0.39970  0.24620  Biso   1.000  O
  O324     1.0000 0.22770  0.38100  0.26930  Biso   1.000  O
  O325     1.0000 0.30330  0.33960  0.19640  Biso   1.000  O
  O326     1.0000 0.30530  0.28860  0.15010  Biso   1.000  O
  O327     1.0000 0.10030  0.38040  0.14940  Biso   1.000  O
  O328     1.0000 0.15460  0.42070  0.13180  Biso   1.000  O
  Cd42     1.0000 0.67395  0.87044  0.81204  Biso   1.000  Cd
  C657     1.0000 0.75640  0.91440  0.63070  Biso   1.000  C
  C658     1.0000 0.78250  0.95190  0.63590  Biso   1.000  C
  H247     1.0000 0.79980  0.96210  0.61390  Biso   1.000  H
  C659     1.0000 0.78050  0.97280  0.67670  Biso   1.000  C
  H248     1.0000 0.79320  0.99940  0.68150  Biso   1.000  H
  C660     1.0000 0.75890  0.95150  0.70800  Biso   1.000  C
  H249     1.0000 0.75970  0.96360  0.73520  Biso   1.000  H
  C661     1.0000 0.73690  0.91570  0.70400  Biso   1.000  C
  C662     1.0000 0.73590  0.89620  0.66540  Biso   1.000  C
  C663     1.0000 0.71300  0.85270  0.66180  Biso   1.000  C
  C664     1.0000 0.73760  0.81490  0.66820  Biso   1.000  C
  C665     1.0000 0.71760  0.77570  0.66600  Biso   1.000  C
  H250     1.0000 0.73400  0.75120  0.67000  Biso   1.000  H
  C666     1.0000 0.67350  0.77100  0.65810  Biso   1.000  C
  H251     1.0000 0.66040  0.74430  0.65680  Biso   1.000  H
  C667     1.0000 0.65150  0.80830  0.65260  Biso   1.000  C
  H252     1.0000 0.62220  0.80640  0.64720  Biso   1.000  H
  C668     1.0000 0.66900  0.84850  0.65430  Biso   1.000  C
  C669     1.0000 0.75650  0.89550  0.58730  Biso   1.000  C
  C670     1.0000 0.71140  0.89980  0.74300  Biso   1.000  C
  C671     1.0000 0.78580  0.81550  0.67120  Biso   1.000  C
  C672     1.0000 0.63860  0.88580  0.64560  Biso   1.000  C
  O329     1.0000 0.75910  0.85740  0.58110  Biso   1.000  O
  O330     1.0000 0.75250  0.92240  0.55550  Biso   1.000  O
  O331     1.0000 0.67600  0.89970  0.74620  Biso   1.000  O
  O332     1.0000 0.72770  0.88100  0.76930  Biso   1.000  O
  O333     1.0000 0.80330  0.83960  0.69640  Biso   1.000  O
  O334     1.0000 0.80530  0.78860  0.65010  Biso   1.000  O
  O335     1.0000 0.60030  0.88040  0.64940  Biso   1.000  O
  O336     1.0000 0.65460  0.92070  0.63180  Biso   1.000  O
  Cd43     1.0000 0.67395  0.12956  0.68796  Biso   1.000  Cd
  C673     1.0000 0.75640  0.08560  0.86930  Biso   1.000  C
  C674     1.0000 0.78250  0.04810  0.86410  Biso   1.000  C
  H253     1.0000 0.79980  0.03790  0.88610  Biso   1.000  H
  C675     1.0000 0.78050  0.02720  0.82330  Biso   1.000  C
  H254     1.0000 0.79320  0.00060  0.81850  Biso   1.000  H
  C676     1.0000 0.75890  0.04850  0.79200  Biso   1.000  C
  H255     1.0000 0.75970  0.03640  0.76480  Biso   1.000  H
  C677     1.0000 0.73690  0.08430  0.79600  Biso   1.000  C
  C678     1.0000 0.73590  0.10380  0.83460  Biso   1.000  C
  C679     1.0000 0.71300  0.14730  0.83820  Biso   1.000  C
  C680     1.0000 0.73760  0.18510  0.83180  Biso   1.000  C
  C681     1.0000 0.71760  0.22430  0.83400  Biso   1.000  C
  H256     1.0000 0.73400  0.24880  0.83000  Biso   1.000  H
  C682     1.0000 0.67350  0.22900  0.84190  Biso   1.000  C
  H257     1.0000 0.66040  0.25570  0.84320  Biso   1.000  H
  C683     1.0000 0.65150  0.19170  0.84740  Biso   1.000  C
  H258     1.0000 0.62220  0.19360  0.85280  Biso   1.000  H
  C684     1.0000 0.66900  0.15150  0.84570  Biso   1.000  C
  C685     1.0000 0.75650  0.10450  0.91270  Biso   1.000  C
  C686     1.0000 0.71140  0.10020  0.75700  Biso   1.000  C
  C687     1.0000 0.78580  0.18450  0.82880  Biso   1.000  C
  C688     1.0000 0.63860  0.11420  0.85440  Biso   1.000  C
  O337     1.0000 0.75910  0.14260  0.91890  Biso   1.000  O
  O338     1.0000 0.75250  0.07760  0.94450  Biso   1.000  O
  O339     1.0000 0.67600  0.10030  0.75380  Biso   1.000  O
  O340     1.0000 0.72770  0.11900  0.73070  Biso   1.000  O
  O341     1.0000 0.80330  0.16040  0.80360  Biso   1.000  O
  O342     1.0000 0.80530  0.21140  0.84990  Biso   1.000  O
  O343     1.0000 0.60030  0.11960  0.85060  Biso   1.000  O
  O344     1.0000 0.65460  0.07930  0.86820  Biso   1.000  O
  Cd44     1.0000 0.17395  0.62956  0.18796  Biso   1.000  Cd
  C689     1.0000 0.25640  0.58560  0.36930  Biso   1.000  C
  C690     1.0000 0.28250  0.54810  0.36410  Biso   1.000  C
  H259     1.0000 0.29980  0.53790  0.38610  Biso   1.000  H
  C691     1.0000 0.28050  0.52720  0.32330  Biso   1.000  C
  H260     1.0000 0.29320  0.50060  0.31850  Biso   1.000  H
  C692     1.0000 0.25890  0.54850  0.29200  Biso   1.000  C
  H261     1.0000 0.25970  0.53640  0.26480  Biso   1.000  H
  C693     1.0000 0.23690  0.58430  0.29600  Biso   1.000  C
  C694     1.0000 0.23590  0.60380  0.33460  Biso   1.000  C
  C695     1.0000 0.21300  0.64730  0.33820  Biso   1.000  C
  C696     1.0000 0.23760  0.68510  0.33180  Biso   1.000  C
  C697     1.0000 0.21760  0.72430  0.33400  Biso   1.000  C
  H262     1.0000 0.23400  0.74880  0.33000  Biso   1.000  H
  C698     1.0000 0.17350  0.72900  0.34190  Biso   1.000  C
  H263     1.0000 0.16040  0.75570  0.34320  Biso   1.000  H
  C699     1.0000 0.15150  0.69170  0.34740  Biso   1.000  C
  H264     1.0000 0.12220  0.69360  0.35280  Biso   1.000  H
  C700     1.0000 0.16900  0.65150  0.34570  Biso   1.000  C
  C701     1.0000 0.25650  0.60450  0.41270  Biso   1.000  C
  C702     1.0000 0.21140  0.60020  0.25700  Biso   1.000  C
  C703     1.0000 0.28580  0.68450  0.32880  Biso   1.000  C
  C704     1.0000 0.13860  0.61420  0.35440  Biso   1.000  C
  O345     1.0000 0.25910  0.64260  0.41890  Biso   1.000  O
  O346     1.0000 0.25250  0.57760  0.44450  Biso   1.000  O
  O347     1.0000 0.17600  0.60030  0.25380  Biso   1.000  O
  O348     1.0000 0.22770  0.61900  0.23070  Biso   1.000  O
  O349     1.0000 0.30330  0.66040  0.30360  Biso   1.000  O
  O350     1.0000 0.30530  0.71140  0.34990  Biso   1.000  O
  O351     1.0000 0.10030  0.61960  0.35060  Biso   1.000  O
  O352     1.0000 0.15460  0.57930  0.36820  Biso   1.000  O
  Cd45     1.0000 0.82605  0.87044  0.18796  Biso   1.000  Cd
  C705     1.0000 0.74360  0.91440  0.36930  Biso   1.000  C
  C706     1.0000 0.71750  0.95190  0.36410  Biso   1.000  C
  H265     1.0000 0.70020  0.96210  0.38610  Biso   1.000  H
  C707     1.0000 0.71950  0.97280  0.32330  Biso   1.000  C
  H266     1.0000 0.70680  0.99940  0.31850  Biso   1.000  H
  C708     1.0000 0.74110  0.95150  0.29200  Biso   1.000  C
  H267     1.0000 0.74030  0.96360  0.26480  Biso   1.000  H
  C709     1.0000 0.76310  0.91570  0.29600  Biso   1.000  C
  C710     1.0000 0.76410  0.89620  0.33460  Biso   1.000  C
  C711     1.0000 0.78700  0.85270  0.33820  Biso   1.000  C
  C712     1.0000 0.76240  0.81490  0.33180  Biso   1.000  C
  C713     1.0000 0.78240  0.77570  0.33400  Biso   1.000  C
  H268     1.0000 0.76600  0.75120  0.33000  Biso   1.000  H
  C714     1.0000 0.82650  0.77100  0.34190  Biso   1.000  C
  H269     1.0000 0.83960  0.74430  0.34320  Biso   1.000  H
  C715     1.0000 0.84850  0.80830  0.34740  Biso   1.000  C
  H270     1.0000 0.87780  0.80640  0.35280  Biso   1.000  H
  C716     1.0000 0.83100  0.84850  0.34570  Biso   1.000  C
  C717     1.0000 0.74350  0.89550  0.41270  Biso   1.000  C
  C718     1.0000 0.78860  0.89980  0.25700  Biso   1.000  C
  C719     1.0000 0.71420  0.81550  0.32880  Biso   1.000  C
  C720     1.0000 0.86140  0.88580  0.35440  Biso   1.000  C
  O353     1.0000 0.74090  0.85740  0.41890  Biso   1.000  O
  O354     1.0000 0.74750  0.92240  0.44450  Biso   1.000  O
  O355     1.0000 0.82400  0.89970  0.25380  Biso   1.000  O
  O356     1.0000 0.77230  0.88100  0.23070  Biso   1.000  O
  O357     1.0000 0.69670  0.83960  0.30360  Biso   1.000  O
  O358     1.0000 0.69470  0.78860  0.34990  Biso   1.000  O
  O359     1.0000 0.89970  0.88040  0.35060  Biso   1.000  O
  O360     1.0000 0.84540  0.92070  0.36820  Biso   1.000  O
  Cd46     1.0000 0.32605  0.37044  0.68796  Biso   1.000  Cd
  C721     1.0000 0.24360  0.41440  0.86930  Biso   1.000  C
  C722     1.0000 0.21750  0.45190  0.86410  Biso   1.000  C
  H271     1.0000 0.20020  0.46210  0.88610  Biso   1.000  H
  C723     1.0000 0.21950  0.47280  0.82330  Biso   1.000  C
  H272     1.0000 0.20680  0.49940  0.81850  Biso   1.000  H
  C724     1.0000 0.24110  0.45150  0.79200  Biso   1.000  C
  H273     1.0000 0.24030  0.46360  0.76480  Biso   1.000  H
  C725     1.0000 0.26310  0.41570  0.79600  Biso   1.000  C
  C726     1.0000 0.26410  0.39620  0.83460  Biso   1.000  C
  C727     1.0000 0.28700  0.35270  0.83820  Biso   1.000  C
  C728     1.0000 0.26240  0.31490  0.83180  Biso   1.000  C
  C729     1.0000 0.28240  0.27570  0.83400  Biso   1.000  C
  H274     1.0000 0.26600  0.25120  0.83000  Biso   1.000  H
  C730     1.0000 0.32650  0.27100  0.84190  Biso   1.000  C
  H275     1.0000 0.33960  0.24430  0.84320  Biso   1.000  H
  C731     1.0000 0.34850  0.30830  0.84740  Biso   1.000  C
  H276     1.0000 0.37780  0.30640  0.85280  Biso   1.000  H
  C732     1.0000 0.33100  0.34850  0.84570  Biso   1.000  C
  C733     1.0000 0.24350  0.39550  0.91270  Biso   1.000  C
  C734     1.0000 0.28860  0.39980  0.75700  Biso   1.000  C
  C735     1.0000 0.21420  0.31550  0.82880  Biso   1.000  C
  C736     1.0000 0.36140  0.38580  0.85440  Biso   1.000  C
  O361     1.0000 0.24090  0.35740  0.91890  Biso   1.000  O
  O362     1.0000 0.24750  0.42240  0.94450  Biso   1.000  O
  O363     1.0000 0.32400  0.39970  0.75380  Biso   1.000  O
  O364     1.0000 0.27230  0.38100  0.73070  Biso   1.000  O
  O365     1.0000 0.19670  0.33960  0.80360  Biso   1.000  O
  O366     1.0000 0.19470  0.28860  0.84990  Biso   1.000  O
  O367     1.0000 0.39970  0.38040  0.85060  Biso   1.000  O
  O368     1.0000 0.34540  0.42070  0.86820  Biso   1.000  O
  Cd47     1.0000 0.32605  0.62956  0.81204  Biso   1.000  Cd
  C737     1.0000 0.24360  0.58560  0.63070  Biso   1.000  C
  C738     1.0000 0.21750  0.54810  0.63590  Biso   1.000  C
  H277     1.0000 0.20020  0.53790  0.61390  Biso   1.000  H
  C739     1.0000 0.21950  0.52720  0.67670  Biso   1.000  C
  H278     1.0000 0.20680  0.50060  0.68150  Biso   1.000  H
  C740     1.0000 0.24110  0.54850  0.70800  Biso   1.000  C
  H279     1.0000 0.24030  0.53640  0.73520  Biso   1.000  H
  C741     1.0000 0.26310  0.58430  0.70400  Biso   1.000  C
  C742     1.0000 0.26410  0.60380  0.66540  Biso   1.000  C
  C743     1.0000 0.28700  0.64730  0.66180  Biso   1.000  C
  C744     1.0000 0.26240  0.68510  0.66820  Biso   1.000  C
  C745     1.0000 0.28240  0.72430  0.66600  Biso   1.000  C
  H280     1.0000 0.26600  0.74880  0.67000  Biso   1.000  H
  C746     1.0000 0.32650  0.72900  0.65810  Biso   1.000  C
  H281     1.0000 0.33960  0.75570  0.65680  Biso   1.000  H
  C747     1.0000 0.34850  0.69170  0.65260  Biso   1.000  C
  H282     1.0000 0.37780  0.69360  0.64720  Biso   1.000  H
  C748     1.0000 0.33100  0.65150  0.65430  Biso   1.000  C
  C749     1.0000 0.24350  0.60450  0.58730  Biso   1.000  C
  C750     1.0000 0.28860  0.60020  0.74300  Biso   1.000  C
  C751     1.0000 0.21420  0.68450  0.67120  Biso   1.000  C
  C752     1.0000 0.36140  0.61420  0.64560  Biso   1.000  C
  O369     1.0000 0.24090  0.64260  0.58110  Biso   1.000  O
  O370     1.0000 0.24750  0.57760  0.55550  Biso   1.000  O
  O371     1.0000 0.32400  0.60030  0.74620  Biso   1.000  O
  O372     1.0000 0.27230  0.61900  0.76930  Biso   1.000  O
  O373     1.0000 0.19670  0.66040  0.69640  Biso   1.000  O
  O374     1.0000 0.19470  0.71140  0.65010  Biso   1.000  O
  O375     1.0000 0.39970  0.61960  0.64940  Biso   1.000  O
  O376     1.0000 0.34540  0.57930  0.63180  Biso   1.000  O
  Cd48     1.0000 0.82605  0.12956  0.31204  Biso   1.000  Cd
  C753     1.0000 0.74360  0.08560  0.13070  Biso   1.000  C
  C754     1.0000 0.71750  0.04810  0.13590  Biso   1.000  C
  H283     1.0000 0.70020  0.03790  0.11390  Biso   1.000  H
  C755     1.0000 0.71950  0.02720  0.17670  Biso   1.000  C
  H284     1.0000 0.70680  0.00060  0.18150  Biso   1.000  H
  C756     1.0000 0.74110  0.04850  0.20800  Biso   1.000  C
  H285     1.0000 0.74030  0.03640  0.23520  Biso   1.000  H
  C757     1.0000 0.76310  0.08430  0.20400  Biso   1.000  C
  C758     1.0000 0.76410  0.10380  0.16540  Biso   1.000  C
  C759     1.0000 0.78700  0.14730  0.16180  Biso   1.000  C
  C760     1.0000 0.76240  0.18510  0.16820  Biso   1.000  C
  C761     1.0000 0.78240  0.22430  0.16600  Biso   1.000  C
  H286     1.0000 0.76600  0.24880  0.17000  Biso   1.000  H
  C762     1.0000 0.82650  0.22900  0.15810  Biso   1.000  C
  H287     1.0000 0.83960  0.25570  0.15680  Biso   1.000  H
  C763     1.0000 0.84850  0.19170  0.15260  Biso   1.000  C
  H288     1.0000 0.87780  0.19360  0.14720  Biso   1.000  H
  C764     1.0000 0.83100  0.15150  0.15430  Biso   1.000  C
  C765     1.0000 0.74350  0.10450  0.08730  Biso   1.000  C
  C766     1.0000 0.78860  0.10020  0.24300  Biso   1.000  C
  C767     1.0000 0.71420  0.18450  0.17120  Biso   1.000  C
  C768     1.0000 0.86140  0.11420  0.14560  Biso   1.000  C
  O377     1.0000 0.74090  0.14260  0.08110  Biso   1.000  O
  O378     1.0000 0.74750  0.07760  0.05550  Biso   1.000  O
  O379     1.0000 0.82400  0.10030  0.24620  Biso   1.000  O
  O380     1.0000 0.77230  0.11900  0.26930  Biso   1.000  O
  O381     1.0000 0.69670  0.16040  0.19640  Biso   1.000  O
  O382     1.0000 0.69470  0.21140  0.15010  Biso   1.000  O
  O383     1.0000 0.89970  0.11960  0.14940  Biso   1.000  O
  O384     1.0000 0.84540  0.07930  0.13180  Biso   1.000  O
  Cd49     1.0000 0.75000  0.12500  0.00000  Biso   1.000  Cd
  Cd50     1.0000 0.75000  0.87500  0.50000  Biso   1.000  Cd
  Cd51     1.0000 0.25000  0.62500  0.50000  Biso   1.000  Cd
  Cd52     1.0000 0.25000  0.37500  0.00000  Biso   1.000  Cd
  Cd53     1.0000 0.00000  0.75000  0.12500  Biso   1.000  Cd
  Cd54     1.0000 0.50000  0.75000  0.87500  Biso   1.000  Cd
  Cd55     1.0000 0.50000  0.25000  0.62500  Biso   1.000  Cd
  Cd56     1.0000 0.00000  0.25000  0.37500  Biso   1.000  Cd
  Cd57     1.0000 0.12500  0.00000  0.75000  Biso   1.000  Cd
  Cd58     1.0000 0.87500  0.50000  0.75000  Biso   1.000  Cd
  Cd59     1.0000 0.62500  0.50000  0.25000  Biso   1.000  Cd
  Cd60     1.0000 0.37500  0.00000  0.25000  Biso   1.000  Cd
