data_QEBKUF_clean
_audit_creation_date              2015-05-19
_audit_creation_method            'Materials Studio'
_symmetry_space_group_name_H-M    'P1'
_symmetry_Int_Tables_number       1
_symmetry_cell_setting            triclinic
loop_
_symmetry_equiv_pos_as_xyz
  x,y,z
_cell_length_a                    31.0368
_cell_length_b                    31.0368
_cell_length_c                    31.0368
_cell_angle_alpha                 108.2839
_cell_angle_beta                  108.2839
_cell_angle_gamma                 111.8729
loop_
_atom_site_label
_atom_site_type_symbol
_atom_site_fract_x
_atom_site_fract_y
_atom_site_fract_z
_atom_site_U_iso_or_equiv
_atom_site_adp_type
_atom_site_occupancy
Zn1    Zn    0.58574   0.88904   0.58136   0.01267  Uiso   1.00
Zn2    Zn    0.63679   0.86799   0.50576   0.01267  Uiso   1.00
Zn3    Zn    0.64269   0.81475   0.58158   0.01267  Uiso   1.00
H4     H     0.82530   0.38100   0.68150   0.01267  Uiso   1.00
H5     H     0.84410   0.44830   0.75720   0.01267  Uiso   1.00
H6     H     0.74300   0.33970   0.77650   0.01267  Uiso   1.00
H7     H     0.72400   0.27220   0.70060   0.01267  Uiso   1.00
H8     H     0.72650   0.16600   0.51330   0.01267  Uiso   1.00
H9     H     0.77500   0.31950   0.59730   0.01267  Uiso   1.00
H10    H     0.74470   0.22150   0.65740   0.01267  Uiso   1.00
H11    H     0.71630   0.02360   0.52270   0.01267  Uiso   1.00
H12    H     0.75090   0.11070   0.53840   0.01267  Uiso   1.00
H13    H     0.67370   0.13330   0.61760   0.01267  Uiso   1.00
H14    H     0.63910   0.04630   0.60200   0.01267  Uiso   1.00
H15    H     0.62870   0.30410   0.93200   0.01267  Uiso   1.00
H16    H     0.70340   0.37750   0.94910   0.01267  Uiso   1.00
H17    H     0.60930   0.40920   0.85830   0.01267  Uiso   1.00
H18    H     0.53470   0.33580   0.84130   0.01267  Uiso   1.00
H19    H     0.56150   0.22120   0.88090   0.01267  Uiso   1.00
H20    H     0.47520   0.28990   0.86130   0.01267  Uiso   1.00
H21    H     0.40740   0.14200   0.84200   0.01267  Uiso   1.00
H22    H     0.66810   0.14310   0.87880   0.01267  Uiso   1.00
H23    H     0.50970   0.07220   0.79230   0.01267  Uiso   1.00
H24    H     0.58590   0.18780   0.94070   0.01267  Uiso   1.00
H25    H     0.52680   0.98270   0.66010   0.01267  Uiso   1.00
H26    H     0.65450   0.06510   0.82580   0.01267  Uiso   1.00
H27    H     0.65340   0.00850   0.75830   0.01267  Uiso   1.00
H28    H     0.25580   0.13010   0.75130   0.01267  Uiso   1.00
H29    H     0.33730   0.13650   0.77740   0.01267  Uiso   1.00
H30    H     0.40580   0.28670   0.88290   0.01267  Uiso   1.00
H31    H     0.32420   0.27760   0.86200   0.01267  Uiso   1.00
H32    H     0.81160   0.28770   0.02130   0.01267  Uiso   1.00
H33    H     0.65080   0.19880   0.01280   0.01267  Uiso   1.00
H34    H     0.72760   0.25360   0.09200   0.01267  Uiso   1.00
H35    H     0.73620   0.23470   0.94290   0.01267  Uiso   1.00
H36    H     0.61358   0.81959   0.39976   0.01267  Uiso   1.00
H37    H     0.52200   0.04170   0.72750   0.01267  Uiso   1.00
H38    H     0.83260   0.50950   0.85990   0.01267  Uiso   1.00
C39    C     0.77280   0.31996   0.68354   0.01267  Uiso   1.00
C40    C     0.80877   0.37270   0.70049   0.01267  Uiso   1.00
C41    C     0.82008   0.41304   0.74590   0.01267  Uiso   1.00
C42    C     0.79543   0.40064   0.77437   0.01267  Uiso   1.00
C43    C     0.75946   0.34790   0.75742   0.01267  Uiso   1.00
C44    C     0.74815   0.30756   0.71201   0.01267  Uiso   1.00
C45    C     0.73301   0.18545   0.58458   0.01267  Uiso   1.00
C46    C     0.73543   0.19394   0.54379   0.01267  Uiso   1.00
C47    C     0.75118   0.24416   0.54854   0.01267  Uiso   1.00
C48    C     0.76451   0.28589   0.59410   0.01267  Uiso   1.00
C49    C     0.76210   0.27741   0.63489   0.01267  Uiso   1.00
C50    C     0.74634   0.22719   0.63013   0.01267  Uiso   1.00
C51    C     0.67428   0.02627   0.56079   0.01267  Uiso   1.00
C52    C     0.70774   0.04557   0.54173   0.01267  Uiso   1.00
C53    C     0.72847   0.09774   0.55111   0.01267  Uiso   1.00
C54    C     0.71575   0.13064   0.57957   0.01267  Uiso   1.00
C55    C     0.68229   0.11136   0.59865   0.01267  Uiso   1.00
C56    C     0.66155   0.05918   0.58925   0.01267  Uiso   1.00
C57    C     0.57431   0.31270   0.88499   0.01267  Uiso   1.00
C58    C     0.62485   0.32520   0.91729   0.01267  Uiso   1.00
C59    C     0.66958   0.36921   0.92751   0.01267  Uiso   1.00
C60    C     0.66376   0.40070   0.90542   0.01267  Uiso   1.00
C61    C     0.61322   0.38819   0.87313   0.01267  Uiso   1.00
C62    C     0.56849   0.34419   0.86290   0.01267  Uiso   1.00
C63    C     0.48506   0.17443   0.86147   0.01267  Uiso   1.00
C64    C     0.52941   0.21980   0.87313   0.01267  Uiso   1.00
C65    C     0.52572   0.26307   0.87309   0.01267  Uiso   1.00
C66    C     0.47767   0.26096   0.86139   0.01267  Uiso   1.00
C67    C     0.43333   0.21560   0.84975   0.01267  Uiso   1.00
C68    C     0.43702   0.17232   0.84978   0.01267  Uiso   1.00
C69    C     0.63473   0.17163   0.91752   0.01267  Uiso   1.00
C70    C     0.63592   0.13961   0.87553   0.01267  Uiso   1.00
C71    C     0.58910   0.10237   0.82863   0.01267  Uiso   1.00
C72    C     0.54109   0.09716   0.82371   0.01267  Uiso   1.00
C73    C     0.53990   0.12918   0.86570   0.01267  Uiso   1.00
C74    C     0.58672   0.16641   0.91261   0.01267  Uiso   1.00
C75    C     0.38050   0.21080   0.83510   0.01267  Uiso   1.00
C76    C     0.71350   0.44630   0.91400   0.01267  Uiso   1.00
C77    C     0.64790   0.96780   0.54870   0.01267  Uiso   1.00
C78    C     0.59122   0.99202   0.70320   0.01267  Uiso   1.00
C79    C     0.55400   0.00040   0.69420   0.01267  Uiso   1.00
C80    C     0.58930   0.06470   0.78300   0.01267  Uiso   1.00
C81    C     0.62800   0.05070   0.79210   0.01267  Uiso   1.00
C82    C     0.62630   0.01580   0.75090   0.01267  Uiso   1.00
C83    C     0.59090   0.95470   0.65840   0.01267  Uiso   1.00
C84    C     0.28090   0.20240   0.80470   0.01267  Uiso   1.00
C85    C     0.28600   0.16150   0.77950   0.01267  Uiso   1.00
C86    C     0.33540   0.16560   0.79500   0.01267  Uiso   1.00
C87    C     0.37520   0.25370   0.85770   0.01267  Uiso   1.00
C88    C     0.32630   0.24880   0.84410   0.01267  Uiso   1.00
C89    C     0.23000   0.19790   0.79050   0.01267  Uiso   1.00
C90    C     0.77910   0.27010   0.02000   0.01267  Uiso   1.00
C91    C     0.77800   0.27760   0.06600   0.01267  Uiso   1.00
C92    C     0.82610   0.31190   0.11720   0.01267  Uiso   1.00
C93    C     0.68440   0.20890   0.96930   0.01267  Uiso   1.00
C94    C     0.68310   0.21630   0.01400   0.01267  Uiso   1.00
C95    C     0.72960   0.25000   0.06200   0.01267  Uiso   1.00
C96    C     0.73420   0.23780   0.97280   0.01267  Uiso   1.00
C97    C     0.55130   0.03780   0.73570   0.01267  Uiso   1.00
C98    C     0.80830   0.44390   0.82340   0.01267  Uiso   1.00
O99    O     0.62830   0.85900   0.43190   0.01267  Uiso   1.00
O100   O     0.61603   0.95235   0.56248   0.01267  Uiso   1.00
O101   O     0.66651   0.94388   0.52855   0.01267  Uiso   1.00
O102   O     0.64389   0.87679   0.57858   0.01267  Uiso   1.00
O103   O     0.55176   0.92752   0.61412   0.01267  Uiso   1.00
O104   O     0.63179   0.95130   0.66745   0.01267  Uiso   1.00
O105   O     0.22770   0.23651   0.81689   0.01267  Uiso   1.00
O106   O     0.18928   0.15600   0.75200   0.01267  Uiso   1.00
O107   O     0.87021   0.33544   0.11865   0.01267  Uiso   1.00
O108   O     0.82059   0.31529   0.15582   0.01267  Uiso   1.00
O109   O     0.70467   0.47593   0.89700   0.01267  Uiso   1.00
O110   O     0.75582   0.45029   0.93489   0.01267  Uiso   1.00
O111   O     0.79088   0.43049   0.85125   0.01267  Uiso   1.00
O112   O     0.82760   0.49010   0.83150   0.01267  Uiso   1.00
H113   H     0.67611   0.90901   0.61080   0.01267  Uiso   1.00
H114   H     0.11793   0.57092   0.79040   0.00000  Uiso   1.00
Zn115  Zn    0.30768   0.00438   0.41864   0.01267  Uiso   1.00
Zn116  Zn    0.36223   0.13103   0.49424   0.01267  Uiso   1.00
Zn117  Zn    0.23317   0.06111   0.41842   0.01267  Uiso   1.00
H118   H     0.69950   0.14380   0.31850   0.01267  Uiso   1.00
H119   H     0.69110   0.08690   0.24280   0.01267  Uiso   1.00
H120   H     0.56320   0.96650   0.22350   0.01267  Uiso   1.00
H121   H     0.57160   0.02340   0.29940   0.01267  Uiso   1.00
H122   H     0.65270   0.21320   0.48670   0.01267  Uiso   1.00
H123   H     0.72220   0.17770   0.40270   0.01267  Uiso   1.00
H124   H     0.56410   0.08730   0.34260   0.01267  Uiso   1.00
H125   H     0.50090   0.19360   0.47730   0.01267  Uiso   1.00
H126   H     0.57230   0.21250   0.46160   0.01267  Uiso   1.00
H127   H     0.51570   0.05610   0.38240   0.01267  Uiso   1.00
H128   H     0.44430   0.03710   0.39800   0.01267  Uiso   1.00
H129   H     0.37210   0.69670   0.06800   0.01267  Uiso   1.00
H130   H     0.42840   0.75430   0.05090   0.01267  Uiso   1.00
H131   H     0.55090   0.75100   0.14170   0.01267  Uiso   1.00
H132   H     0.49450   0.69340   0.15870   0.01267  Uiso   1.00
H133   H     0.34030   0.68060   0.11910   0.01267  Uiso   1.00
H134   H     0.42860   0.61390   0.13870   0.01267  Uiso   1.00
H135   H     0.30000   0.56540   0.15800   0.01267  Uiso   1.00
H136   H     0.26430   0.78930   0.12120   0.01267  Uiso   1.00
H137   H     0.27990   0.71740   0.20770   0.01267  Uiso   1.00
H138   H     0.24710   0.64520   0.05930   0.01267  Uiso   1.00
H139   H     0.32260   0.86670   0.33990   0.01267  Uiso   1.00
H140   H     0.23930   0.82870   0.17420   0.01267  Uiso   1.00
H141   H     0.25020   0.89510   0.24170   0.01267  Uiso   1.00
H142   H     0.37880   0.50450   0.24870   0.01267  Uiso   1.00
H143   H     0.35910   0.55990   0.22260   0.01267  Uiso   1.00
H144   H     0.40380   0.52290   0.11710   0.01267  Uiso   1.00
H145   H     0.41560   0.46220   0.13800   0.01267  Uiso   1.00
H146   H     0.26640   0.79030   0.97870   0.01267  Uiso   1.00
H147   H     0.18600   0.63800   0.98720   0.01267  Uiso   1.00
H148   H     0.16160   0.63560   0.90800   0.01267  Uiso   1.00
H149   H     0.29180   0.79330   0.05710   0.01267  Uiso   1.00
H150   H     0.41983   0.21382   0.60024   0.01267  Uiso   1.00
H151   H     0.31420   0.79450   0.27250   0.01267  Uiso   1.00
H152   H     0.64960   0.97270   0.14010   0.01267  Uiso   1.00
C153   C     0.63642   0.08926   0.31646   0.01267  Uiso   1.00
C154   C     0.67221   0.10828   0.29951   0.01267  Uiso   1.00
C155   C     0.66714   0.07418   0.25410   0.01267  Uiso   1.00
C156   C     0.62627   0.02106   0.22563   0.01267  Uiso   1.00
C157   C     0.59048   0.00204   0.24258   0.01267  Uiso   1.00
C158   C     0.59555   0.03614   0.28799   0.01267  Uiso   1.00
C159   C     0.60087   0.14843   0.41542   0.01267  Uiso   1.00
C160   C     0.65015   0.19164   0.45621   0.01267  Uiso   1.00
C161   C     0.69562   0.20264   0.45146   0.01267  Uiso   1.00
C162   C     0.69179   0.17041   0.40590   0.01267  Uiso   1.00
C163   C     0.64252   0.12721   0.36511   0.01267  Uiso   1.00
C164   C     0.59706   0.11621   0.36987   0.01267  Uiso   1.00
C165   C     0.46548   0.11349   0.43921   0.01267  Uiso   1.00
C166   C     0.50384   0.16601   0.45827   0.01267  Uiso   1.00
C167   C     0.54663   0.17736   0.44889   0.01267  Uiso   1.00
C168   C     0.55107   0.13618   0.42043   0.01267  Uiso   1.00
C169   C     0.51271   0.08364   0.40135   0.01267  Uiso   1.00
C170   C     0.46993   0.07230   0.41075   0.01267  Uiso   1.00
C171   C     0.42771   0.68932   0.11501   0.01267  Uiso   1.00
C172   C     0.40791   0.70756   0.08271   0.01267  Uiso   1.00
C173   C     0.44170   0.74207   0.07249   0.01267  Uiso   1.00
C174   C     0.49528   0.75834   0.09458   0.01267  Uiso   1.00
C175   C     0.51506   0.74009   0.12687   0.01267  Uiso   1.00
C176   C     0.48129   0.70559   0.13710   0.01267  Uiso   1.00
C177   C     0.31296   0.62359   0.13853   0.01267  Uiso   1.00
C178   C     0.34667   0.65628   0.12687   0.01267  Uiso   1.00
C179   C     0.38998   0.65263   0.12691   0.01267  Uiso   1.00
C180   C     0.39957   0.61628   0.13861   0.01267  Uiso   1.00
C181   C     0.36585   0.58358   0.15025   0.01267  Uiso   1.00
C182   C     0.32254   0.58724   0.15022   0.01267  Uiso   1.00
C183   C     0.25411   0.71721   0.08248   0.01267  Uiso   1.00
C184   C     0.26408   0.76039   0.12447   0.01267  Uiso   1.00
C185   C     0.27374   0.76047   0.17137   0.01267  Uiso   1.00
C186   C     0.27345   0.71738   0.17629   0.01267  Uiso   1.00
C187   C     0.26348   0.67420   0.13430   0.01267  Uiso   1.00
C188   C     0.25380   0.67411   0.08739   0.01267  Uiso   1.00
C189   C     0.37570   0.54540   0.16490   0.01267  Uiso   1.00
C190   C     0.53230   0.79950   0.08600   0.01267  Uiso   1.00
C191   C     0.41910   0.09920   0.45130   0.01267  Uiso   1.00
C192   C     0.28882   0.88802   0.29680   0.01267  Uiso   1.00
C193   C     0.30620   0.85980   0.30580   0.01267  Uiso   1.00
C194   C     0.28170   0.80630   0.21700   0.01267  Uiso   1.00
C195   C     0.25860   0.83590   0.20790   0.01267  Uiso   1.00
C196   C     0.26490   0.87540   0.24910   0.01267  Uiso   1.00
C197   C     0.29630   0.93250   0.34160   0.01267  Uiso   1.00
C198   C     0.39770   0.47620   0.19530   0.01267  Uiso   1.00
C199   C     0.38200   0.50650   0.22050   0.01267  Uiso   1.00
C200   C     0.37060   0.54040   0.20500   0.01267  Uiso   1.00
C201   C     0.39600   0.51750   0.14230   0.01267  Uiso   1.00
C202   C     0.40470   0.48220   0.15590   0.01267  Uiso   1.00
C203   C     0.40740   0.43950   0.20950   0.01267  Uiso   1.00
C204   C     0.25010   0.75910   0.98000   0.01267  Uiso   1.00
C205   C     0.21160   0.71200   0.93400   0.01267  Uiso   1.00
C206   C     0.19470   0.70890   0.88280   0.01267  Uiso   1.00
C207   C     0.23960   0.71510   0.03070   0.01267  Uiso   1.00
C208   C     0.20230   0.66910   0.98600   0.01267  Uiso   1.00
C209   C     0.18800   0.66760   0.93800   0.01267  Uiso   1.00
C210   C     0.26500   0.76140   0.02720   0.01267  Uiso   1.00
C211   C     0.30210   0.81560   0.26430   0.01267  Uiso   1.00
C212   C     0.62050   0.98490   0.17660   0.01267  Uiso   1.00
O213   O     0.42710   0.19640   0.56810   0.01267  Uiso   1.00
O214   O     0.38987   0.05355   0.43752   0.01267  Uiso   1.00
O215   O     0.41533   0.13796   0.47145   0.01267  Uiso   1.00
O216   O     0.29821   0.06531   0.42142   0.01267  Uiso   1.00
O217   O     0.31340   0.93764   0.38588   0.01267  Uiso   1.00
O218   O     0.28385   0.96434   0.33255   0.01267  Uiso   1.00
O219   O     0.41962   0.41081   0.18311   0.01267  Uiso   1.00
O220   O     0.40400   0.43728   0.24800   0.01267  Uiso   1.00
O221   O     0.21679   0.75156   0.88135   0.01267  Uiso   1.00
O222   O     0.15947   0.66477   0.84418   0.01267  Uiso   1.00
O223   O     0.57893   0.80767   0.10300   0.01267  Uiso   1.00
O224   O     0.51540   0.82093   0.06511   0.01267  Uiso   1.00
O225   O     0.57924   0.93963   0.14875   0.01267  Uiso   1.00
O226   O     0.65860   0.99610   0.16850   0.01267  Uiso   1.00
H227   H     0.29821   0.06531   0.38920   0.01267  Uiso   1.00
H228   H     0.78053   0.32753   0.20960   0.00000  Uiso   1.00
Zn229  Zn    0.11096   0.69232   0.69670   0.01267  Uiso   1.00
Zn230  Zn    0.13201   0.63777   0.76880   0.01267  Uiso   1.00
Zn231  Zn    0.18525   0.76683   0.82794   0.01267  Uiso   1.00
H232   H     0.61900   0.30050   0.44430   0.01267  Uiso   1.00
H233   H     0.55170   0.30890   0.39580   0.01267  Uiso   1.00
H234   H     0.66030   0.43680   0.40330   0.01267  Uiso   1.00
H235   H     0.72780   0.42840   0.45180   0.01267  Uiso   1.00
H236   H     0.83400   0.34730   0.56050   0.01267  Uiso   1.00
H237   H     0.68050   0.27780   0.45550   0.01267  Uiso   1.00
H238   H     0.77850   0.43590   0.52320   0.01267  Uiso   1.00
H239   H     0.97640   0.49910   0.69270   0.01267  Uiso   1.00
H240   H     0.88930   0.42770   0.64020   0.01267  Uiso   1.00
H241   H     0.86670   0.48430   0.54040   0.01267  Uiso   1.00
H242   H     0.95370   0.55570   0.59280   0.01267  Uiso   1.00
H243   H     0.69590   0.62790   0.32460   0.01267  Uiso   1.00
H244   H     0.62250   0.57160   0.32590   0.01267  Uiso   1.00
H245   H     0.59080   0.44910   0.20010   0.01267  Uiso   1.00
H246   H     0.66420   0.50550   0.19890   0.01267  Uiso   1.00
H247   H     0.77880   0.65970   0.34030   0.01267  Uiso   1.00
H248   H     0.71010   0.57140   0.18530   0.01267  Uiso   1.00
H249   H     0.85800   0.70000   0.26540   0.01267  Uiso   1.00
H250   H     0.85690   0.73570   0.52500   0.01267  Uiso   1.00
H251   H     0.92780   0.72010   0.43750   0.01267  Uiso   1.00
H252   H     0.81220   0.75290   0.39810   0.01267  Uiso   1.00
H253   H     0.01730   0.67740   0.54410   0.01267  Uiso   1.00
H254   H     0.93490   0.76070   0.58940   0.01267  Uiso   1.00
H255   H     0.99150   0.74980   0.64490   0.01267  Uiso   1.00
H256   H     0.86990   0.62120   0.12570   0.01267  Uiso   1.00
H257   H     0.86350   0.64090   0.20080   0.01267  Uiso   1.00
H258   H     0.71330   0.59620   0.11910   0.01267  Uiso   1.00
H259   H     0.72240   0.58440   0.04660   0.01267  Uiso   1.00
H260   H     0.71230   0.73360   0.52390   0.01267  Uiso   1.00
H261   H     0.80120   0.81400   0.45200   0.01267  Uiso   1.00
H262   H     0.74640   0.83840   0.47400   0.01267  Uiso   1.00
H263   H     0.76530   0.70820   0.50150   0.01267  Uiso   1.00
H264   H     0.18041   0.58017   0.79399   0.01267  Uiso   1.00
H265   H     0.95830   0.68580   0.48030   0.01267  Uiso   1.00
H266   H     0.49050   0.35040   0.32310   0.01267  Uiso   1.00
C267   C     0.68004   0.36358   0.45284   0.01267  Uiso   1.00
C268   C     0.62730   0.32779   0.43607   0.01267  Uiso   1.00
C269   C     0.58696   0.33286   0.40704   0.01267  Uiso   1.00
C270   C     0.59936   0.37373   0.39479   0.01267  Uiso   1.00
C271   C     0.65210   0.40952   0.41156   0.01267  Uiso   1.00
C272   C     0.69244   0.40445   0.44059   0.01267  Uiso   1.00
C273   C     0.81455   0.39913   0.54756   0.01267  Uiso   1.00
C274   C     0.80606   0.34985   0.54149   0.01267  Uiso   1.00
C275   C     0.75584   0.30438   0.50702   0.01267  Uiso   1.00
C276   C     0.71411   0.30821   0.47862   0.01267  Uiso   1.00
C277   C     0.72259   0.35748   0.48469   0.01267  Uiso   1.00
C278   C     0.77281   0.40294   0.51915   0.01267  Uiso   1.00
C279   C     0.97373   0.53452   0.64801   0.01267  Uiso   1.00
C280   C     0.95443   0.49616   0.66217   0.01267  Uiso   1.00
C281   C     0.90226   0.45337   0.63073   0.01267  Uiso   1.00
C282   C     0.86936   0.44893   0.58511   0.01267  Uiso   1.00
C283   C     0.88864   0.48729   0.57093   0.01267  Uiso   1.00
C284   C     0.94082   0.53007   0.60237   0.01267  Uiso   1.00
C285   C     0.68730   0.57229   0.26161   0.01267  Uiso   1.00
C286   C     0.67480   0.59209   0.29965   0.01267  Uiso   1.00
C287   C     0.63079   0.55830   0.30037   0.01267  Uiso   1.00
C288   C     0.59930   0.50472   0.26306   0.01267  Uiso   1.00
C289   C     0.61181   0.48494   0.22503   0.01267  Uiso   1.00
C290   C     0.65581   0.51871   0.22430   0.01267  Uiso   1.00
C291   C     0.82557   0.68704   0.31063   0.01267  Uiso   1.00
C292   C     0.78020   0.65333   0.30961   0.01267  Uiso   1.00
C293   C     0.73693   0.61002   0.26265   0.01267  Uiso   1.00
C294   C     0.73904   0.60043   0.21671   0.01267  Uiso   1.00
C295   C     0.78440   0.63415   0.21773   0.01267  Uiso   1.00
C296   C     0.82768   0.67746   0.26470   0.01267  Uiso   1.00
C297   C     0.82837   0.74589   0.46310   0.01267  Uiso   1.00
C298   C     0.86039   0.73592   0.49631   0.01267  Uiso   1.00
C299   C     0.89763   0.72626   0.48673   0.01267  Uiso   1.00
C300   C     0.90284   0.72655   0.44393   0.01267  Uiso   1.00
C301   C     0.87082   0.73652   0.41072   0.01267  Uiso   1.00
C302   C     0.83359   0.74620   0.42031   0.01267  Uiso   1.00
C303   C     0.78920   0.62430   0.16970   0.01267  Uiso   1.00
C304   C     0.55370   0.46770   0.26720   0.01267  Uiso   1.00
C305   C     0.03220   0.58090   0.68010   0.01267  Uiso   1.00
C306   C     0.00798   0.71118   0.59920   0.01267  Uiso   1.00
C307   C     0.99960   0.69380   0.55360   0.01267  Uiso   1.00
C308   C     0.93530   0.71830   0.52460   0.01267  Uiso   1.00
C309   C     0.94930   0.74140   0.57730   0.01267  Uiso   1.00
C310   C     0.98420   0.73510   0.61050   0.01267  Uiso   1.00
C311   C     0.04530   0.70370   0.63620   0.01267  Uiso   1.00
C312   C     0.79760   0.60230   0.07850   0.01267  Uiso   1.00
C313   C     0.83850   0.61800   0.12450   0.01267  Uiso   1.00
C314   C     0.83440   0.62940   0.16980   0.01267  Uiso   1.00
C315   C     0.74630   0.60400   0.12150   0.01267  Uiso   1.00
C316   C     0.75120   0.59530   0.07750   0.01267  Uiso   1.00
C317   C     0.80210   0.59260   0.03210   0.01267  Uiso   1.00
C318   C     0.72990   0.74990   0.50900   0.01267  Uiso   1.00
C319   C     0.72240   0.78840   0.50040   0.01267  Uiso   1.00
C320   C     0.68810   0.80530   0.51420   0.01267  Uiso   1.00
C321   C     0.79110   0.76040   0.47550   0.01267  Uiso   1.00
C322   C     0.78370   0.79770   0.46680   0.01267  Uiso   1.00
C323   C     0.75000   0.81200   0.47960   0.01267  Uiso   1.00
C324   C     0.76220   0.73500   0.49640   0.01267  Uiso   1.00
C325   C     0.96220   0.69790   0.51350   0.01267  Uiso   1.00
C326   C     0.55610   0.37950   0.36440   0.01267  Uiso   1.00
O327   O     0.14100   0.57290   0.76930   0.01267  Uiso   1.00
O328   O     0.04765   0.61013   0.66368   0.01267  Uiso   1.00
O329   O     0.05612   0.58467   0.72263   0.01267  Uiso   1.00
O330   O     0.12321   0.70179   0.76710   0.01267  Uiso   1.00
O331   O     0.07248   0.68660   0.62424   0.01267  Uiso   1.00
O332   O     0.04870   0.71615   0.68049   0.01267  Uiso   1.00
O333   O     0.76349   0.58038   0.99119   0.01267  Uiso   1.00
O334   O     0.84400   0.59600   0.03328   0.01267  Uiso   1.00
O335   O     0.66456   0.78321   0.53477   0.01267  Uiso   1.00
O336   O     0.68471   0.84053   0.50530   0.01267  Uiso   1.00
O337   O     0.52407   0.42107   0.22874   0.01267  Uiso   1.00
O338   O     0.54971   0.48460   0.30553   0.01267  Uiso   1.00
O339   O     0.56951   0.42076   0.36039   0.01267  Uiso   1.00
O340   O     0.50990   0.34140   0.33750   0.01267  Uiso   1.00
H341   H     0.09099   0.70179   0.76710   0.01267  Uiso   1.00
H342   H     0.42908   0.21947   0.54700   0.00000  Uiso   1.00
Zn343  Zn    0.99562   0.41426   0.30330   0.01267  Uiso   1.00
Zn344  Zn    0.86897   0.36321   0.23120   0.01267  Uiso   1.00
Zn345  Zn    0.93889   0.35731   0.17206   0.01267  Uiso   1.00
H346   H     0.85620   0.17470   0.55570   0.01267  Uiso   1.00
H347   H     0.91310   0.15590   0.60420   0.01267  Uiso   1.00
H348   H     0.03350   0.25700   0.59670   0.01267  Uiso   1.00
H349   H     0.97660   0.27600   0.54820   0.01267  Uiso   1.00
H350   H     0.78680   0.27350   0.43950   0.01267  Uiso   1.00
H351   H     0.82230   0.22500   0.54450   0.01267  Uiso   1.00
H352   H     0.91270   0.25530   0.47680   0.01267  Uiso   1.00
H353   H     0.80640   0.28370   0.30730   0.01267  Uiso   1.00
H354   H     0.78750   0.24910   0.35980   0.01267  Uiso   1.00
H355   H     0.94390   0.32630   0.45960   0.01267  Uiso   1.00
H356   H     0.96290   0.36090   0.40720   0.01267  Uiso   1.00
H357   H     0.30330   0.37130   0.67540   0.01267  Uiso   1.00
H358   H     0.24570   0.29660   0.67410   0.01267  Uiso   1.00
H359   H     0.24900   0.39070   0.79990   0.01267  Uiso   1.00
H360   H     0.30660   0.46530   0.80110   0.01267  Uiso   1.00
H361   H     0.31940   0.43850   0.65970   0.01267  Uiso   1.00
H362   H     0.38610   0.52480   0.81470   0.01267  Uiso   1.00
H363   H     0.43460   0.59260   0.73460   0.01267  Uiso   1.00
H364   H     0.21070   0.33190   0.47500   0.01267  Uiso   1.00
H365   H     0.28260   0.49030   0.56250   0.01267  Uiso   1.00
H366   H     0.35480   0.41410   0.60190   0.01267  Uiso   1.00
H367   H     0.13330   0.47320   0.45590   0.01267  Uiso   1.00
H368   H     0.17130   0.34550   0.41060   0.01267  Uiso   1.00
H369   H     0.10490   0.34660   0.35510   0.01267  Uiso   1.00
H370   H     0.49550   0.74420   0.87430   0.01267  Uiso   1.00
H371   H     0.44010   0.66270   0.79920   0.01267  Uiso   1.00
H372   H     0.47710   0.59420   0.88090   0.01267  Uiso   1.00
H373   H     0.53780   0.67580   0.95340   0.01267  Uiso   1.00
H374   H     0.20970   0.18840   0.47610   0.01267  Uiso   1.00
H375   H     0.36200   0.34920   0.54800   0.01267  Uiso   1.00
H376   H     0.36440   0.27240   0.52600   0.01267  Uiso   1.00
H377   H     0.20670   0.26380   0.49850   0.01267  Uiso   1.00
H378   H     0.78618   0.38642   0.20601   0.01267  Uiso   1.00
H379   H     0.20550   0.47800   0.51970   0.01267  Uiso   1.00
H380   H     0.02730   0.16740   0.67690   0.01267  Uiso   1.00
C381   C     0.91074   0.22720   0.54716   0.01267  Uiso   1.00
C382   C     0.89172   0.19123   0.56393   0.01267  Uiso   1.00
C383   C     0.92582   0.17992   0.59296   0.01267  Uiso   1.00
C384   C     0.97894   0.20457   0.60521   0.01267  Uiso   1.00
C385   C     0.99796   0.24054   0.58844   0.01267  Uiso   1.00
C386   C     0.96386   0.25185   0.55941   0.01267  Uiso   1.00
C387   C     0.85157   0.26699   0.45244   0.01267  Uiso   1.00
C388   C     0.80836   0.26457   0.45851   0.01267  Uiso   1.00
C389   C     0.79736   0.24882   0.49298   0.01267  Uiso   1.00
C390   C     0.82959   0.23549   0.52138   0.01267  Uiso   1.00
C391   C     0.87279   0.23790   0.51531   0.01267  Uiso   1.00
C392   C     0.88379   0.25366   0.48085   0.01267  Uiso   1.00
C393   C     0.88651   0.32572   0.35199   0.01267  Uiso   1.00
C394   C     0.83399   0.29226   0.33783   0.01267  Uiso   1.00
C395   C     0.82264   0.27153   0.36927   0.01267  Uiso   1.00
C396   C     0.86382   0.28425   0.41489   0.01267  Uiso   1.00
C397   C     0.91636   0.31771   0.42907   0.01267  Uiso   1.00
C398   C     0.92770   0.33845   0.39763   0.01267  Uiso   1.00
C399   C     0.31068   0.42569   0.73839   0.01267  Uiso   1.00
C400   C     0.29244   0.37515   0.70035   0.01267  Uiso   1.00
C401   C     0.25793   0.33042   0.69963   0.01267  Uiso   1.00
C402   C     0.24166   0.33624   0.73694   0.01267  Uiso   1.00
C403   C     0.25991   0.38678   0.77497   0.01267  Uiso   1.00
C404   C     0.29441   0.43151   0.77570   0.01267  Uiso   1.00
C405   C     0.37641   0.51494   0.68937   0.01267  Uiso   1.00
C406   C     0.34372   0.47059   0.69039   0.01267  Uiso   1.00
C407   C     0.34737   0.47428   0.73735   0.01267  Uiso   1.00
C408   C     0.38372   0.52233   0.78329   0.01267  Uiso   1.00
C409   C     0.41642   0.56667   0.78227   0.01267  Uiso   1.00
C410   C     0.41276   0.56298   0.73530   0.01267  Uiso   1.00
C411   C     0.28279   0.36527   0.53690   0.01267  Uiso   1.00
C412   C     0.23961   0.36408   0.50369   0.01267  Uiso   1.00
C413   C     0.23953   0.41090   0.51327   0.01267  Uiso   1.00
C414   C     0.28262   0.45891   0.55607   0.01267  Uiso   1.00
C415   C     0.32580   0.46010   0.58928   0.01267  Uiso   1.00
C416   C     0.32589   0.41328   0.57969   0.01267  Uiso   1.00
C417   C     0.45460   0.61950   0.83030   0.01267  Uiso   1.00
C418   C     0.20050   0.28650   0.73280   0.01267  Uiso   1.00
C419   C     0.90080   0.35210   0.31990   0.01267  Uiso   1.00
C420   C     0.11198   0.40878   0.40080   0.01267  Uiso   1.00
C421   C     0.14020   0.44600   0.44640   0.01267  Uiso   1.00
C422   C     0.19370   0.41070   0.47540   0.01267  Uiso   1.00
C423   C     0.16410   0.37200   0.42270   0.01267  Uiso   1.00
C424   C     0.12460   0.37370   0.38950   0.01267  Uiso   1.00
C425   C     0.06750   0.40910   0.36380   0.01267  Uiso   1.00
C426   C     0.52380   0.71910   0.92150   0.01267  Uiso   1.00
C427   C     0.49350   0.71400   0.87550   0.01267  Uiso   1.00
C428   C     0.45960   0.66460   0.83020   0.01267  Uiso   1.00
C429   C     0.48250   0.62480   0.87850   0.01267  Uiso   1.00
C430   C     0.51780   0.67370   0.92250   0.01267  Uiso   1.00
C431   C     0.56050   0.77000   0.96790   0.01267  Uiso   1.00
C432   C     0.24090   0.22090   0.49100   0.01267  Uiso   1.00
C433   C     0.28800   0.22200   0.49960   0.01267  Uiso   1.00
C434   C     0.29110   0.17390   0.48580   0.01267  Uiso   1.00
C435   C     0.28490   0.31560   0.52450   0.01267  Uiso   1.00
C436   C     0.33090   0.31690   0.53320   0.01267  Uiso   1.00
C437   C     0.33240   0.27040   0.52040   0.01267  Uiso   1.00
C438   C     0.23860   0.26580   0.50360   0.01267  Uiso   1.00
C439   C     0.18440   0.44870   0.48650   0.01267  Uiso   1.00
C440   C     0.01510   0.19170   0.63560   0.01267  Uiso   1.00
O441   O     0.80360   0.37170   0.23070   0.01267  Uiso   1.00
O442   O     0.94645   0.38397   0.33632   0.01267  Uiso   1.00
O443   O     0.86204   0.33349   0.27737   0.01267  Uiso   1.00
O444   O     0.93469   0.35611   0.23290   0.01267  Uiso   1.00
O445   O     0.06236   0.44824   0.37576   0.01267  Uiso   1.00
O446   O     0.03566   0.36821   0.31951   0.01267  Uiso   1.00
O447   O     0.58919   0.77230   0.00881   0.01267  Uiso   1.00
O448   O     0.56272   0.81072   0.96672   0.01267  Uiso   1.00
O449   O     0.24844   0.12979   0.46523   0.01267  Uiso   1.00
O450   O     0.33523   0.17941   0.49470   0.01267  Uiso   1.00
O451   O     0.19233   0.29533   0.77126   0.01267  Uiso   1.00
O452   O     0.17907   0.24418   0.69447   0.01267  Uiso   1.00
O453   O     0.06037   0.20912   0.63961   0.01267  Uiso   1.00
O454   O     0.00390   0.17240   0.66250   0.01267  Uiso   1.00
H455   H     0.93469   0.32389   0.23290   0.01267  Uiso   1.00
H456   H     0.67247   0.88207   0.45300   0.00000  Uiso   1.00
Zn457  Zn    0.44232   0.36096   0.19670   0.01267  Uiso   1.00
Zn458  Zn    0.38777   0.38201   0.26880   0.01267  Uiso   1.00
Zn459  Zn    0.51683   0.43525   0.32794   0.01267  Uiso   1.00
H460   H     0.05050   0.86900   0.94430   0.01267  Uiso   1.00
H461   H     0.05890   0.80170   0.89580   0.01267  Uiso   1.00
H462   H     0.18680   0.91030   0.90330   0.01267  Uiso   1.00
H463   H     0.17840   0.97780   0.95180   0.01267  Uiso   1.00
H464   H     0.09730   0.08400   0.06050   0.01267  Uiso   1.00
H465   H     0.02780   0.93050   0.95550   0.01267  Uiso   1.00
H466   H     0.18590   0.02850   0.02320   0.01267  Uiso   1.00
H467   H     0.24910   0.22640   0.19270   0.01267  Uiso   1.00
H468   H     0.17770   0.13930   0.14020   0.01267  Uiso   1.00
H469   H     0.23430   0.11670   0.04040   0.01267  Uiso   1.00
H470   H     0.30570   0.20370   0.09280   0.01267  Uiso   1.00
H471   H     0.37790   0.94590   0.82460   0.01267  Uiso   1.00
H472   H     0.32160   0.87250   0.82590   0.01267  Uiso   1.00
H473   H     0.19910   0.84080   0.70010   0.01267  Uiso   1.00
H474   H     0.25550   0.91420   0.69890   0.01267  Uiso   1.00
H475   H     0.40970   0.02880   0.84030   0.01267  Uiso   1.00
H476   H     0.32140   0.96010   0.68530   0.01267  Uiso   1.00
H477   H     0.45000   0.10800   0.76540   0.01267  Uiso   1.00
H478   H     0.48570   0.10690   0.02500   0.01267  Uiso   1.00
H479   H     0.47010   0.17780   0.93750   0.01267  Uiso   1.00
H480   H     0.50290   0.06220   0.89810   0.01267  Uiso   1.00
H481   H     0.42740   0.26730   0.04410   0.01267  Uiso   1.00
H482   H     0.51070   0.18490   0.08940   0.01267  Uiso   1.00
H483   H     0.49980   0.24150   0.14490   0.01267  Uiso   1.00
H484   H     0.37120   0.11990   0.62570   0.01267  Uiso   1.00
H485   H     0.39090   0.11350   0.70080   0.01267  Uiso   1.00
H486   H     0.34620   0.96330   0.61910   0.01267  Uiso   1.00
H487   H     0.33440   0.97240   0.54660   0.01267  Uiso   1.00
H488   H     0.48360   0.96230   0.02390   0.01267  Uiso   1.00
H489   H     0.56400   0.05120   0.95200   0.01267  Uiso   1.00
H490   H     0.58840   0.99640   0.97400   0.01267  Uiso   1.00
H491   H     0.45820   0.01530   0.00150   0.01267  Uiso   1.00
H492   H     0.33017   0.43041   0.29399   0.01267  Uiso   1.00
H493   H     0.43580   0.20830   0.98030   0.01267  Uiso   1.00
H494   H     0.10040   0.74050   0.82310   0.01267  Uiso   1.00
C495   C     0.11358   0.93004   0.95284   0.01267  Uiso   1.00
C496   C     0.07779   0.87730   0.93607   0.01267  Uiso   1.00
C497   C     0.08286   0.83696   0.90704   0.01267  Uiso   1.00
C498   C     0.12373   0.84936   0.89479   0.01267  Uiso   1.00
C499   C     0.15952   0.90210   0.91156   0.01267  Uiso   1.00
C500   C     0.15445   0.94244   0.94059   0.01267  Uiso   1.00
C501   C     0.14913   0.06455   0.04756   0.01267  Uiso   1.00
C502   C     0.09985   0.05606   0.04149   0.01267  Uiso   1.00
C503   C     0.05438   0.00584   0.00702   0.01267  Uiso   1.00
C504   C     0.05821   0.96411   0.97862   0.01267  Uiso   1.00
C505   C     0.10748   0.97259   0.98469   0.01267  Uiso   1.00
C506   C     0.15294   0.02281   0.01915   0.01267  Uiso   1.00
C507   C     0.28452   0.22373   0.14801   0.01267  Uiso   1.00
C508   C     0.24616   0.20443   0.16217   0.01267  Uiso   1.00
C509   C     0.20337   0.15226   0.13073   0.01267  Uiso   1.00
C510   C     0.19893   0.11936   0.08511   0.01267  Uiso   1.00
C511   C     0.23729   0.13864   0.07093   0.01267  Uiso   1.00
C512   C     0.28007   0.19082   0.10237   0.01267  Uiso   1.00
C513   C     0.32229   0.93730   0.76161   0.01267  Uiso   1.00
C514   C     0.34209   0.92480   0.79965   0.01267  Uiso   1.00
C515   C     0.30830   0.88079   0.80037   0.01267  Uiso   1.00
C516   C     0.25472   0.84930   0.76306   0.01267  Uiso   1.00
C517   C     0.23494   0.86181   0.72503   0.01267  Uiso   1.00
C518   C     0.26871   0.90581   0.72430   0.01267  Uiso   1.00
C519   C     0.43704   0.07557   0.81063   0.01267  Uiso   1.00
C520   C     0.40333   0.03020   0.80961   0.01267  Uiso   1.00
C521   C     0.36002   0.98693   0.76265   0.01267  Uiso   1.00
C522   C     0.35043   0.98904   0.71671   0.01267  Uiso   1.00
C523   C     0.38415   0.03440   0.71773   0.01267  Uiso   1.00
C524   C     0.42746   0.07768   0.76470   0.01267  Uiso   1.00
C525   C     0.49589   0.07837   0.96310   0.01267  Uiso   1.00
C526   C     0.48592   0.11039   0.99631   0.01267  Uiso   1.00
C527   C     0.47626   0.14763   0.98673   0.01267  Uiso   1.00
C528   C     0.47655   0.15284   0.94393   0.01267  Uiso   1.00
C529   C     0.48652   0.12082   0.91072   0.01267  Uiso   1.00
C530   C     0.49620   0.08359   0.92031   0.01267  Uiso   1.00
C531   C     0.37430   0.03920   0.66970   0.01267  Uiso   1.00
C532   C     0.21770   0.80370   0.76720   0.01267  Uiso   1.00
C533   C     0.33090   0.28220   0.18010   0.01267  Uiso   1.00
C534   C     0.46118   0.25798   0.09920   0.01267  Uiso   1.00
C535   C     0.44380   0.24960   0.05360   0.01267  Uiso   1.00
C536   C     0.46830   0.18530   0.02460   0.01267  Uiso   1.00
C537   C     0.49140   0.19930   0.07730   0.01267  Uiso   1.00
C538   C     0.48510   0.23420   0.11050   0.01267  Uiso   1.00
C539   C     0.45370   0.29530   0.13620   0.01267  Uiso   1.00
C540   C     0.35230   0.04760   0.57850   0.01267  Uiso   1.00
C541   C     0.36800   0.08850   0.62450   0.01267  Uiso   1.00
C542   C     0.37940   0.08440   0.66980   0.01267  Uiso   1.00
C543   C     0.35400   0.99630   0.62150   0.01267  Uiso   1.00
C544   C     0.34530   0.00120   0.57750   0.01267  Uiso   1.00
C545   C     0.34260   0.05210   0.53210   0.01267  Uiso   1.00
C546   C     0.49990   0.97990   0.00900   0.01267  Uiso   1.00
C547   C     0.53840   0.97240   0.00040   0.01267  Uiso   1.00
C548   C     0.55530   0.93810   0.01420   0.01267  Uiso   1.00
C549   C     0.51040   0.04110   0.97550   0.01267  Uiso   1.00
C550   C     0.54770   0.03370   0.96680   0.01267  Uiso   1.00
C551   C     0.56200   0.00000   0.97960   0.01267  Uiso   1.00
C552   C     0.48500   0.01220   0.99640   0.01267  Uiso   1.00
C553   C     0.44790   0.21220   0.01350   0.01267  Uiso   1.00
C554   C     0.12950   0.80610   0.86440   0.01267  Uiso   1.00
O555   O     0.32290   0.39100   0.26930   0.01267  Uiso   1.00
O556   O     0.36013   0.29765   0.16368   0.01267  Uiso   1.00
O557   O     0.33467   0.30612   0.22263   0.01267  Uiso   1.00
O558   O     0.45179   0.37321   0.26710   0.01267  Uiso   1.00
O559   O     0.43660   0.32248   0.12424   0.01267  Uiso   1.00
O560   O     0.46615   0.29870   0.18049   0.01267  Uiso   1.00
O561   O     0.33038   0.01349   0.49119   0.01267  Uiso   1.00
O562   O     0.34600   0.09400   0.53328   0.01267  Uiso   1.00
O563   O     0.53321   0.91456   0.03477   0.01267  Uiso   1.00
O564   O     0.59053   0.93471   0.00530   0.01267  Uiso   1.00
O565   O     0.17107   0.77407   0.72874   0.01267  Uiso   1.00
O566   O     0.23460   0.79971   0.80553   0.01267  Uiso   1.00
O567   O     0.17076   0.81951   0.86039   0.01267  Uiso   1.00
O568   O     0.09140   0.75990   0.83750   0.01267  Uiso   1.00
H569   H     0.45179   0.34099   0.26710   0.01267  Uiso   1.00
H570   H     0.96947   0.67908   0.04700   0.00000  Uiso   1.00
Zn571  Zn    0.16426   0.24562   0.80330   0.01267  Uiso   1.00
Zn572  Zn    0.11321   0.11897   0.73120   0.01267  Uiso   1.00
Zn573  Zn    0.10731   0.18889   0.67206   0.01267  Uiso   1.00
H574   H     0.92470   0.10620   0.05570   0.01267  Uiso   1.00
H575   H     0.90590   0.16310   0.10420   0.01267  Uiso   1.00
H576   H     0.00700   0.28350   0.09670   0.01267  Uiso   1.00
H577   H     0.02600   0.22660   0.04820   0.01267  Uiso   1.00
H578   H     0.02350   0.03680   0.93950   0.01267  Uiso   1.00
H579   H     0.97500   0.07230   0.04450   0.01267  Uiso   1.00
H580   H     0.00530   0.16270   0.97680   0.01267  Uiso   1.00
H581   H     0.03370   0.05640   0.80730   0.01267  Uiso   1.00
H582   H     0.99910   0.03750   0.85980   0.01267  Uiso   1.00
H583   H     0.07630   0.19390   0.95960   0.01267  Uiso   1.00
H584   H     0.11090   0.21290   0.90720   0.01267  Uiso   1.00
H585   H     0.12130   0.55330   0.17540   0.01267  Uiso   1.00
H586   H     0.04660   0.49570   0.17410   0.01267  Uiso   1.00
H587   H     0.14070   0.49900   0.29990   0.01267  Uiso   1.00
H588   H     0.21530   0.55660   0.30110   0.01267  Uiso   1.00
H589   H     0.18850   0.56940   0.15970   0.01267  Uiso   1.00
H590   H     0.27480   0.63610   0.31470   0.01267  Uiso   1.00
H591   H     0.34260   0.68460   0.23460   0.01267  Uiso   1.00
H592   H     0.08190   0.46070   0.97500   0.01267  Uiso   1.00
H593   H     0.24030   0.53260   0.06250   0.01267  Uiso   1.00
H594   H     0.16410   0.60480   0.10190   0.01267  Uiso   1.00
H595   H     0.22320   0.38330   0.95590   0.01267  Uiso   1.00
H596   H     0.09550   0.42130   0.91060   0.01267  Uiso   1.00
H597   H     0.09660   0.35490   0.85510   0.01267  Uiso   1.00
H598   H     0.49420   0.74550   0.37430   0.01267  Uiso   1.00
H599   H     0.41270   0.69010   0.29920   0.01267  Uiso   1.00
H600   H     0.34420   0.72710   0.38090   0.01267  Uiso   1.00
H601   H     0.42580   0.78780   0.45340   0.01267  Uiso   1.00
H602   H     0.93840   0.45970   0.97610   0.01267  Uiso   1.00
H603   H     0.09920   0.61200   0.04800   0.01267  Uiso   1.00
H604   H     0.02240   0.61440   0.02600   0.01267  Uiso   1.00
H605   H     0.01380   0.45670   0.99850   0.01267  Uiso   1.00
H606   H     0.13642   0.03618   0.70601   0.01267  Uiso   1.00
H607   H     0.22800   0.45550   0.01970   0.01267  Uiso   1.00
H608   H     0.91740   0.27730   0.17690   0.01267  Uiso   1.00
C609   C     0.97720   0.16074   0.04716   0.01267  Uiso   1.00
C610   C     0.94123   0.14172   0.06393   0.01267  Uiso   1.00
C611   C     0.92992   0.17582   0.09296   0.01267  Uiso   1.00
C612   C     0.95457   0.22894   0.10521   0.01267  Uiso   1.00
C613   C     0.99054   0.24796   0.08844   0.01267  Uiso   1.00
C614   C     0.00185   0.21386   0.05941   0.01267  Uiso   1.00
C615   C     0.01699   0.10157   0.95244   0.01267  Uiso   1.00
C616   C     0.01457   0.05836   0.95851   0.01267  Uiso   1.00
C617   C     0.99882   0.04736   0.99298   0.01267  Uiso   1.00
C618   C     0.98549   0.07959   0.02138   0.01267  Uiso   1.00
C619   C     0.98790   0.12279   0.01531   0.01267  Uiso   1.00
C620   C     0.00366   0.13379   0.98085   0.01267  Uiso   1.00
C621   C     0.07572   0.13651   0.85199   0.01267  Uiso   1.00
C622   C     0.04226   0.08399   0.83783   0.01267  Uiso   1.00
C623   C     0.02153   0.07264   0.86927   0.01267  Uiso   1.00
C624   C     0.03425   0.11382   0.91489   0.01267  Uiso   1.00
C625   C     0.06771   0.16636   0.92907   0.01267  Uiso   1.00
C626   C     0.08845   0.17770   0.89763   0.01267  Uiso   1.00
C627   C     0.17569   0.56068   0.23839   0.01267  Uiso   1.00
C628   C     0.12515   0.54244   0.20035   0.01267  Uiso   1.00
C629   C     0.08042   0.50793   0.19963   0.01267  Uiso   1.00
C630   C     0.08624   0.49166   0.23694   0.01267  Uiso   1.00
C631   C     0.13678   0.50991   0.27497   0.01267  Uiso   1.00
C632   C     0.18151   0.54441   0.27570   0.01267  Uiso   1.00
C633   C     0.26494   0.62641   0.18937   0.01267  Uiso   1.00
C634   C     0.22059   0.59372   0.19039   0.01267  Uiso   1.00
C635   C     0.22428   0.59737   0.23735   0.01267  Uiso   1.00
C636   C     0.27233   0.63372   0.28329   0.01267  Uiso   1.00
C637   C     0.31667   0.66642   0.28227   0.01267  Uiso   1.00
C638   C     0.31298   0.66276   0.23530   0.01267  Uiso   1.00
C639   C     0.11527   0.53279   0.03690   0.01267  Uiso   1.00
C640   C     0.11408   0.48961   0.00369   0.01267  Uiso   1.00
C641   C     0.16090   0.48953   0.01327   0.01267  Uiso   1.00
C642   C     0.20891   0.53262   0.05607   0.01267  Uiso   1.00
C643   C     0.21010   0.57580   0.08928   0.01267  Uiso   1.00
C644   C     0.16328   0.57589   0.07969   0.01267  Uiso   1.00
C645   C     0.36950   0.70460   0.33030   0.01267  Uiso   1.00
C646   C     0.03650   0.45050   0.23280   0.01267  Uiso   1.00
C647   C     0.10210   0.15080   0.81990   0.01267  Uiso   1.00
C648   C     0.15878   0.36198   0.90080   0.01267  Uiso   1.00
C649   C     0.19600   0.39020   0.94640   0.01267  Uiso   1.00
C650   C     0.16070   0.44370   0.97540   0.01267  Uiso   1.00
C651   C     0.12200   0.41410   0.92270   0.01267  Uiso   1.00
C652   C     0.12370   0.37460   0.88950   0.01267  Uiso   1.00
C653   C     0.15910   0.31750   0.86380   0.01267  Uiso   1.00
C654   C     0.46910   0.77380   0.42150   0.01267  Uiso   1.00
C655   C     0.46400   0.74350   0.37550   0.01267  Uiso   1.00
C656   C     0.41460   0.70960   0.33020   0.01267  Uiso   1.00
C657   C     0.37480   0.73250   0.37850   0.01267  Uiso   1.00
C658   C     0.42370   0.76780   0.42250   0.01267  Uiso   1.00
C659   C     0.52000   0.81050   0.46790   0.01267  Uiso   1.00
C660   C     0.97090   0.49090   0.99100   0.01267  Uiso   1.00
C661   C     0.97200   0.53800   0.99960   0.01267  Uiso   1.00
C662   C     0.92390   0.54110   0.98580   0.01267  Uiso   1.00
C663   C     0.06560   0.53490   0.02450   0.01267  Uiso   1.00
C664   C     0.06690   0.58090   0.03320   0.01267  Uiso   1.00
C665   C     0.02040   0.58240   0.02040   0.01267  Uiso   1.00
C666   C     0.01580   0.48860   0.00360   0.01267  Uiso   1.00
C667   C     0.19870   0.43440   0.98650   0.01267  Uiso   1.00
C668   C     0.94170   0.26510   0.13560   0.01267  Uiso   1.00
O669   O     0.12170   0.05360   0.73070   0.01267  Uiso   1.00
O670   O     0.13397   0.19645   0.83632   0.01267  Uiso   1.00
O671   O     0.08349   0.11204   0.77737   0.01267  Uiso   1.00
O672   O     0.10611   0.18469   0.73290   0.01267  Uiso   1.00
O673   O     0.19824   0.31236   0.87576   0.01267  Uiso   1.00
O674   O     0.11821   0.28566   0.81951   0.01267  Uiso   1.00
O675   O     0.52230   0.83919   0.50881   0.01267  Uiso   1.00
O676   O     0.56072   0.81272   0.46672   0.01267  Uiso   1.00
O677   O     0.87979   0.49844   0.96523   0.01267  Uiso   1.00
O678   O     0.92941   0.58523   0.99470   0.01267  Uiso   1.00
O679   O     0.04533   0.44233   0.27126   0.01267  Uiso   1.00
O680   O     0.99418   0.42907   0.19447   0.01267  Uiso   1.00
O681   O     0.95912   0.31037   0.13961   0.01267  Uiso   1.00
O682   O     0.92240   0.25390   0.16250   0.01267  Uiso   1.00
H683   H     0.07389   0.18469   0.73290   0.01267  Uiso   1.00
H684   H     0.63207   0.92247   0.95300   0.00000  Uiso   1.00
Zn685  Zn    0.75438   0.55768   0.91864   0.01267  Uiso   1.00
Zn686  Zn    0.88103   0.61223   0.99424   0.01267  Uiso   1.00
Zn687  Zn    0.81111   0.48317   0.91842   0.01267  Uiso   1.00
H688   H     0.89380   0.94950   0.81850   0.01267  Uiso   1.00
H689   H     0.83690   0.94110   0.74280   0.01267  Uiso   1.00
H690   H     0.71650   0.81320   0.72350   0.01267  Uiso   1.00
H691   H     0.77340   0.82160   0.79940   0.01267  Uiso   1.00
H692   H     0.96320   0.90270   0.98670   0.01267  Uiso   1.00
H693   H     0.92770   0.97220   0.90270   0.01267  Uiso   1.00
H694   H     0.83730   0.81410   0.84260   0.01267  Uiso   1.00
H695   H     0.94360   0.75090   0.97730   0.01267  Uiso   1.00
H696   H     0.96250   0.82230   0.96160   0.01267  Uiso   1.00
H697   H     0.80610   0.76570   0.88240   0.01267  Uiso   1.00
H698   H     0.78710   0.69430   0.89800   0.01267  Uiso   1.00
H699   H     0.44670   0.62210   0.56800   0.01267  Uiso   1.00
H700   H     0.50430   0.67840   0.55090   0.01267  Uiso   1.00
H701   H     0.50100   0.80090   0.64170   0.01267  Uiso   1.00
H702   H     0.44340   0.74450   0.65870   0.01267  Uiso   1.00
H703   H     0.43060   0.59030   0.61910   0.01267  Uiso   1.00
H704   H     0.36390   0.67860   0.63870   0.01267  Uiso   1.00
H705   H     0.31540   0.55000   0.65800   0.01267  Uiso   1.00
H706   H     0.53930   0.51430   0.62120   0.01267  Uiso   1.00
H707   H     0.46740   0.52990   0.70770   0.01267  Uiso   1.00
H708   H     0.39520   0.49710   0.55930   0.01267  Uiso   1.00
H709   H     0.61670   0.57260   0.83990   0.01267  Uiso   1.00
H710   H     0.57870   0.48930   0.67420   0.01267  Uiso   1.00
H711   H     0.64510   0.50020   0.74170   0.01267  Uiso   1.00
H712   H     0.25450   0.62880   0.74870   0.01267  Uiso   1.00
H713   H     0.30990   0.60910   0.72260   0.01267  Uiso   1.00
H714   H     0.27290   0.65380   0.61710   0.01267  Uiso   1.00
H715   H     0.21220   0.66560   0.63800   0.01267  Uiso   1.00
H716   H     0.54030   0.51640   0.47870   0.01267  Uiso   1.00
H717   H     0.38800   0.43600   0.48720   0.01267  Uiso   1.00
H718   H     0.38560   0.41160   0.40800   0.01267  Uiso   1.00
H719   H     0.54330   0.54180   0.55710   0.01267  Uiso   1.00
H720   H     0.96382   0.66983   0.10024   0.01267  Uiso   1.00
H721   H     0.54450   0.56420   0.77250   0.01267  Uiso   1.00
H722   H     0.72270   0.89960   0.64010   0.01267  Uiso   1.00
C723   C     0.83926   0.88642   0.81646   0.01267  Uiso   1.00
C724   C     0.85828   0.92221   0.79951   0.01267  Uiso   1.00
C725   C     0.82418   0.91714   0.75410   0.01267  Uiso   1.00
C726   C     0.77106   0.87627   0.72563   0.01267  Uiso   1.00
C727   C     0.75204   0.84048   0.74258   0.01267  Uiso   1.00
C728   C     0.78614   0.84555   0.78799   0.01267  Uiso   1.00
C729   C     0.89843   0.85087   0.91542   0.01267  Uiso   1.00
C730   C     0.94164   0.90015   0.95621   0.01267  Uiso   1.00
C731   C     0.95264   0.94562   0.95146   0.01267  Uiso   1.00
C732   C     0.92041   0.94179   0.90590   0.01267  Uiso   1.00
C733   C     0.87721   0.89252   0.86511   0.01267  Uiso   1.00
C734   C     0.86621   0.84706   0.86987   0.01267  Uiso   1.00
C735   C     0.86349   0.71548   0.93921   0.01267  Uiso   1.00
C736   C     0.91601   0.75384   0.95827   0.01267  Uiso   1.00
C737   C     0.92736   0.79663   0.94889   0.01267  Uiso   1.00
C738   C     0.88618   0.80107   0.92043   0.01267  Uiso   1.00
C739   C     0.83364   0.76271   0.90135   0.01267  Uiso   1.00
C740   C     0.82230   0.71993   0.91075   0.01267  Uiso   1.00
C741   C     0.43932   0.67771   0.61501   0.01267  Uiso   1.00
C742   C     0.45756   0.65791   0.58271   0.01267  Uiso   1.00
C743   C     0.49207   0.69170   0.57249   0.01267  Uiso   1.00
C744   C     0.50834   0.74528   0.59458   0.01267  Uiso   1.00
C745   C     0.49009   0.76506   0.62687   0.01267  Uiso   1.00
C746   C     0.45559   0.73129   0.63710   0.01267  Uiso   1.00
C747   C     0.37359   0.56296   0.63853   0.01267  Uiso   1.00
C748   C     0.40628   0.59667   0.62687   0.01267  Uiso   1.00
C749   C     0.40263   0.63998   0.62691   0.01267  Uiso   1.00
C750   C     0.36628   0.64957   0.63861   0.01267  Uiso   1.00
C751   C     0.33358   0.61585   0.65025   0.01267  Uiso   1.00
C752   C     0.33724   0.57254   0.65022   0.01267  Uiso   1.00
C753   C     0.46721   0.50411   0.58248   0.01267  Uiso   1.00
C754   C     0.51039   0.51408   0.62447   0.01267  Uiso   1.00
C755   C     0.51047   0.52374   0.67137   0.01267  Uiso   1.00
C756   C     0.46738   0.52345   0.67629   0.01267  Uiso   1.00
C757   C     0.42420   0.51348   0.63430   0.01267  Uiso   1.00
C758   C     0.42411   0.50380   0.58739   0.01267  Uiso   1.00
C759   C     0.29540   0.62570   0.66490   0.01267  Uiso   1.00
C760   C     0.54950   0.78230   0.58600   0.01267  Uiso   1.00
C761   C     0.84920   0.66910   0.95130   0.01267  Uiso   1.00
C762   C     0.63802   0.53882   0.79680   0.01267  Uiso   1.00
C763   C     0.60980   0.55620   0.80580   0.01267  Uiso   1.00
C764   C     0.55630   0.53170   0.71700   0.01267  Uiso   1.00
C765   C     0.58590   0.50860   0.70790   0.01267  Uiso   1.00
C766   C     0.62540   0.51490   0.74910   0.01267  Uiso   1.00
C767   C     0.68250   0.54630   0.84160   0.01267  Uiso   1.00
C768   C     0.22620   0.64770   0.69530   0.01267  Uiso   1.00
C769   C     0.25650   0.63200   0.72050   0.01267  Uiso   1.00
C770   C     0.29040   0.62060   0.70500   0.01267  Uiso   1.00
C771   C     0.26750   0.64600   0.64230   0.01267  Uiso   1.00
C772   C     0.23220   0.65470   0.65590   0.01267  Uiso   1.00
C773   C     0.18950   0.65740   0.70950   0.01267  Uiso   1.00
C774   C     0.50910   0.50010   0.48000   0.01267  Uiso   1.00
C775   C     0.46200   0.46160   0.43400   0.01267  Uiso   1.00
C776   C     0.45890   0.44470   0.38280   0.01267  Uiso   1.00
C777   C     0.46510   0.48960   0.53070   0.01267  Uiso   1.00
C778   C     0.41910   0.45230   0.48600   0.01267  Uiso   1.00
C779   C     0.41760   0.43800   0.43800   0.01267  Uiso   1.00
C780   C     0.51140   0.51500   0.52720   0.01267  Uiso   1.00
C781   C     0.56560   0.55210   0.76430   0.01267  Uiso   1.00
C782   C     0.73490   0.87050   0.67660   0.01267  Uiso   1.00
O783   O     0.94640   0.67710   0.06810   0.01267  Uiso   1.00
O784   O     0.80355   0.63987   0.93752   0.01267  Uiso   1.00
O785   O     0.88796   0.66533   0.97145   0.01267  Uiso   1.00
O786   O     0.81531   0.54821   0.92142   0.01267  Uiso   1.00
O787   O     0.68764   0.56340   0.88588   0.01267  Uiso   1.00
O788   O     0.71434   0.53385   0.83255   0.01267  Uiso   1.00
O789   O     0.16081   0.66962   0.68311   0.01267  Uiso   1.00
O790   O     0.18728   0.65400   0.74800   0.01267  Uiso   1.00
O791   O     0.50156   0.46679   0.38135   0.01267  Uiso   1.00
O792   O     0.41477   0.40947   0.34418   0.01267  Uiso   1.00
O793   O     0.55767   0.82893   0.60300   0.01267  Uiso   1.00
O794   O     0.57093   0.76540   0.56511   0.01267  Uiso   1.00
O795   O     0.68963   0.82924   0.64875   0.01267  Uiso   1.00
O796   O     0.74610   0.90860   0.66850   0.01267  Uiso   1.00
H797   H     0.81531   0.54821   0.88920   0.01267  Uiso   1.00
H798   H     0.07753   0.03053   0.70960   0.00000  Uiso   1.00
Zn799  Zn    0.63904   0.83574   0.08136   0.01267  Uiso   1.00
Zn800  Zn    0.61799   0.88679   0.00576   0.01267  Uiso   1.00
Zn801  Zn    0.56475   0.89269   0.08158   0.01267  Uiso   1.00
H802   H     0.13100   0.07530   0.18150   0.01267  Uiso   1.00
H803   H     0.19830   0.09410   0.25720   0.01267  Uiso   1.00
H804   H     0.08970   0.99300   0.27650   0.01267  Uiso   1.00
H805   H     0.02220   0.97400   0.20060   0.01267  Uiso   1.00
H806   H     0.91600   0.97650   0.01330   0.01267  Uiso   1.00
H807   H     0.06950   0.02500   0.09730   0.01267  Uiso   1.00
H808   H     0.97150   0.99470   0.15740   0.01267  Uiso   1.00
H809   H     0.77360   0.96630   0.02270   0.01267  Uiso   1.00
H810   H     0.86070   0.00090   0.03840   0.01267  Uiso   1.00
H811   H     0.88330   0.92370   0.11760   0.01267  Uiso   1.00
H812   H     0.79630   0.88910   0.10200   0.01267  Uiso   1.00
H813   H     0.05410   0.87870   0.43200   0.01267  Uiso   1.00
H814   H     0.12750   0.95340   0.44910   0.01267  Uiso   1.00
H815   H     0.15920   0.85930   0.35830   0.01267  Uiso   1.00
H816   H     0.08580   0.78470   0.34130   0.01267  Uiso   1.00
H817   H     0.97120   0.81150   0.38090   0.01267  Uiso   1.00
H818   H     0.03990   0.72520   0.36130   0.01267  Uiso   1.00
H819   H     0.89200   0.65740   0.34200   0.01267  Uiso   1.00
H820   H     0.89310   0.91810   0.37880   0.01267  Uiso   1.00
H821   H     0.82220   0.75970   0.29230   0.01267  Uiso   1.00
H822   H     0.93780   0.83590   0.44070   0.01267  Uiso   1.00
H823   H     0.73270   0.77680   0.16010   0.01267  Uiso   1.00
H824   H     0.81510   0.90450   0.32580   0.01267  Uiso   1.00
H825   H     0.75850   0.90340   0.25830   0.01267  Uiso   1.00
H826   H     0.88010   0.50580   0.25130   0.01267  Uiso   1.00
H827   H     0.88650   0.58730   0.27740   0.01267  Uiso   1.00
H828   H     0.03670   0.65580   0.38290   0.01267  Uiso   1.00
H829   H     0.02760   0.57420   0.36200   0.01267  Uiso   1.00
H830   H     0.03770   0.06160   0.52130   0.01267  Uiso   1.00
H831   H     0.94880   0.90080   0.51280   0.01267  Uiso   1.00
H832   H     0.00360   0.97760   0.59200   0.01267  Uiso   1.00
H833   H     0.98470   0.98620   0.44290   0.01267  Uiso   1.00
H834   H     0.56959   0.86358   0.89976   0.01267  Uiso   1.00
H835   H     0.79170   0.77200   0.22750   0.01267  Uiso   1.00
H836   H     0.25950   0.08260   0.35990   0.01267  Uiso   1.00
C837   C     0.06996   0.02280   0.18354   0.01267  Uiso   1.00
C838   C     0.12270   0.05877   0.20049   0.01267  Uiso   1.00
C839   C     0.16304   0.07008   0.24590   0.01267  Uiso   1.00
C840   C     0.15064   0.04543   0.27437   0.01267  Uiso   1.00
C841   C     0.09790   0.00946   0.25742   0.01267  Uiso   1.00
C842   C     0.05756   0.99815   0.21201   0.01267  Uiso   1.00
C843   C     0.93545   0.98301   0.08458   0.01267  Uiso   1.00
C844   C     0.94394   0.98543   0.04379   0.01267  Uiso   1.00
C845   C     0.99416   0.00118   0.04854   0.01267  Uiso   1.00
C846   C     0.03589   0.01451   0.09410   0.01267  Uiso   1.00
C847   C     0.02741   0.01210   0.13489   0.01267  Uiso   1.00
C848   C     0.97719   0.99634   0.13013   0.01267  Uiso   1.00
C849   C     0.77627   0.92428   0.06079   0.01267  Uiso   1.00
C850   C     0.79557   0.95774   0.04173   0.01267  Uiso   1.00
C851   C     0.84774   0.97847   0.05111   0.01267  Uiso   1.00
C852   C     0.88064   0.96575   0.07957   0.01267  Uiso   1.00
C853   C     0.86136   0.93229   0.09865   0.01267  Uiso   1.00
C854   C     0.80918   0.91155   0.08925   0.01267  Uiso   1.00
C855   C     0.06270   0.82431   0.38499   0.01267  Uiso   1.00
C856   C     0.07520   0.87485   0.41729   0.01267  Uiso   1.00
C857   C     0.11921   0.91958   0.42751   0.01267  Uiso   1.00
C858   C     0.15070   0.91376   0.40542   0.01267  Uiso   1.00
C859   C     0.13819   0.86322   0.37313   0.01267  Uiso   1.00
C860   C     0.09419   0.81849   0.36290   0.01267  Uiso   1.00
C861   C     0.92443   0.73506   0.36147   0.01267  Uiso   1.00
C862   C     0.96980   0.77941   0.37313   0.01267  Uiso   1.00
C863   C     0.01307   0.77572   0.37309   0.01267  Uiso   1.00
C864   C     0.01096   0.72767   0.36139   0.01267  Uiso   1.00
C865   C     0.96560   0.68333   0.34975   0.01267  Uiso   1.00
C866   C     0.92232   0.68702   0.34978   0.01267  Uiso   1.00
C867   C     0.92163   0.88473   0.41752   0.01267  Uiso   1.00
C868   C     0.88961   0.88592   0.37553   0.01267  Uiso   1.00
C869   C     0.85237   0.83910   0.32863   0.01267  Uiso   1.00
C870   C     0.84716   0.79109   0.32371   0.01267  Uiso   1.00
C871   C     0.87918   0.78990   0.36570   0.01267  Uiso   1.00
C872   C     0.91641   0.83672   0.41261   0.01267  Uiso   1.00
C873   C     0.96080   0.63050   0.33510   0.01267  Uiso   1.00
C874   C     0.19630   0.96350   0.41400   0.01267  Uiso   1.00
C875   C     0.71780   0.89790   0.04870   0.01267  Uiso   1.00
C876   C     0.74202   0.84122   0.20320   0.01267  Uiso   1.00
C877   C     0.75040   0.80400   0.19420   0.01267  Uiso   1.00
C878   C     0.81470   0.83930   0.28300   0.01267  Uiso   1.00
C879   C     0.80070   0.87800   0.29210   0.01267  Uiso   1.00
C880   C     0.76580   0.87630   0.25090   0.01267  Uiso   1.00
C881   C     0.70470   0.84090   0.15840   0.01267  Uiso   1.00
C882   C     0.95240   0.53090   0.30470   0.01267  Uiso   1.00
C883   C     0.91150   0.53600   0.27950   0.01267  Uiso   1.00
C884   C     0.91560   0.58540   0.29500   0.01267  Uiso   1.00
C885   C     0.00370   0.62520   0.35770   0.01267  Uiso   1.00
C886   C     0.99880   0.57630   0.34410   0.01267  Uiso   1.00
C887   C     0.94790   0.48000   0.29050   0.01267  Uiso   1.00
C888   C     0.02010   0.02910   0.52000   0.01267  Uiso   1.00
C889   C     0.02760   0.02800   0.56600   0.01267  Uiso   1.00
C890   C     0.06190   0.07610   0.61720   0.01267  Uiso   1.00
C891   C     0.95890   0.93440   0.46930   0.01267  Uiso   1.00
C892   C     0.96630   0.93310   0.51400   0.01267  Uiso   1.00
C893   C    -0.00000   0.97960   0.56200   0.01267  Uiso   1.00
C894   C     0.98780   0.98420   0.47280   0.01267  Uiso   1.00
C895   C     0.78780   0.80130   0.23570   0.01267  Uiso   1.00
C896   C     0.19390   0.05830   0.32340   0.01267  Uiso   1.00
O897   O     0.60900   0.87830   0.93190   0.01267  Uiso   1.00
O898   O     0.70235   0.86603   0.06248   0.01267  Uiso   1.00
O899   O     0.69388   0.91651   0.02855   0.01267  Uiso   1.00
O900   O     0.62679   0.89389   0.07858   0.01267  Uiso   1.00
O901   O     0.67752   0.80176   0.11412   0.01267  Uiso   1.00
O902   O     0.70130   0.88179   0.16745   0.01267  Uiso   1.00
O903   O     0.98651   0.47770   0.31689   0.01267  Uiso   1.00
O904   O     0.90600   0.43928   0.25200   0.01267  Uiso   1.00
O905   O     0.08544   0.12021   0.61865   0.01267  Uiso   1.00
O906   O     0.06529   0.07059   0.65582   0.01267  Uiso   1.00
O907   O     0.22593   0.95467   0.39700   0.01267  Uiso   1.00
O908   O     0.20029   0.00582   0.43489   0.01267  Uiso   1.00
O909   O     0.18049   0.04088   0.35125   0.01267  Uiso   1.00
O910   O     0.24010   0.07760   0.33150   0.01267  Uiso   1.00
H911   H     0.65901   0.92611   0.11080   0.01267  Uiso   1.00
H912   H     0.32092   0.36793   0.29040   0.00000  Uiso   1.00
C913   C     0.48730   0.12500   0.86230   0.01267  Uiso   1.00
C914   C     0.26270   0.62500   0.13770   0.01267  Uiso   1.00
C915   C     0.87500   0.73730   0.36230   0.01267  Uiso   1.00
C916   C     0.37500   0.51270   0.63770   0.01267  Uiso   1.00
C917   C     0.75000   0.25000   0.50000   0.01267  Uiso   1.00
C918   C     0.00000  -0.00000   0.00000   0.01267  Uiso   1.00
