data_image0
_cell_length_a       24.684
_cell_length_b       15.202
_cell_length_c       25.368
_cell_angle_alpha    90
_cell_angle_beta     97.78
_cell_angle_gamma    90

_symmetry_space_group_name_H-M    "P 1"
_symmetry_int_tables_number       1

loop_
  _symmetry_equiv_pos_as_xyz
  'x, y, z'

loop_
  _atom_site_label
  _atom_site_occupancy
  _atom_site_fract_x
  _atom_site_fract_y
  _atom_site_fract_z
  _atom_site_thermal_displace_type
  _atom_site_B_iso_or_equiv
  _atom_site_type_symbol
  Fe1      1.0000 0.15300  0.17319  0.15200  Biso   1.000  Fe
  Ni1      1.0000 0.22890  0.41505  0.27964  Biso   1.000  Ni
  N1       1.0000 0.10977  0.05330  0.05856  Biso   1.000  N
  N2       1.0000 0.06121  0.30660  0.11999  Biso   1.000  N
  N3       1.0000 0.22748  0.25180  0.07716  Biso   1.000  N
  N4       1.0000 0.19633  0.30050  0.24099  Biso   1.000  N
  N5       1.0000 0.07801  0.09410  0.22508  Biso   1.000  N
  N6       1.0000 0.23849  0.03180  0.18426  Biso   1.000  N
  N7       1.0000 0.29728  0.14010  0.01731  Biso   1.000  N
  H1       1.0000 0.31650  0.13150  0.99010  Biso   1.000  H
  N8       1.0000 0.18695  0.16280  0.97811  Biso   1.000  N
  H2       1.0000 0.16680  0.15920  0.00510  Biso   1.000  H
  N9       1.0000 0.25370  0.34950  0.35150  Biso   1.000  N
  H3       1.0000 0.27760  0.38470  0.37140  Biso   1.000  H
  N10      1.0000 0.19800  0.48420  0.20900  Biso   1.000  N
  H4       1.0000 0.17340  0.44940  0.18960  Biso   1.000  H
  N11      1.0000 0.15783  0.43070  0.31190  Biso   1.000  N
  H5       1.0000 0.13590  0.38760  0.29700  Biso   1.000  H
  N12      1.0000 0.29936  0.40410  0.24417  Biso   1.000  N
  H6       1.0000 0.32320  0.44580  0.25760  Biso   1.000  H
  C1       1.0000 0.18042  0.25160  0.20786  Biso   1.000  C
  C2       1.0000 0.12481  0.09920  0.09407  Biso   1.000  C
  C3       1.0000 0.10707  0.12010  0.19732  Biso   1.000  C
  C4       1.0000 0.09601  0.25670  0.13175  Biso   1.000  C
  C5       1.0000 0.19912  0.22560  0.10672  Biso   1.000  C
  C6       1.0000 0.20742  0.08750  0.17252  Biso   1.000  C
  C7       1.0000 0.21380  0.07750  0.97290  Biso   1.000  C
  H7       1.0000 0.18790  0.03070  0.97430  Biso   1.000  H
  H8       1.0000 0.22770  0.07420  0.93940  Biso   1.000  H
  C8       1.0000 0.25720  0.06590  0.01820  Biso   1.000  C
  H9       1.0000 0.24280  0.06490  0.05150  Biso   1.000  H
  H10      1.0000 0.27610  0.01150  0.01460  Biso   1.000  H
  C9       1.0000 0.14870  0.19350  0.93067  Biso   1.000  C
  H11      1.0000 0.16950  0.19510  0.90140  Biso   1.000  H
  H12      1.0000 0.12010  0.15100  0.92230  Biso   1.000  H
  C10      1.0000 0.33816  0.14760  0.06539  Biso   1.000  C
  H13      1.0000 0.35910  0.09430  0.07000  Biso   1.000  H
  H14      1.0000 0.31840  0.15350  0.09530  Biso   1.000  H
  C11      1.0000 0.16710  0.56580  0.22110  Biso   1.000  C
  H15      1.0000 0.15640  0.59500  0.18780  Biso   1.000  H
  H16      1.0000 0.19170  0.60340  0.24340  Biso   1.000  H
  C12      1.0000 0.24980  0.49840  0.17830  Biso   1.000  C
  H17      1.0000 0.26990  0.54990  0.19120  Biso   1.000  H
  H18      1.0000 0.23660  0.50600  0.14120  Biso   1.000  H
  C13      1.0000 0.28020  0.42510  0.18444  Biso   1.000  C
  H19      1.0000 0.25990  0.37560  0.16870  Biso   1.000  H
  H20      1.0000 0.31200  0.43210  0.16680  Biso   1.000  H
  C14      1.0000 0.32440  0.32360  0.25430  Biso   1.000  C
  H21      1.0000 0.35750  0.32160  0.23830  Biso   1.000  H
  H22      1.0000 0.30000  0.28100  0.23600  Biso   1.000  H
  C15      1.0000 0.28470  0.29230  0.33340  Biso   1.000  C
  H23      1.0000 0.25950  0.26420  0.30640  Biso   1.000  H
  H24      1.0000 0.29130  0.25080  0.36210  Biso   1.000  H
  C16      1.0000 0.20730  0.33510  0.37700  Biso   1.000  C
  H25      1.0000 0.21890  0.33180  0.41460  Biso   1.000  H
  H26      1.0000 0.18910  0.28100  0.36610  Biso   1.000  H
  C17      1.0000 0.17380  0.40220  0.37060  Biso   1.000  C
  H27      1.0000 0.14080  0.38620  0.38430  Biso   1.000  H
  H28      1.0000 0.18880  0.45220  0.39050  Biso   1.000  H
  C18      1.0000 0.12890  0.50060  0.29970  Biso   1.000  C
  H29      1.0000 0.14550  0.54560  0.32300  Biso   1.000  H
  H30      1.0000 0.09290  0.49080  0.30900  Biso   1.000  H
  N13      1.0000 0.02200  0.20150  0.30167  Biso   1.000  N
  H31      1.0000 0.99490  0.20890  0.32170  Biso   1.000  H
  C19      1.0000 0.02360  0.27890  0.26960  Biso   1.000  C
  H32      1.0000 0.05670  0.27980  0.25350  Biso   1.000  H
  H33      1.0000 0.02320  0.32950  0.29210  Biso   1.000  H
  N14      1.0000 0.02444  0.00300  0.30694  Biso   1.000  N
  H34      1.0000 0.99660  0.99830  0.32630  Biso   1.000  H
  C20      1.0000 0.02070  0.92580  0.27630  Biso   1.000  C
  H35      1.0000 0.01270  0.87700  0.29800  Biso   1.000  H
  H36      1.0000 0.05620  0.91580  0.26610  Biso   1.000  H
  C21      1.0000 0.07420  0.03330  0.34750  Biso   1.000  C
  H37      1.0000 0.10610  0.02880  0.32990  Biso   1.000  H
  H38      1.0000 0.07840  0.99180  0.37630  Biso   1.000  H
  C22      1.0000 0.07350  0.18880  0.33830  Biso   1.000  C
  H39      1.0000 0.07940  0.24020  0.36020  Biso   1.000  H
  H40      1.0000 0.10350  0.18430  0.31790  Biso   1.000  H
  N15      1.0000 0.07301  0.11720  0.36957  Biso   1.000  N
  C23      1.0000 0.03280  0.11660  0.40901  Biso   1.000  C
  H41      1.0000 0.99820  0.09830  0.39040  Biso   1.000  H
  H42      1.0000 0.02880  0.17690  0.41910  Biso   1.000  H
  C24      1.0000 0.04740  0.07220  0.45770  Biso   1.000  C
  O1       1.0000 0.09960  0.07480  0.47900  Biso   1.000  O
  O2       1.0000 0.05660  0.99160  0.45820  Biso   1.000  O
  N16      1.0000 0.12553  0.27910  0.93555  Biso   1.000  N
  C25      1.0000 0.09070  0.28340  0.97780  Biso   1.000  C
  H43      1.0000 0.11160  0.26580  0.01080  Biso   1.000  H
  H44      1.0000 0.08140  0.34430  0.98120  Biso   1.000  H
  C26      1.0000 0.04100  0.23170  0.96770  Biso   1.000  C
  O3       1.0000 0.01370  0.24550  0.91790  Biso   1.000  O
  N17      1.0000 0.12062  0.53740  0.24140  Biso   1.000  N
  C27      1.0000 0.07700  0.48920  0.20930  Biso   1.000  C
  C28      1.0000 0.04460  0.48780  0.15270  Biso   1.000  C
  O4       1.0000 0.03590  0.58130  0.15350  Biso   1.000  O
  N18      1.0000 0.33492  0.30290  0.31260  Biso   1.000  N
  C29      1.0000 0.36620  0.38460  0.32230  Biso   1.000  C
  C30      1.0000 0.10860  0.79720  0.16050  Biso   1.000  C
  C31      1.0000 0.41190  0.38060  0.37040  Biso   1.000  C
  O5       1.0000 0.46258  0.41750  0.39690  Biso   1.000  O
  Fe2      1.0000 0.65300  0.67319  0.15200  Biso   1.000  Fe
  Ni2      1.0000 0.72890  0.91505  0.27964  Biso   1.000  Ni
  N19      1.0000 0.60977  0.55330  0.05856  Biso   1.000  N
  N20      1.0000 0.56121  0.80660  0.11999  Biso   1.000  N
  N21      1.0000 0.72748  0.75180  0.07716  Biso   1.000  N
  N22      1.0000 0.69633  0.80050  0.24099  Biso   1.000  N
  N23      1.0000 0.57801  0.59410  0.22508  Biso   1.000  N
  N24      1.0000 0.73849  0.53180  0.18426  Biso   1.000  N
  N25      1.0000 0.79728  0.64010  0.01731  Biso   1.000  N
  H45      1.0000 0.81650  0.63150  0.99010  Biso   1.000  H
  N26      1.0000 0.68695  0.66280  0.97811  Biso   1.000  N
  H46      1.0000 0.66680  0.65920  0.00510  Biso   1.000  H
  N27      1.0000 0.75370  0.84950  0.35150  Biso   1.000  N
  H47      1.0000 0.77760  0.88470  0.37140  Biso   1.000  H
  N28      1.0000 0.69800  0.98420  0.20900  Biso   1.000  N
  H48      1.0000 0.67340  0.94940  0.18960  Biso   1.000  H
  N29      1.0000 0.65783  0.93070  0.31190  Biso   1.000  N
  H49      1.0000 0.63590  0.88760  0.29700  Biso   1.000  H
  N30      1.0000 0.79936  0.90410  0.24417  Biso   1.000  N
  H50      1.0000 0.82320  0.94580  0.25760  Biso   1.000  H
  C32      1.0000 0.68042  0.75160  0.20786  Biso   1.000  C
  C33      1.0000 0.62481  0.59920  0.09407  Biso   1.000  C
  C34      1.0000 0.60707  0.62010  0.19732  Biso   1.000  C
  C35      1.0000 0.59601  0.75670  0.13175  Biso   1.000  C
  C36      1.0000 0.69912  0.72560  0.10672  Biso   1.000  C
  C37      1.0000 0.70742  0.58750  0.17252  Biso   1.000  C
  C38      1.0000 0.71380  0.57750  0.97290  Biso   1.000  C
  H51      1.0000 0.68790  0.53070  0.97430  Biso   1.000  H
  H52      1.0000 0.72770  0.57420  0.93940  Biso   1.000  H
  C39      1.0000 0.75720  0.56590  0.01820  Biso   1.000  C
  H53      1.0000 0.74280  0.56490  0.05150  Biso   1.000  H
  H54      1.0000 0.77610  0.51150  0.01460  Biso   1.000  H
  C40      1.0000 0.64870  0.69350  0.93067  Biso   1.000  C
  H55      1.0000 0.66950  0.69510  0.90140  Biso   1.000  H
  H56      1.0000 0.62010  0.65100  0.92230  Biso   1.000  H
  C41      1.0000 0.83816  0.64760  0.06539  Biso   1.000  C
  H57      1.0000 0.85910  0.59430  0.07000  Biso   1.000  H
  H58      1.0000 0.81840  0.65350  0.09530  Biso   1.000  H
  C42      1.0000 0.66710  0.06580  0.22110  Biso   1.000  C
  H59      1.0000 0.65640  0.09500  0.18780  Biso   1.000  H
  H60      1.0000 0.69170  0.10340  0.24340  Biso   1.000  H
  C43      1.0000 0.74980  0.99840  0.17830  Biso   1.000  C
  H61      1.0000 0.76990  0.04990  0.19120  Biso   1.000  H
  H62      1.0000 0.73660  0.00600  0.14120  Biso   1.000  H
  C44      1.0000 0.78020  0.92510  0.18444  Biso   1.000  C
  H63      1.0000 0.75990  0.87560  0.16870  Biso   1.000  H
  H64      1.0000 0.81200  0.93210  0.16680  Biso   1.000  H
  C45      1.0000 0.82440  0.82360  0.25430  Biso   1.000  C
  H65      1.0000 0.85750  0.82160  0.23830  Biso   1.000  H
  H66      1.0000 0.80000  0.78100  0.23600  Biso   1.000  H
  C46      1.0000 0.78470  0.79230  0.33340  Biso   1.000  C
  H67      1.0000 0.75950  0.76420  0.30640  Biso   1.000  H
  H68      1.0000 0.79130  0.75080  0.36210  Biso   1.000  H
  C47      1.0000 0.70730  0.83510  0.37700  Biso   1.000  C
  H69      1.0000 0.71890  0.83180  0.41460  Biso   1.000  H
  H70      1.0000 0.68910  0.78100  0.36610  Biso   1.000  H
  C48      1.0000 0.67380  0.90220  0.37060  Biso   1.000  C
  H71      1.0000 0.64080  0.88620  0.38430  Biso   1.000  H
  H72      1.0000 0.68880  0.95220  0.39050  Biso   1.000  H
  C49      1.0000 0.62890  0.00060  0.29970  Biso   1.000  C
  H73      1.0000 0.64550  0.04560  0.32300  Biso   1.000  H
  H74      1.0000 0.59290  0.99080  0.30900  Biso   1.000  H
  N31      1.0000 0.52200  0.70150  0.30167  Biso   1.000  N
  H75      1.0000 0.49490  0.70890  0.32170  Biso   1.000  H
  C50      1.0000 0.52360  0.77890  0.26960  Biso   1.000  C
  H76      1.0000 0.55670  0.77980  0.25350  Biso   1.000  H
  H77      1.0000 0.52320  0.82950  0.29210  Biso   1.000  H
  N32      1.0000 0.52444  0.50300  0.30694  Biso   1.000  N
  H78      1.0000 0.49660  0.49830  0.32630  Biso   1.000  H
  C51      1.0000 0.52070  0.42580  0.27630  Biso   1.000  C
  H79      1.0000 0.51270  0.37700  0.29800  Biso   1.000  H
  H80      1.0000 0.55620  0.41580  0.26610  Biso   1.000  H
  C52      1.0000 0.57420  0.53330  0.34750  Biso   1.000  C
  H81      1.0000 0.60610  0.52880  0.32990  Biso   1.000  H
  H82      1.0000 0.57840  0.49180  0.37630  Biso   1.000  H
  C53      1.0000 0.57350  0.68880  0.33830  Biso   1.000  C
  H83      1.0000 0.57940  0.74020  0.36020  Biso   1.000  H
  H84      1.0000 0.60350  0.68430  0.31790  Biso   1.000  H
  N33      1.0000 0.57301  0.61720  0.36957  Biso   1.000  N
  C54      1.0000 0.53280  0.61660  0.40901  Biso   1.000  C
  H85      1.0000 0.49820  0.59830  0.39040  Biso   1.000  H
  H86      1.0000 0.52880  0.67690  0.41910  Biso   1.000  H
  C55      1.0000 0.54740  0.57220  0.45770  Biso   1.000  C
  O6       1.0000 0.59960  0.57480  0.47900  Biso   1.000  O
  O7       1.0000 0.55660  0.49160  0.45820  Biso   1.000  O
  N34      1.0000 0.62553  0.77910  0.93555  Biso   1.000  N
  C56      1.0000 0.59070  0.78340  0.97780  Biso   1.000  C
  H87      1.0000 0.61160  0.76580  0.01080  Biso   1.000  H
  H88      1.0000 0.58140  0.84430  0.98120  Biso   1.000  H
  C57      1.0000 0.54100  0.73170  0.96770  Biso   1.000  C
  O8       1.0000 0.51370  0.74550  0.91790  Biso   1.000  O
  N35      1.0000 0.62062  0.03740  0.24140  Biso   1.000  N
  C58      1.0000 0.57700  0.98920  0.20930  Biso   1.000  C
  C59      1.0000 0.54460  0.98780  0.15270  Biso   1.000  C
  O9       1.0000 0.53590  0.08130  0.15350  Biso   1.000  O
  N36      1.0000 0.83492  0.80290  0.31260  Biso   1.000  N
  C60      1.0000 0.86620  0.88460  0.32230  Biso   1.000  C
  C61      1.0000 0.60860  0.29720  0.16050  Biso   1.000  C
  C62      1.0000 0.91190  0.88060  0.37040  Biso   1.000  C
  O10      1.0000 0.96258  0.91750  0.39690  Biso   1.000  O
  Fe3      1.0000 0.84700  0.17319  0.34800  Biso   1.000  Fe
  Ni3      1.0000 0.77110  0.41505  0.22036  Biso   1.000  Ni
  N37      1.0000 0.89023  0.05330  0.44144  Biso   1.000  N
  N38      1.0000 0.93879  0.30660  0.38001  Biso   1.000  N
  N39      1.0000 0.77252  0.25180  0.42284  Biso   1.000  N
  N40      1.0000 0.80367  0.30050  0.25901  Biso   1.000  N
  N41      1.0000 0.92199  0.09410  0.27492  Biso   1.000  N
  N42      1.0000 0.76151  0.03180  0.31574  Biso   1.000  N
  N43      1.0000 0.70272  0.14010  0.48269  Biso   1.000  N
  H89      1.0000 0.68350  0.13150  0.50990  Biso   1.000  H
  N44      1.0000 0.81305  0.16280  0.52189  Biso   1.000  N
  H90      1.0000 0.83320  0.15920  0.49490  Biso   1.000  H
  N45      1.0000 0.74630  0.34950  0.14850  Biso   1.000  N
  H91      1.0000 0.72240  0.38470  0.12860  Biso   1.000  H
  N46      1.0000 0.80200  0.48420  0.29100  Biso   1.000  N
  H92      1.0000 0.82660  0.44940  0.31040  Biso   1.000  H
  N47      1.0000 0.84217  0.43070  0.18810  Biso   1.000  N
  H93      1.0000 0.86410  0.38760  0.20300  Biso   1.000  H
  N48      1.0000 0.70064  0.40410  0.25583  Biso   1.000  N
  H94      1.0000 0.67680  0.44580  0.24240  Biso   1.000  H
  C63      1.0000 0.81958  0.25160  0.29214  Biso   1.000  C
  C64      1.0000 0.87519  0.09920  0.40593  Biso   1.000  C
  C65      1.0000 0.89293  0.12010  0.30268  Biso   1.000  C
  C66      1.0000 0.90399  0.25670  0.36825  Biso   1.000  C
  C67      1.0000 0.80088  0.22560  0.39328  Biso   1.000  C
  C68      1.0000 0.79258  0.08750  0.32748  Biso   1.000  C
  C69      1.0000 0.78620  0.07750  0.52710  Biso   1.000  C
  H95      1.0000 0.81210  0.03070  0.52570  Biso   1.000  H
  H96      1.0000 0.77230  0.07420  0.56060  Biso   1.000  H
  C70      1.0000 0.74280  0.06590  0.48180  Biso   1.000  C
  H97      1.0000 0.75720  0.06490  0.44850  Biso   1.000  H
  H98      1.0000 0.72390  0.01150  0.48540  Biso   1.000  H
  C71      1.0000 0.85130  0.19350  0.56933  Biso   1.000  C
  H99      1.0000 0.83050  0.19510  0.59860  Biso   1.000  H
  H100     1.0000 0.87990  0.15100  0.57770  Biso   1.000  H
  C72      1.0000 0.66184  0.14760  0.43461  Biso   1.000  C
  H101     1.0000 0.64090  0.09430  0.43000  Biso   1.000  H
  H102     1.0000 0.68160  0.15350  0.40470  Biso   1.000  H
  C73      1.0000 0.83290  0.56580  0.27890  Biso   1.000  C
  H103     1.0000 0.84360  0.59500  0.31220  Biso   1.000  H
  H104     1.0000 0.80830  0.60340  0.25660  Biso   1.000  H
  C74      1.0000 0.75020  0.49840  0.32170  Biso   1.000  C
  H105     1.0000 0.73010  0.54990  0.30880  Biso   1.000  H
  H106     1.0000 0.76340  0.50600  0.35880  Biso   1.000  H
  C75      1.0000 0.71980  0.42510  0.31556  Biso   1.000  C
  H107     1.0000 0.74010  0.37560  0.33130  Biso   1.000  H
  H108     1.0000 0.68800  0.43210  0.33320  Biso   1.000  H
  C76      1.0000 0.67560  0.32360  0.24570  Biso   1.000  C
  H109     1.0000 0.64250  0.32160  0.26170  Biso   1.000  H
  H110     1.0000 0.70000  0.28100  0.26400  Biso   1.000  H
  C77      1.0000 0.71530  0.29230  0.16660  Biso   1.000  C
  H111     1.0000 0.74050  0.26420  0.19360  Biso   1.000  H
  H112     1.0000 0.70870  0.25080  0.13790  Biso   1.000  H
  C78      1.0000 0.79270  0.33510  0.12300  Biso   1.000  C
  H113     1.0000 0.78110  0.33180  0.08540  Biso   1.000  H
  H114     1.0000 0.81090  0.28100  0.13390  Biso   1.000  H
  C79      1.0000 0.82620  0.40220  0.12940  Biso   1.000  C
  H115     1.0000 0.85920  0.38620  0.11570  Biso   1.000  H
  H116     1.0000 0.81120  0.45220  0.10950  Biso   1.000  H
  C80      1.0000 0.87110  0.50060  0.20030  Biso   1.000  C
  H117     1.0000 0.85450  0.54560  0.17700  Biso   1.000  H
  H118     1.0000 0.90710  0.49080  0.19100  Biso   1.000  H
  N49      1.0000 0.97800  0.20150  0.19833  Biso   1.000  N
  H119     1.0000 0.00510  0.20890  0.17830  Biso   1.000  H
  C81      1.0000 0.97640  0.27890  0.23040  Biso   1.000  C
  H120     1.0000 0.94330  0.27980  0.24650  Biso   1.000  H
  H121     1.0000 0.97680  0.32950  0.20790  Biso   1.000  H
  N50      1.0000 0.97556  0.00300  0.19306  Biso   1.000  N
  H122     1.0000 0.00340  0.99830  0.17370  Biso   1.000  H
  C82      1.0000 0.97930  0.92580  0.22370  Biso   1.000  C
  H123     1.0000 0.98730  0.87700  0.20200  Biso   1.000  H
  H124     1.0000 0.94380  0.91580  0.23390  Biso   1.000  H
  C83      1.0000 0.92580  0.03330  0.15250  Biso   1.000  C
  H125     1.0000 0.89390  0.02880  0.17010  Biso   1.000  H
  H126     1.0000 0.92160  0.99180  0.12370  Biso   1.000  H
  C84      1.0000 0.92650  0.18880  0.16170  Biso   1.000  C
  H127     1.0000 0.92060  0.24020  0.13980  Biso   1.000  H
  H128     1.0000 0.89650  0.18430  0.18210  Biso   1.000  H
  N51      1.0000 0.92699  0.11720  0.13043  Biso   1.000  N
  C85      1.0000 0.96720  0.11660  0.09099  Biso   1.000  C
  H129     1.0000 0.00180  0.09830  0.10960  Biso   1.000  H
  H130     1.0000 0.97120  0.17690  0.08090  Biso   1.000  H
  C86      1.0000 0.95260  0.07220  0.04230  Biso   1.000  C
  O11      1.0000 0.90040  0.07480  0.02100  Biso   1.000  O
  O12      1.0000 0.94340  0.99160  0.04180  Biso   1.000  O
  N52      1.0000 0.87447  0.27910  0.56445  Biso   1.000  N
  C87      1.0000 0.90930  0.28340  0.52220  Biso   1.000  C
  H131     1.0000 0.88840  0.26580  0.48920  Biso   1.000  H
  H132     1.0000 0.91860  0.34430  0.51880  Biso   1.000  H
  C88      1.0000 0.95900  0.23170  0.53230  Biso   1.000  C
  O13      1.0000 0.98630  0.24550  0.58210  Biso   1.000  O
  N53      1.0000 0.87938  0.53740  0.25860  Biso   1.000  N
  C89      1.0000 0.92300  0.48920  0.29070  Biso   1.000  C
  C90      1.0000 0.95540  0.48780  0.34730  Biso   1.000  C
  O14      1.0000 0.96410  0.58130  0.34650  Biso   1.000  O
  N54      1.0000 0.66508  0.30290  0.18740  Biso   1.000  N
  C91      1.0000 0.63380  0.38460  0.17770  Biso   1.000  C
  C92      1.0000 0.89140  0.79720  0.33950  Biso   1.000  C
  C93      1.0000 0.58810  0.38060  0.12960  Biso   1.000  C
  O15      1.0000 0.53742  0.41750  0.10310  Biso   1.000  O
  Fe4      1.0000 0.34700  0.67319  0.34800  Biso   1.000  Fe
  Ni4      1.0000 0.27110  0.91505  0.22036  Biso   1.000  Ni
  N55      1.0000 0.39023  0.55330  0.44144  Biso   1.000  N
  N56      1.0000 0.43879  0.80660  0.38001  Biso   1.000  N
  N57      1.0000 0.27252  0.75180  0.42284  Biso   1.000  N
  N58      1.0000 0.30367  0.80050  0.25901  Biso   1.000  N
  N59      1.0000 0.42199  0.59410  0.27492  Biso   1.000  N
  N60      1.0000 0.26151  0.53180  0.31574  Biso   1.000  N
  N61      1.0000 0.20272  0.64010  0.48269  Biso   1.000  N
  H133     1.0000 0.18350  0.63150  0.50990  Biso   1.000  H
  N62      1.0000 0.31305  0.66280  0.52189  Biso   1.000  N
  H134     1.0000 0.33320  0.65920  0.49490  Biso   1.000  H
  N63      1.0000 0.24630  0.84950  0.14850  Biso   1.000  N
  H135     1.0000 0.22240  0.88470  0.12860  Biso   1.000  H
  N64      1.0000 0.30200  0.98420  0.29100  Biso   1.000  N
  H136     1.0000 0.32660  0.94940  0.31040  Biso   1.000  H
  N65      1.0000 0.34217  0.93070  0.18810  Biso   1.000  N
  H137     1.0000 0.36410  0.88760  0.20300  Biso   1.000  H
  N66      1.0000 0.20064  0.90410  0.25583  Biso   1.000  N
  H138     1.0000 0.17680  0.94580  0.24240  Biso   1.000  H
  C94      1.0000 0.31958  0.75160  0.29214  Biso   1.000  C
  C95      1.0000 0.37519  0.59920  0.40593  Biso   1.000  C
  C96      1.0000 0.39293  0.62010  0.30268  Biso   1.000  C
  C97      1.0000 0.40399  0.75670  0.36825  Biso   1.000  C
  C98      1.0000 0.30088  0.72560  0.39328  Biso   1.000  C
  C99      1.0000 0.29258  0.58750  0.32748  Biso   1.000  C
  C100     1.0000 0.28620  0.57750  0.52710  Biso   1.000  C
  H139     1.0000 0.31210  0.53070  0.52570  Biso   1.000  H
  H140     1.0000 0.27230  0.57420  0.56060  Biso   1.000  H
  C101     1.0000 0.24280  0.56590  0.48180  Biso   1.000  C
  H141     1.0000 0.25720  0.56490  0.44850  Biso   1.000  H
  H142     1.0000 0.22390  0.51150  0.48540  Biso   1.000  H
  C102     1.0000 0.35130  0.69350  0.56933  Biso   1.000  C
  H143     1.0000 0.33050  0.69510  0.59860  Biso   1.000  H
  H144     1.0000 0.37990  0.65100  0.57770  Biso   1.000  H
  C103     1.0000 0.16184  0.64760  0.43461  Biso   1.000  C
  H145     1.0000 0.14090  0.59430  0.43000  Biso   1.000  H
  H146     1.0000 0.18160  0.65350  0.40470  Biso   1.000  H
  C104     1.0000 0.33290  0.06580  0.27890  Biso   1.000  C
  H147     1.0000 0.34360  0.09500  0.31220  Biso   1.000  H
  H148     1.0000 0.30830  0.10340  0.25660  Biso   1.000  H
  C105     1.0000 0.25020  0.99840  0.32170  Biso   1.000  C
  H149     1.0000 0.23010  0.04990  0.30880  Biso   1.000  H
  H150     1.0000 0.26340  0.00600  0.35880  Biso   1.000  H
  C106     1.0000 0.21980  0.92510  0.31556  Biso   1.000  C
  H151     1.0000 0.24010  0.87560  0.33130  Biso   1.000  H
  H152     1.0000 0.18800  0.93210  0.33320  Biso   1.000  H
  C107     1.0000 0.17560  0.82360  0.24570  Biso   1.000  C
  H153     1.0000 0.14250  0.82160  0.26170  Biso   1.000  H
  H154     1.0000 0.20000  0.78100  0.26400  Biso   1.000  H
  C108     1.0000 0.21530  0.79230  0.16660  Biso   1.000  C
  H155     1.0000 0.24050  0.76420  0.19360  Biso   1.000  H
  H156     1.0000 0.20870  0.75080  0.13790  Biso   1.000  H
  C109     1.0000 0.29270  0.83510  0.12300  Biso   1.000  C
  H157     1.0000 0.28110  0.83180  0.08540  Biso   1.000  H
  H158     1.0000 0.31090  0.78100  0.13390  Biso   1.000  H
  C110     1.0000 0.32620  0.90220  0.12940  Biso   1.000  C
  H159     1.0000 0.35920  0.88620  0.11570  Biso   1.000  H
  H160     1.0000 0.31120  0.95220  0.10950  Biso   1.000  H
  C111     1.0000 0.37110  0.00060  0.20030  Biso   1.000  C
  H161     1.0000 0.35450  0.04560  0.17700  Biso   1.000  H
  H162     1.0000 0.40710  0.99080  0.19100  Biso   1.000  H
  N67      1.0000 0.47800  0.70150  0.19833  Biso   1.000  N
  H163     1.0000 0.50510  0.70890  0.17830  Biso   1.000  H
  C112     1.0000 0.47640  0.77890  0.23040  Biso   1.000  C
  H164     1.0000 0.44330  0.77980  0.24650  Biso   1.000  H
  H165     1.0000 0.47680  0.82950  0.20790  Biso   1.000  H
  N68      1.0000 0.47556  0.50300  0.19306  Biso   1.000  N
  H166     1.0000 0.50340  0.49830  0.17370  Biso   1.000  H
  C113     1.0000 0.47930  0.42580  0.22370  Biso   1.000  C
  H167     1.0000 0.48730  0.37700  0.20200  Biso   1.000  H
  H168     1.0000 0.44380  0.41580  0.23390  Biso   1.000  H
  C114     1.0000 0.42580  0.53330  0.15250  Biso   1.000  C
  H169     1.0000 0.39390  0.52880  0.17010  Biso   1.000  H
  H170     1.0000 0.42160  0.49180  0.12370  Biso   1.000  H
  C115     1.0000 0.42650  0.68880  0.16170  Biso   1.000  C
  H171     1.0000 0.42060  0.74020  0.13980  Biso   1.000  H
  H172     1.0000 0.39650  0.68430  0.18210  Biso   1.000  H
  N69      1.0000 0.42699  0.61720  0.13043  Biso   1.000  N
  C116     1.0000 0.46720  0.61660  0.09099  Biso   1.000  C
  H173     1.0000 0.50180  0.59830  0.10960  Biso   1.000  H
  H174     1.0000 0.47120  0.67690  0.08090  Biso   1.000  H
  C117     1.0000 0.45260  0.57220  0.04230  Biso   1.000  C
  O16      1.0000 0.40040  0.57480  0.02100  Biso   1.000  O
  O17      1.0000 0.44340  0.49160  0.04180  Biso   1.000  O
  N70      1.0000 0.37447  0.77910  0.56445  Biso   1.000  N
  C118     1.0000 0.40930  0.78340  0.52220  Biso   1.000  C
  H175     1.0000 0.38840  0.76580  0.48920  Biso   1.000  H
  H176     1.0000 0.41860  0.84430  0.51880  Biso   1.000  H
  C119     1.0000 0.45900  0.73170  0.53230  Biso   1.000  C
  O18      1.0000 0.48630  0.74550  0.58210  Biso   1.000  O
  N71      1.0000 0.37938  0.03740  0.25860  Biso   1.000  N
  C120     1.0000 0.42300  0.98920  0.29070  Biso   1.000  C
  C121     1.0000 0.45540  0.98780  0.34730  Biso   1.000  C
  O19      1.0000 0.46410  0.08130  0.34650  Biso   1.000  O
  N72      1.0000 0.16508  0.80290  0.18740  Biso   1.000  N
  C122     1.0000 0.13380  0.88460  0.17770  Biso   1.000  C
  C123     1.0000 0.39140  0.29720  0.33950  Biso   1.000  C
  C124     1.0000 0.08810  0.88060  0.12960  Biso   1.000  C
  O20      1.0000 0.03742  0.91750  0.10310  Biso   1.000  O
  Fe5      1.0000 0.84700  0.82681  0.84800  Biso   1.000  Fe
  Ni5      1.0000 0.77110  0.58495  0.72036  Biso   1.000  Ni
  N73      1.0000 0.89023  0.94670  0.94144  Biso   1.000  N
  N74      1.0000 0.93879  0.69340  0.88001  Biso   1.000  N
  N75      1.0000 0.77252  0.74820  0.92284  Biso   1.000  N
  N76      1.0000 0.80367  0.69950  0.75901  Biso   1.000  N
  N77      1.0000 0.92199  0.90590  0.77492  Biso   1.000  N
  N78      1.0000 0.76151  0.96820  0.81574  Biso   1.000  N
  N79      1.0000 0.70272  0.85990  0.98269  Biso   1.000  N
  H177     1.0000 0.68350  0.86850  0.00990  Biso   1.000  H
  N80      1.0000 0.81305  0.83720  0.02189  Biso   1.000  N
  H178     1.0000 0.83320  0.84080  0.99490  Biso   1.000  H
  N81      1.0000 0.74630  0.65050  0.64850  Biso   1.000  N
  H179     1.0000 0.72240  0.61530  0.62860  Biso   1.000  H
  N82      1.0000 0.80200  0.51580  0.79100  Biso   1.000  N
  H180     1.0000 0.82660  0.55060  0.81040  Biso   1.000  H
  N83      1.0000 0.84217  0.56930  0.68810  Biso   1.000  N
  H181     1.0000 0.86410  0.61240  0.70300  Biso   1.000  H
  N84      1.0000 0.70064  0.59590  0.75583  Biso   1.000  N
  H182     1.0000 0.67680  0.55420  0.74240  Biso   1.000  H
  C125     1.0000 0.81958  0.74840  0.79214  Biso   1.000  C
  C126     1.0000 0.87519  0.90080  0.90593  Biso   1.000  C
  C127     1.0000 0.89293  0.87990  0.80268  Biso   1.000  C
  C128     1.0000 0.90399  0.74330  0.86825  Biso   1.000  C
  C129     1.0000 0.80088  0.77440  0.89328  Biso   1.000  C
  C130     1.0000 0.79258  0.91250  0.82748  Biso   1.000  C
  C131     1.0000 0.78620  0.92250  0.02710  Biso   1.000  C
  H183     1.0000 0.81210  0.96930  0.02570  Biso   1.000  H
  H184     1.0000 0.77230  0.92580  0.06060  Biso   1.000  H
  C132     1.0000 0.74280  0.93410  0.98180  Biso   1.000  C
  H185     1.0000 0.75720  0.93510  0.94850  Biso   1.000  H
  H186     1.0000 0.72390  0.98850  0.98540  Biso   1.000  H
  C133     1.0000 0.85130  0.80650  0.06933  Biso   1.000  C
  H187     1.0000 0.83050  0.80490  0.09860  Biso   1.000  H
  H188     1.0000 0.87990  0.84900  0.07770  Biso   1.000  H
  C134     1.0000 0.66184  0.85240  0.93461  Biso   1.000  C
  H189     1.0000 0.64090  0.90570  0.93000  Biso   1.000  H
  H190     1.0000 0.68160  0.84650  0.90470  Biso   1.000  H
  C135     1.0000 0.83290  0.43420  0.77890  Biso   1.000  C
  H191     1.0000 0.84360  0.40500  0.81220  Biso   1.000  H
  H192     1.0000 0.80830  0.39660  0.75660  Biso   1.000  H
  C136     1.0000 0.75020  0.50160  0.82170  Biso   1.000  C
  H193     1.0000 0.73010  0.45010  0.80880  Biso   1.000  H
  H194     1.0000 0.76340  0.49400  0.85880  Biso   1.000  H
  C137     1.0000 0.71980  0.57490  0.81556  Biso   1.000  C
  H195     1.0000 0.74010  0.62440  0.83130  Biso   1.000  H
  H196     1.0000 0.68800  0.56790  0.83320  Biso   1.000  H
  C138     1.0000 0.67560  0.67640  0.74570  Biso   1.000  C
  H197     1.0000 0.64250  0.67840  0.76170  Biso   1.000  H
  H198     1.0000 0.70000  0.71900  0.76400  Biso   1.000  H
  C139     1.0000 0.71530  0.70770  0.66660  Biso   1.000  C
  H199     1.0000 0.74050  0.73580  0.69360  Biso   1.000  H
  H200     1.0000 0.70870  0.74920  0.63790  Biso   1.000  H
  C140     1.0000 0.79270  0.66490  0.62300  Biso   1.000  C
  H201     1.0000 0.78110  0.66820  0.58540  Biso   1.000  H
  H202     1.0000 0.81090  0.71900  0.63390  Biso   1.000  H
  C141     1.0000 0.82620  0.59780  0.62940  Biso   1.000  C
  H203     1.0000 0.85920  0.61380  0.61570  Biso   1.000  H
  H204     1.0000 0.81120  0.54780  0.60950  Biso   1.000  H
  C142     1.0000 0.87110  0.49940  0.70030  Biso   1.000  C
  H205     1.0000 0.85450  0.45440  0.67700  Biso   1.000  H
  H206     1.0000 0.90710  0.50920  0.69100  Biso   1.000  H
  N85      1.0000 0.97800  0.79850  0.69833  Biso   1.000  N
  H207     1.0000 0.00510  0.79110  0.67830  Biso   1.000  H
  C143     1.0000 0.97640  0.72110  0.73040  Biso   1.000  C
  H208     1.0000 0.94330  0.72020  0.74650  Biso   1.000  H
  H209     1.0000 0.97680  0.67050  0.70790  Biso   1.000  H
  N86      1.0000 0.97556  0.99700  0.69306  Biso   1.000  N
  H210     1.0000 0.00340  0.00170  0.67370  Biso   1.000  H
  C144     1.0000 0.97930  0.07420  0.72370  Biso   1.000  C
  H211     1.0000 0.98730  0.12300  0.70200  Biso   1.000  H
  H212     1.0000 0.94380  0.08420  0.73390  Biso   1.000  H
  C145     1.0000 0.92580  0.96670  0.65250  Biso   1.000  C
  H213     1.0000 0.89390  0.97120  0.67010  Biso   1.000  H
  H214     1.0000 0.92160  0.00820  0.62370  Biso   1.000  H
  C146     1.0000 0.92650  0.81120  0.66170  Biso   1.000  C
  H215     1.0000 0.92060  0.75980  0.63980  Biso   1.000  H
  H216     1.0000 0.89650  0.81570  0.68210  Biso   1.000  H
  N87      1.0000 0.92699  0.88280  0.63043  Biso   1.000  N
  C147     1.0000 0.96720  0.88340  0.59099  Biso   1.000  C
  H217     1.0000 0.00180  0.90170  0.60960  Biso   1.000  H
  H218     1.0000 0.97120  0.82310  0.58090  Biso   1.000  H
  C148     1.0000 0.95260  0.92780  0.54230  Biso   1.000  C
  O21      1.0000 0.90040  0.92520  0.52100  Biso   1.000  O
  O22      1.0000 0.94340  0.00840  0.54180  Biso   1.000  O
  N88      1.0000 0.87447  0.72090  0.06445  Biso   1.000  N
  C149     1.0000 0.90930  0.71660  0.02220  Biso   1.000  C
  H219     1.0000 0.88840  0.73420  0.98920  Biso   1.000  H
  H220     1.0000 0.91860  0.65570  0.01880  Biso   1.000  H
  C150     1.0000 0.95900  0.76830  0.03230  Biso   1.000  C
  O23      1.0000 0.98630  0.75450  0.08210  Biso   1.000  O
  N89      1.0000 0.87938  0.46260  0.75860  Biso   1.000  N
  C151     1.0000 0.92300  0.51080  0.79070  Biso   1.000  C
  C152     1.0000 0.95540  0.51220  0.84730  Biso   1.000  C
  O24      1.0000 0.96410  0.41870  0.84650  Biso   1.000  O
  N90      1.0000 0.66508  0.69710  0.68740  Biso   1.000  N
  C153     1.0000 0.63380  0.61540  0.67770  Biso   1.000  C
  C154     1.0000 0.89140  0.20280  0.83950  Biso   1.000  C
  C155     1.0000 0.58810  0.61940  0.62960  Biso   1.000  C
  O25      1.0000 0.53742  0.58250  0.60310  Biso   1.000  O
  Fe6      1.0000 0.34700  0.32681  0.84800  Biso   1.000  Fe
  Ni6      1.0000 0.27110  0.08495  0.72036  Biso   1.000  Ni
  N91      1.0000 0.39023  0.44670  0.94144  Biso   1.000  N
  N92      1.0000 0.43879  0.19340  0.88001  Biso   1.000  N
  N93      1.0000 0.27252  0.24820  0.92284  Biso   1.000  N
  N94      1.0000 0.30367  0.19950  0.75901  Biso   1.000  N
  N95      1.0000 0.42199  0.40590  0.77492  Biso   1.000  N
  N96      1.0000 0.26151  0.46820  0.81574  Biso   1.000  N
  N97      1.0000 0.20272  0.35990  0.98269  Biso   1.000  N
  H221     1.0000 0.18350  0.36850  0.00990  Biso   1.000  H
  N98      1.0000 0.31305  0.33720  0.02189  Biso   1.000  N
  H222     1.0000 0.33320  0.34080  0.99490  Biso   1.000  H
  N99      1.0000 0.24630  0.15050  0.64850  Biso   1.000  N
  H223     1.0000 0.22240  0.11530  0.62860  Biso   1.000  H
  N100     1.0000 0.30200  0.01580  0.79100  Biso   1.000  N
  H224     1.0000 0.32660  0.05060  0.81040  Biso   1.000  H
  N101     1.0000 0.34217  0.06930  0.68810  Biso   1.000  N
  H225     1.0000 0.36410  0.11240  0.70300  Biso   1.000  H
  N102     1.0000 0.20064  0.09590  0.75583  Biso   1.000  N
  H226     1.0000 0.17680  0.05420  0.74240  Biso   1.000  H
  C156     1.0000 0.31958  0.24840  0.79214  Biso   1.000  C
  C157     1.0000 0.37519  0.40080  0.90593  Biso   1.000  C
  C158     1.0000 0.39293  0.37990  0.80268  Biso   1.000  C
  C159     1.0000 0.40399  0.24330  0.86825  Biso   1.000  C
  C160     1.0000 0.30088  0.27440  0.89328  Biso   1.000  C
  C161     1.0000 0.29258  0.41250  0.82748  Biso   1.000  C
  C162     1.0000 0.28620  0.42250  0.02710  Biso   1.000  C
  H227     1.0000 0.31210  0.46930  0.02570  Biso   1.000  H
  H228     1.0000 0.27230  0.42580  0.06060  Biso   1.000  H
  C163     1.0000 0.24280  0.43410  0.98180  Biso   1.000  C
  H229     1.0000 0.25720  0.43510  0.94850  Biso   1.000  H
  H230     1.0000 0.22390  0.48850  0.98540  Biso   1.000  H
  C164     1.0000 0.35130  0.30650  0.06933  Biso   1.000  C
  H231     1.0000 0.33050  0.30490  0.09860  Biso   1.000  H
  H232     1.0000 0.37990  0.34900  0.07770  Biso   1.000  H
  C165     1.0000 0.16184  0.35240  0.93461  Biso   1.000  C
  H233     1.0000 0.14090  0.40570  0.93000  Biso   1.000  H
  H234     1.0000 0.18160  0.34650  0.90470  Biso   1.000  H
  C166     1.0000 0.33290  0.93420  0.77890  Biso   1.000  C
  H235     1.0000 0.34360  0.90500  0.81220  Biso   1.000  H
  H236     1.0000 0.30830  0.89660  0.75660  Biso   1.000  H
  C167     1.0000 0.25020  0.00160  0.82170  Biso   1.000  C
  H237     1.0000 0.23010  0.95010  0.80880  Biso   1.000  H
  H238     1.0000 0.26340  0.99400  0.85880  Biso   1.000  H
  C168     1.0000 0.21980  0.07490  0.81556  Biso   1.000  C
  H239     1.0000 0.24010  0.12440  0.83130  Biso   1.000  H
  H240     1.0000 0.18800  0.06790  0.83320  Biso   1.000  H
  C169     1.0000 0.17560  0.17640  0.74570  Biso   1.000  C
  H241     1.0000 0.14250  0.17840  0.76170  Biso   1.000  H
  H242     1.0000 0.20000  0.21900  0.76400  Biso   1.000  H
  C170     1.0000 0.21530  0.20770  0.66660  Biso   1.000  C
  H243     1.0000 0.24050  0.23580  0.69360  Biso   1.000  H
  H244     1.0000 0.20870  0.24920  0.63790  Biso   1.000  H
  C171     1.0000 0.29270  0.16490  0.62300  Biso   1.000  C
  H245     1.0000 0.28110  0.16820  0.58540  Biso   1.000  H
  H246     1.0000 0.31090  0.21900  0.63390  Biso   1.000  H
  C172     1.0000 0.32620  0.09780  0.62940  Biso   1.000  C
  H247     1.0000 0.35920  0.11380  0.61570  Biso   1.000  H
  H248     1.0000 0.31120  0.04780  0.60950  Biso   1.000  H
  C173     1.0000 0.37110  0.99940  0.70030  Biso   1.000  C
  H249     1.0000 0.35450  0.95440  0.67700  Biso   1.000  H
  H250     1.0000 0.40710  0.00920  0.69100  Biso   1.000  H
  N103     1.0000 0.47800  0.29850  0.69833  Biso   1.000  N
  H251     1.0000 0.50510  0.29110  0.67830  Biso   1.000  H
  C174     1.0000 0.47640  0.22110  0.73040  Biso   1.000  C
  H252     1.0000 0.44330  0.22020  0.74650  Biso   1.000  H
  H253     1.0000 0.47680  0.17050  0.70790  Biso   1.000  H
  N104     1.0000 0.47556  0.49700  0.69306  Biso   1.000  N
  H254     1.0000 0.50340  0.50170  0.67370  Biso   1.000  H
  C175     1.0000 0.47930  0.57420  0.72370  Biso   1.000  C
  H255     1.0000 0.48730  0.62300  0.70200  Biso   1.000  H
  H256     1.0000 0.44380  0.58420  0.73390  Biso   1.000  H
  C176     1.0000 0.42580  0.46670  0.65250  Biso   1.000  C
  H257     1.0000 0.39390  0.47120  0.67010  Biso   1.000  H
  H258     1.0000 0.42160  0.50820  0.62370  Biso   1.000  H
  C177     1.0000 0.42650  0.31120  0.66170  Biso   1.000  C
  H259     1.0000 0.42060  0.25980  0.63980  Biso   1.000  H
  H260     1.0000 0.39650  0.31570  0.68210  Biso   1.000  H
  N105     1.0000 0.42699  0.38280  0.63043  Biso   1.000  N
  C178     1.0000 0.46720  0.38340  0.59099  Biso   1.000  C
  H261     1.0000 0.50180  0.40170  0.60960  Biso   1.000  H
  H262     1.0000 0.47120  0.32310  0.58090  Biso   1.000  H
  C179     1.0000 0.45260  0.42780  0.54230  Biso   1.000  C
  O26      1.0000 0.40040  0.42520  0.52100  Biso   1.000  O
  O27      1.0000 0.44340  0.50840  0.54180  Biso   1.000  O
  N106     1.0000 0.37447  0.22090  0.06445  Biso   1.000  N
  C180     1.0000 0.40930  0.21660  0.02220  Biso   1.000  C
  H263     1.0000 0.38840  0.23420  0.98920  Biso   1.000  H
  H264     1.0000 0.41860  0.15570  0.01880  Biso   1.000  H
  C181     1.0000 0.45900  0.26830  0.03230  Biso   1.000  C
  O28      1.0000 0.48630  0.25450  0.08210  Biso   1.000  O
  N107     1.0000 0.37938  0.96260  0.75860  Biso   1.000  N
  C182     1.0000 0.42300  0.01080  0.79070  Biso   1.000  C
  C183     1.0000 0.45540  0.01220  0.84730  Biso   1.000  C
  O29      1.0000 0.46410  0.91870  0.84650  Biso   1.000  O
  N108     1.0000 0.16508  0.19710  0.68740  Biso   1.000  N
  C184     1.0000 0.13380  0.11540  0.67770  Biso   1.000  C
  C185     1.0000 0.39140  0.70280  0.83950  Biso   1.000  C
  C186     1.0000 0.08810  0.11940  0.62960  Biso   1.000  C
  O30      1.0000 0.03742  0.08250  0.60310  Biso   1.000  O
  Fe7      1.0000 0.15300  0.82681  0.65200  Biso   1.000  Fe
  Ni7      1.0000 0.22890  0.58495  0.77964  Biso   1.000  Ni
  N109     1.0000 0.10977  0.94670  0.55856  Biso   1.000  N
  N110     1.0000 0.06121  0.69340  0.61999  Biso   1.000  N
  N111     1.0000 0.22748  0.74820  0.57716  Biso   1.000  N
  N112     1.0000 0.19633  0.69950  0.74099  Biso   1.000  N
  N113     1.0000 0.07801  0.90590  0.72508  Biso   1.000  N
  N114     1.0000 0.23849  0.96820  0.68426  Biso   1.000  N
  N115     1.0000 0.29728  0.85990  0.51731  Biso   1.000  N
  H265     1.0000 0.31650  0.86850  0.49010  Biso   1.000  H
  N116     1.0000 0.18695  0.83720  0.47811  Biso   1.000  N
  H266     1.0000 0.16680  0.84080  0.50510  Biso   1.000  H
  N117     1.0000 0.25370  0.65050  0.85150  Biso   1.000  N
  H267     1.0000 0.27760  0.61530  0.87140  Biso   1.000  H
  N118     1.0000 0.19800  0.51580  0.70900  Biso   1.000  N
  H268     1.0000 0.17340  0.55060  0.68960  Biso   1.000  H
  N119     1.0000 0.15783  0.56930  0.81190  Biso   1.000  N
  H269     1.0000 0.13590  0.61240  0.79700  Biso   1.000  H
  N120     1.0000 0.29936  0.59590  0.74417  Biso   1.000  N
  H270     1.0000 0.32320  0.55420  0.75760  Biso   1.000  H
  C187     1.0000 0.18042  0.74840  0.70786  Biso   1.000  C
  C188     1.0000 0.12481  0.90080  0.59407  Biso   1.000  C
  C189     1.0000 0.10707  0.87990  0.69732  Biso   1.000  C
  C190     1.0000 0.09601  0.74330  0.63175  Biso   1.000  C
  C191     1.0000 0.19912  0.77440  0.60672  Biso   1.000  C
  C192     1.0000 0.20742  0.91250  0.67252  Biso   1.000  C
  C193     1.0000 0.21380  0.92250  0.47290  Biso   1.000  C
  H271     1.0000 0.18790  0.96930  0.47430  Biso   1.000  H
  H272     1.0000 0.22770  0.92580  0.43940  Biso   1.000  H
  C194     1.0000 0.25720  0.93410  0.51820  Biso   1.000  C
  H273     1.0000 0.24280  0.93510  0.55150  Biso   1.000  H
  H274     1.0000 0.27610  0.98850  0.51460  Biso   1.000  H
  C195     1.0000 0.14870  0.80650  0.43067  Biso   1.000  C
  H275     1.0000 0.16950  0.80490  0.40140  Biso   1.000  H
  H276     1.0000 0.12010  0.84900  0.42230  Biso   1.000  H
  C196     1.0000 0.33816  0.85240  0.56539  Biso   1.000  C
  H277     1.0000 0.35910  0.90570  0.57000  Biso   1.000  H
  H278     1.0000 0.31840  0.84650  0.59530  Biso   1.000  H
  C197     1.0000 0.16710  0.43420  0.72110  Biso   1.000  C
  H279     1.0000 0.15640  0.40500  0.68780  Biso   1.000  H
  H280     1.0000 0.19170  0.39660  0.74340  Biso   1.000  H
  C198     1.0000 0.24980  0.50160  0.67830  Biso   1.000  C
  H281     1.0000 0.26990  0.45010  0.69120  Biso   1.000  H
  H282     1.0000 0.23660  0.49400  0.64120  Biso   1.000  H
  C199     1.0000 0.28020  0.57490  0.68444  Biso   1.000  C
  H283     1.0000 0.25990  0.62440  0.66870  Biso   1.000  H
  H284     1.0000 0.31200  0.56790  0.66680  Biso   1.000  H
  C200     1.0000 0.32440  0.67640  0.75430  Biso   1.000  C
  H285     1.0000 0.35750  0.67840  0.73830  Biso   1.000  H
  H286     1.0000 0.30000  0.71900  0.73600  Biso   1.000  H
  C201     1.0000 0.28470  0.70770  0.83340  Biso   1.000  C
  H287     1.0000 0.25950  0.73580  0.80640  Biso   1.000  H
  H288     1.0000 0.29130  0.74920  0.86210  Biso   1.000  H
  C202     1.0000 0.20730  0.66490  0.87700  Biso   1.000  C
  H289     1.0000 0.21890  0.66820  0.91460  Biso   1.000  H
  H290     1.0000 0.18910  0.71900  0.86610  Biso   1.000  H
  C203     1.0000 0.17380  0.59780  0.87060  Biso   1.000  C
  H291     1.0000 0.14080  0.61380  0.88430  Biso   1.000  H
  H292     1.0000 0.18880  0.54780  0.89050  Biso   1.000  H
  C204     1.0000 0.12890  0.49940  0.79970  Biso   1.000  C
  H293     1.0000 0.14550  0.45440  0.82300  Biso   1.000  H
  H294     1.0000 0.09290  0.50920  0.80900  Biso   1.000  H
  N121     1.0000 0.02200  0.79850  0.80167  Biso   1.000  N
  H295     1.0000 0.99490  0.79110  0.82170  Biso   1.000  H
  C205     1.0000 0.02360  0.72110  0.76960  Biso   1.000  C
  H296     1.0000 0.05670  0.72020  0.75350  Biso   1.000  H
  H297     1.0000 0.02320  0.67050  0.79210  Biso   1.000  H
  N122     1.0000 0.02444  0.99700  0.80694  Biso   1.000  N
  H298     1.0000 0.99660  0.00170  0.82630  Biso   1.000  H
  C206     1.0000 0.02070  0.07420  0.77630  Biso   1.000  C
  H299     1.0000 0.01270  0.12300  0.79800  Biso   1.000  H
  H300     1.0000 0.05620  0.08420  0.76610  Biso   1.000  H
  C207     1.0000 0.07420  0.96670  0.84750  Biso   1.000  C
  H301     1.0000 0.10610  0.97120  0.82990  Biso   1.000  H
  H302     1.0000 0.07840  0.00820  0.87630  Biso   1.000  H
  C208     1.0000 0.07350  0.81120  0.83830  Biso   1.000  C
  H303     1.0000 0.07940  0.75980  0.86020  Biso   1.000  H
  H304     1.0000 0.10350  0.81570  0.81790  Biso   1.000  H
  N123     1.0000 0.07301  0.88280  0.86957  Biso   1.000  N
  C209     1.0000 0.03280  0.88340  0.90901  Biso   1.000  C
  H305     1.0000 0.99820  0.90170  0.89040  Biso   1.000  H
  H306     1.0000 0.02880  0.82310  0.91910  Biso   1.000  H
  C210     1.0000 0.04740  0.92780  0.95770  Biso   1.000  C
  O31      1.0000 0.09960  0.92520  0.97900  Biso   1.000  O
  O32      1.0000 0.05660  0.00840  0.95820  Biso   1.000  O
  N124     1.0000 0.12553  0.72090  0.43555  Biso   1.000  N
  C211     1.0000 0.09070  0.71660  0.47780  Biso   1.000  C
  H307     1.0000 0.11160  0.73420  0.51080  Biso   1.000  H
  H308     1.0000 0.08140  0.65570  0.48120  Biso   1.000  H
  C212     1.0000 0.04100  0.76830  0.46770  Biso   1.000  C
  O33      1.0000 0.01370  0.75450  0.41790  Biso   1.000  O
  N125     1.0000 0.12062  0.46260  0.74140  Biso   1.000  N
  C213     1.0000 0.07700  0.51080  0.70930  Biso   1.000  C
  C214     1.0000 0.04460  0.51220  0.65270  Biso   1.000  C
  O34      1.0000 0.03590  0.41870  0.65350  Biso   1.000  O
  N126     1.0000 0.33492  0.69710  0.81260  Biso   1.000  N
  C215     1.0000 0.36620  0.61540  0.82230  Biso   1.000  C
  C216     1.0000 0.10860  0.20280  0.66050  Biso   1.000  C
  C217     1.0000 0.41190  0.61940  0.87040  Biso   1.000  C
  O35      1.0000 0.46258  0.58250  0.89690  Biso   1.000  O
  Fe8      1.0000 0.65300  0.32681  0.65200  Biso   1.000  Fe
  Ni8      1.0000 0.72890  0.08495  0.77964  Biso   1.000  Ni
  N127     1.0000 0.60977  0.44670  0.55856  Biso   1.000  N
  N128     1.0000 0.56121  0.19340  0.61999  Biso   1.000  N
  N129     1.0000 0.72748  0.24820  0.57716  Biso   1.000  N
  N130     1.0000 0.69633  0.19950  0.74099  Biso   1.000  N
  N131     1.0000 0.57801  0.40590  0.72508  Biso   1.000  N
  N132     1.0000 0.73849  0.46820  0.68426  Biso   1.000  N
  N133     1.0000 0.79728  0.35990  0.51731  Biso   1.000  N
  H309     1.0000 0.81650  0.36850  0.49010  Biso   1.000  H
  N134     1.0000 0.68695  0.33720  0.47811  Biso   1.000  N
  H310     1.0000 0.66680  0.34080  0.50510  Biso   1.000  H
  N135     1.0000 0.75370  0.15050  0.85150  Biso   1.000  N
  H311     1.0000 0.77760  0.11530  0.87140  Biso   1.000  H
  N136     1.0000 0.69800  0.01580  0.70900  Biso   1.000  N
  H312     1.0000 0.67340  0.05060  0.68960  Biso   1.000  H
  N137     1.0000 0.65783  0.06930  0.81190  Biso   1.000  N
  H313     1.0000 0.63590  0.11240  0.79700  Biso   1.000  H
  N138     1.0000 0.79936  0.09590  0.74417  Biso   1.000  N
  H314     1.0000 0.82320  0.05420  0.75760  Biso   1.000  H
  C218     1.0000 0.68042  0.24840  0.70786  Biso   1.000  C
  C219     1.0000 0.62481  0.40080  0.59407  Biso   1.000  C
  C220     1.0000 0.60707  0.37990  0.69732  Biso   1.000  C
  C221     1.0000 0.59601  0.24330  0.63175  Biso   1.000  C
  C222     1.0000 0.69912  0.27440  0.60672  Biso   1.000  C
  C223     1.0000 0.70742  0.41250  0.67252  Biso   1.000  C
  C224     1.0000 0.71380  0.42250  0.47290  Biso   1.000  C
  H315     1.0000 0.68790  0.46930  0.47430  Biso   1.000  H
  H316     1.0000 0.72770  0.42580  0.43940  Biso   1.000  H
  C225     1.0000 0.75720  0.43410  0.51820  Biso   1.000  C
  H317     1.0000 0.74280  0.43510  0.55150  Biso   1.000  H
  H318     1.0000 0.77610  0.48850  0.51460  Biso   1.000  H
  C226     1.0000 0.64870  0.30650  0.43067  Biso   1.000  C
  H319     1.0000 0.66950  0.30490  0.40140  Biso   1.000  H
  H320     1.0000 0.62010  0.34900  0.42230  Biso   1.000  H
  C227     1.0000 0.83816  0.35240  0.56539  Biso   1.000  C
  H321     1.0000 0.85910  0.40570  0.57000  Biso   1.000  H
  H322     1.0000 0.81840  0.34650  0.59530  Biso   1.000  H
  C228     1.0000 0.66710  0.93420  0.72110  Biso   1.000  C
  H323     1.0000 0.65640  0.90500  0.68780  Biso   1.000  H
  H324     1.0000 0.69170  0.89660  0.74340  Biso   1.000  H
  C229     1.0000 0.74980  0.00160  0.67830  Biso   1.000  C
  H325     1.0000 0.76990  0.95010  0.69120  Biso   1.000  H
  H326     1.0000 0.73660  0.99400  0.64120  Biso   1.000  H
  C230     1.0000 0.78020  0.07490  0.68444  Biso   1.000  C
  H327     1.0000 0.75990  0.12440  0.66870  Biso   1.000  H
  H328     1.0000 0.81200  0.06790  0.66680  Biso   1.000  H
  C231     1.0000 0.82440  0.17640  0.75430  Biso   1.000  C
  H329     1.0000 0.85750  0.17840  0.73830  Biso   1.000  H
  H330     1.0000 0.80000  0.21900  0.73600  Biso   1.000  H
  C232     1.0000 0.78470  0.20770  0.83340  Biso   1.000  C
  H331     1.0000 0.75950  0.23580  0.80640  Biso   1.000  H
  H332     1.0000 0.79130  0.24920  0.86210  Biso   1.000  H
  C233     1.0000 0.70730  0.16490  0.87700  Biso   1.000  C
  H333     1.0000 0.71890  0.16820  0.91460  Biso   1.000  H
  H334     1.0000 0.68910  0.21900  0.86610  Biso   1.000  H
  C234     1.0000 0.67380  0.09780  0.87060  Biso   1.000  C
  H335     1.0000 0.64080  0.11380  0.88430  Biso   1.000  H
  H336     1.0000 0.68880  0.04780  0.89050  Biso   1.000  H
  C235     1.0000 0.62890  0.99940  0.79970  Biso   1.000  C
  H337     1.0000 0.64550  0.95440  0.82300  Biso   1.000  H
  H338     1.0000 0.59290  0.00920  0.80900  Biso   1.000  H
  N139     1.0000 0.52200  0.29850  0.80167  Biso   1.000  N
  H339     1.0000 0.49490  0.29110  0.82170  Biso   1.000  H
  C236     1.0000 0.52360  0.22110  0.76960  Biso   1.000  C
  H340     1.0000 0.55670  0.22020  0.75350  Biso   1.000  H
  H341     1.0000 0.52320  0.17050  0.79210  Biso   1.000  H
  N140     1.0000 0.52444  0.49700  0.80694  Biso   1.000  N
  H342     1.0000 0.49660  0.50170  0.82630  Biso   1.000  H
  C237     1.0000 0.52070  0.57420  0.77630  Biso   1.000  C
  H343     1.0000 0.51270  0.62300  0.79800  Biso   1.000  H
  H344     1.0000 0.55620  0.58420  0.76610  Biso   1.000  H
  C238     1.0000 0.57420  0.46670  0.84750  Biso   1.000  C
  H345     1.0000 0.60610  0.47120  0.82990  Biso   1.000  H
  H346     1.0000 0.57840  0.50820  0.87630  Biso   1.000  H
  C239     1.0000 0.57350  0.31120  0.83830  Biso   1.000  C
  H347     1.0000 0.57940  0.25980  0.86020  Biso   1.000  H
  H348     1.0000 0.60350  0.31570  0.81790  Biso   1.000  H
  N141     1.0000 0.57301  0.38280  0.86957  Biso   1.000  N
  C240     1.0000 0.53280  0.38340  0.90901  Biso   1.000  C
  H349     1.0000 0.49820  0.40170  0.89040  Biso   1.000  H
  H350     1.0000 0.52880  0.32310  0.91910  Biso   1.000  H
  C241     1.0000 0.54740  0.42780  0.95770  Biso   1.000  C
  O36      1.0000 0.59960  0.42520  0.97900  Biso   1.000  O
  O37      1.0000 0.55660  0.50840  0.95820  Biso   1.000  O
  N142     1.0000 0.62553  0.22090  0.43555  Biso   1.000  N
  C242     1.0000 0.59070  0.21660  0.47780  Biso   1.000  C
  H351     1.0000 0.61160  0.23420  0.51080  Biso   1.000  H
  H352     1.0000 0.58140  0.15570  0.48120  Biso   1.000  H
  C243     1.0000 0.54100  0.26830  0.46770  Biso   1.000  C
  O38      1.0000 0.51370  0.25450  0.41790  Biso   1.000  O
  N143     1.0000 0.62062  0.96260  0.74140  Biso   1.000  N
  C244     1.0000 0.57700  0.01080  0.70930  Biso   1.000  C
  C245     1.0000 0.54460  0.01220  0.65270  Biso   1.000  C
  O39      1.0000 0.53590  0.91870  0.65350  Biso   1.000  O
  N144     1.0000 0.83492  0.19710  0.81260  Biso   1.000  N
  C246     1.0000 0.86620  0.11540  0.82230  Biso   1.000  C
  C247     1.0000 0.60860  0.70280  0.66050  Biso   1.000  C
  C248     1.0000 0.91190  0.11940  0.87040  Biso   1.000  C
  O40      1.0000 0.96258  0.08250  0.89690  Biso   1.000  O
  Ni9      1.0000 0.25000  0.25000  0.00000  Biso   1.000  Ni
  Ni10     1.0000 0.75000  0.25000  0.50000  Biso   1.000  Ni
  Ni11     1.0000 0.75000  0.75000  0.00000  Biso   1.000  Ni
  Ni12     1.0000 0.25000  0.75000  0.50000  Biso   1.000  Ni
  Ni13     1.0000 0.00000  0.09533  0.25000  Biso   1.000  Ni
  Ni14     1.0000 0.50000  0.59533  0.25000  Biso   1.000  Ni
  Ni15     1.0000 0.00000  0.90467  0.75000  Biso   1.000  Ni
  Ni16     1.0000 0.50000  0.40467  0.75000  Biso   1.000  Ni
