data_image0
_cell_length_a       21.56
_cell_length_b       21.56
_cell_length_c       77.814
_cell_angle_alpha    90
_cell_angle_beta     90
_cell_angle_gamma    120

_symmetry_space_group_name_H-M    P 1
_symmetry_int_tables_number       1

loop_
  _symmetry_equiv_pos_as_xyz
  'x, y, z'

loop_
  _atom_site_label
  _atom_site_occupancy
  _atom_site_fract_x
  _atom_site_fract_y
  _atom_site_fract_z
  _atom_site_thermal_displace_type
  _atom_site_B_iso_or_equiv
  _atom_site_type_symbol
  Zn1      1.0000 0.76984  0.41138  0.85447  Biso   1.000  Zn
  Zn2      1.0000 0.67251  0.32728  0.88536  Biso   1.000  Zn
  Zn3      1.0000 0.67205  0.24165  0.85311  Biso   1.000  Zn
  Zn4      1.0000 0.59794  0.34059  0.85149  Biso   1.000  Zn
  Zn5      1.0000 0.64154  0.23016  0.18780  Biso   1.000  Zn
  Zn6      1.0000 0.65477  0.32749  0.21869  Biso   1.000  Zn
  Zn7      1.0000 0.56960  0.32795  0.18644  Biso   1.000  Zn
  Zn8      1.0000 0.74265  0.40206  0.18482  Biso   1.000  Zn
  Zn9      1.0000 0.58862  0.35846  0.52114  Biso   1.000  Zn
  Zn10     1.0000 0.67272  0.34523  0.55202  Biso   1.000  Zn
  Zn11     1.0000 0.75835  0.43040  0.51977  Biso   1.000  Zn
  Zn12     1.0000 0.65941  0.25735  0.51815  Biso   1.000  Zn
  Zn13     1.0000 0.23016  0.58862  0.35447  Biso   1.000  Zn
  Zn14     1.0000 0.32749  0.67272  0.38536  Biso   1.000  Zn
  Zn15     1.0000 0.32795  0.75835  0.35311  Biso   1.000  Zn
  Zn16     1.0000 0.40206  0.65941  0.35149  Biso   1.000  Zn
  Zn17     1.0000 0.35846  0.76984  0.68780  Biso   1.000  Zn
  Zn18     1.0000 0.34523  0.67251  0.71869  Biso   1.000  Zn
  Zn19     1.0000 0.43040  0.67205  0.68644  Biso   1.000  Zn
  Zn20     1.0000 0.25735  0.59794  0.68482  Biso   1.000  Zn
  Zn21     1.0000 0.41138  0.64154  0.02114  Biso   1.000  Zn
  Zn22     1.0000 0.32728  0.65477  0.05202  Biso   1.000  Zn
  Zn23     1.0000 0.24165  0.56960  0.01977  Biso   1.000  Zn
  Zn24     1.0000 0.34059  0.74265  0.01815  Biso   1.000  Zn
  H1       1.0000 0.79380  0.47310  0.92240  Biso   1.000  H
  H2       1.0000 0.03020  0.63130  0.90720  Biso   1.000  H
  H3       1.0000 0.95150  0.55290  0.88660  Biso   1.000  H
  H4       1.0000 0.84040  0.52360  0.95510  Biso   1.000  H
  H5       1.0000 0.84850  0.59750  0.94920  Biso   1.000  H
  H6       1.0000 0.00200  0.69880  0.93930  Biso   1.000  H
  H7       1.0000 0.04690  0.65980  0.94220  Biso   1.000  H
  H8       1.0000 0.99450  0.54800  0.95690  Biso   1.000  H
  H9       1.0000 0.93430  0.52310  0.97110  Biso   1.000  H
  H10      1.0000 0.96800  0.70990  0.96750  Biso   1.000  H
  H11      1.0000 0.91510  0.64570  0.97950  Biso   1.000  H
  H12      1.0000 0.08620  0.56510  0.98440  Biso   1.000  H
  H13      1.0000 0.14440  0.74650  0.00970  Biso   1.000  H
  H14      1.0000 0.05690  0.76100  0.99550  Biso   1.000  H
  H15      1.0000 0.92150  0.41650  0.81720  Biso   1.000  H
  H16      1.0000 0.92390  0.20020  0.81720  Biso   1.000  H
  H17      1.0000 0.84080  0.21110  0.83330  Biso   1.000  H
  H18      1.0000 0.01170  0.44410  0.78850  Biso   1.000  H
  H19      1.0000 0.06940  0.45440  0.80250  Biso   1.000  H
  H20      1.0000 0.08330  0.33180  0.80540  Biso   1.000  H
  H21      1.0000 0.03350  0.27090  0.79230  Biso   1.000  H
  H22      1.0000 0.15440  0.45840  0.78620  Biso   1.000  H
  H23      1.0000 0.15090  0.38850  0.77870  Biso   1.000  H
  H24      1.0000 0.95920  0.34200  0.77090  Biso   1.000  H
  H25      1.0000 0.99650  0.29690  0.76660  Biso   1.000  H
  H26      1.0000 0.21610  0.51710  0.75350  Biso   1.000  H
  H27      1.0000 0.06920  0.46180  0.71630  Biso   1.000  H
  H28      1.0000 0.98170  0.38020  0.73390  Biso   1.000  H
  H29      1.0000 0.60300  0.48740  0.82940  Biso   1.000  H
  H30      1.0000 0.80370  0.68410  0.80530  Biso   1.000  H
  H31      1.0000 0.81400  0.60570  0.82340  Biso   1.000  H
  H32      1.0000 0.53290  0.50450  0.80030  Biso   1.000  H
  H33      1.0000 0.53980  0.57000  0.81080  Biso   1.000  H
  H34      1.0000 0.69630  0.68180  0.78250  Biso   1.000  H
  H35      1.0000 0.66230  0.70220  0.79790  Biso   1.000  H
  H36      1.0000 0.49120  0.59560  0.78510  Biso   1.000  H
  H37      1.0000 0.55640  0.67460  0.78590  Biso   1.000  H
  H38      1.0000 0.64500  0.57210  0.77110  Biso   1.000  H
  H39      1.0000 0.56350  0.51250  0.77230  Biso   1.000  H
  H40      1.0000 0.48440  0.67380  0.75520  Biso   1.000  H
  H41      1.0000 0.55680  0.60200  0.71620  Biso   1.000  H
  H42      1.0000 0.60630  0.56390  0.73530  Biso   1.000  H
  H43      1.0000 0.38740  0.41610  0.83240  Biso   1.000  H
  H44      1.0000 0.44840  0.41300  0.82210  Biso   1.000  H
  H45      1.0000 0.46520  0.45240  0.83990  Biso   1.000  H
  H46      1.0000 0.30970  0.33000  0.84540  Biso   1.000  H
  H47      1.0000 0.33410  0.30570  0.86180  Biso   1.000  H
  H48      1.0000 0.30800  0.25640  0.84550  Biso   1.000  H
  H49      1.0000 0.67930  0.20620  0.25573  Biso   1.000  H
  H50      1.0000 0.60110  0.96980  0.24053  Biso   1.000  H
  H51      1.0000 0.60140  0.04850  0.21993  Biso   1.000  H
  H52      1.0000 0.68320  0.15960  0.28843  Biso   1.000  H
  H53      1.0000 0.74900  0.15150  0.28253  Biso   1.000  H
  H54      1.0000 0.69680  0.99800  0.27263  Biso   1.000  H
  H55      1.0000 0.61290  0.95310  0.27553  Biso   1.000  H
  H56      1.0000 0.55350  0.00550  0.29023  Biso   1.000  H
  H57      1.0000 0.58880  0.06570  0.30443  Biso   1.000  H
  H58      1.0000 0.74190  0.03200  0.30083  Biso   1.000  H
  H59      1.0000 0.73060  0.08490  0.31283  Biso   1.000  H
  H60      1.0000 0.47890  0.91380  0.31773  Biso   1.000  H
  H61      1.0000 0.60210  0.85560  0.34303  Biso   1.000  H
  H62      1.0000 0.70410  0.94310  0.32883  Biso   1.000  H
  H63      1.0000 0.49500  0.07850  0.15053  Biso   1.000  H
  H64      1.0000 0.27630  0.07610  0.15053  Biso   1.000  H
  H65      1.0000 0.37030  0.15920  0.16663  Biso   1.000  H
  H66      1.0000 0.43240  0.98830  0.12183  Biso   1.000  H
  H67      1.0000 0.38500  0.93060  0.13583  Biso   1.000  H
  H68      1.0000 0.24850  0.91670  0.13873  Biso   1.000  H
  H69      1.0000 0.23740  0.96650  0.12563  Biso   1.000  H
  H70      1.0000 0.30400  0.84560  0.11953  Biso   1.000  H
  H71      1.0000 0.23760  0.84910  0.11203  Biso   1.000  H
  H72      1.0000 0.38280  0.04080  0.10423  Biso   1.000  H
  H73      1.0000 0.30040  0.00350  0.09993  Biso   1.000  H
  H74      1.0000 0.30100  0.78390  0.08683  Biso   1.000  H
  H75      1.0000 0.39260  0.93080  0.04963  Biso   1.000  H
  H76      1.0000 0.39850  0.01830  0.06723  Biso   1.000  H
  H77      1.0000 0.88440  0.39700  0.16273  Biso   1.000  H
  H78      1.0000 0.88040  0.19630  0.13863  Biso   1.000  H
  H79      1.0000 0.79170  0.18600  0.15673  Biso   1.000  H
  H80      1.0000 0.97160  0.46710  0.13363  Biso   1.000  H
  H81      1.0000 0.03020  0.46020  0.14413  Biso   1.000  H
  H82      1.0000 0.98550  0.30370  0.11583  Biso   1.000  H
  H83      1.0000 0.03990  0.33770  0.13123  Biso   1.000  H
  H84      1.0000 0.10440  0.50880  0.11843  Biso   1.000  H
  H85      1.0000 0.11820  0.44360  0.11923  Biso   1.000  H
  H86      1.0000 0.92710  0.35500  0.10443  Biso   1.000  H
  H87      1.0000 0.94900  0.43650  0.10563  Biso   1.000  H
  H88      1.0000 0.18940  0.51560  0.08853  Biso   1.000  H
  H89      1.0000 0.04520  0.44320  0.04953  Biso   1.000  H
  H90      1.0000 0.95760  0.39370  0.06863  Biso   1.000  H
  H91      1.0000 0.02870  0.61260  0.16573  Biso   1.000  H
  H92      1.0000 0.96460  0.55160  0.15543  Biso   1.000  H
  H93      1.0000 0.98720  0.53480  0.17323  Biso   1.000  H
  H94      1.0000 0.02030  0.69030  0.17873  Biso   1.000  H
  H95      1.0000 0.97160  0.66590  0.19513  Biso   1.000  H
  H96      1.0000 0.94840  0.69200  0.17883  Biso   1.000  H
  H97      1.0000 0.52690  0.32070  0.58907  Biso   1.000  H
  H98      1.0000 0.36870  0.39890  0.57387  Biso   1.000  H
  H99      1.0000 0.44710  0.39860  0.55327  Biso   1.000  H
  H100     1.0000 0.47640  0.31680  0.62177  Biso   1.000  H
  H101     1.0000 0.40250  0.25100  0.61587  Biso   1.000  H
  H102     1.0000 0.30120  0.30320  0.60597  Biso   1.000  H
  H103     1.0000 0.34020  0.38710  0.60887  Biso   1.000  H
  H104     1.0000 0.45200  0.44650  0.62357  Biso   1.000  H
  H105     1.0000 0.47690  0.41120  0.63777  Biso   1.000  H
  H106     1.0000 0.29010  0.25810  0.63417  Biso   1.000  H
  H107     1.0000 0.35430  0.26940  0.64617  Biso   1.000  H
  H108     1.0000 0.43490  0.52110  0.65107  Biso   1.000  H
  H109     1.0000 0.25350  0.39790  0.67637  Biso   1.000  H
  H110     1.0000 0.23900  0.29590  0.66217  Biso   1.000  H
  H111     1.0000 0.58350  0.50500  0.48387  Biso   1.000  H
  H112     1.0000 0.79980  0.72370  0.48387  Biso   1.000  H
  H113     1.0000 0.78890  0.62970  0.49997  Biso   1.000  H
  H114     1.0000 0.55590  0.56760  0.45517  Biso   1.000  H
  H115     1.0000 0.54560  0.61500  0.46917  Biso   1.000  H
  H116     1.0000 0.66820  0.75150  0.47207  Biso   1.000  H
  H117     1.0000 0.72910  0.76260  0.45897  Biso   1.000  H
  H118     1.0000 0.54160  0.69600  0.45287  Biso   1.000  H
  H119     1.0000 0.61150  0.76240  0.44537  Biso   1.000  H
  H120     1.0000 0.65800  0.61720  0.43757  Biso   1.000  H
  H121     1.0000 0.70310  0.69960  0.43327  Biso   1.000  H
  H122     1.0000 0.48290  0.69900  0.42017  Biso   1.000  H
  H123     1.0000 0.53820  0.60740  0.38297  Biso   1.000  H
  H124     1.0000 0.61980  0.60150  0.40057  Biso   1.000  H
  H125     1.0000 0.51260  0.11560  0.49607  Biso   1.000  H
  H126     1.0000 0.31590  0.11960  0.47197  Biso   1.000  H
  H127     1.0000 0.39430  0.20830  0.49007  Biso   1.000  H
  H128     1.0000 0.49550  0.02840  0.46697  Biso   1.000  H
  H129     1.0000 0.43000  0.96980  0.47747  Biso   1.000  H
  H130     1.0000 0.31820  0.01450  0.44917  Biso   1.000  H
  H131     1.0000 0.29780  0.96010  0.46457  Biso   1.000  H
  H132     1.0000 0.40440  0.89560  0.45177  Biso   1.000  H
  H133     1.0000 0.32540  0.88180  0.45257  Biso   1.000  H
  H134     1.0000 0.42790  0.07290  0.43777  Biso   1.000  H
  H135     1.0000 0.48750  0.05100  0.43897  Biso   1.000  H
  H136     1.0000 0.32620  0.81060  0.42187  Biso   1.000  H
  H137     1.0000 0.39800  0.95480  0.38287  Biso   1.000  H
  H138     1.0000 0.43610  0.04240  0.40197  Biso   1.000  H
  H139     1.0000 0.58390  0.97130  0.49907  Biso   1.000  H
  H140     1.0000 0.58700  0.03540  0.48877  Biso   1.000  H
  H141     1.0000 0.54760  0.01280  0.50657  Biso   1.000  H
  H142     1.0000 0.67000  0.97970  0.51207  Biso   1.000  H
  H143     1.0000 0.69430  0.02840  0.52847  Biso   1.000  H
  H144     1.0000 0.74360  0.05160  0.51217  Biso   1.000  H
  H145     1.0000 0.20620  0.52690  0.42240  Biso   1.000  H
  H146     1.0000 0.96980  0.36870  0.40720  Biso   1.000  H
  H147     1.0000 0.04850  0.44710  0.38660  Biso   1.000  H
  H148     1.0000 0.15960  0.47640  0.45510  Biso   1.000  H
  H149     1.0000 0.15150  0.40250  0.44920  Biso   1.000  H
  H150     1.0000 0.99800  0.30120  0.43930  Biso   1.000  H
  H151     1.0000 0.95310  0.34020  0.44220  Biso   1.000  H
  H152     1.0000 0.00550  0.45200  0.45690  Biso   1.000  H
  H153     1.0000 0.06570  0.47690  0.47110  Biso   1.000  H
  H154     1.0000 0.03200  0.29010  0.46750  Biso   1.000  H
  H155     1.0000 0.08490  0.35430  0.47950  Biso   1.000  H
  H156     1.0000 0.91380  0.43490  0.48440  Biso   1.000  H
  H157     1.0000 0.85560  0.25350  0.50970  Biso   1.000  H
  H158     1.0000 0.94310  0.23900  0.49550  Biso   1.000  H
  H159     1.0000 0.07850  0.58350  0.31720  Biso   1.000  H
  H160     1.0000 0.07610  0.79980  0.31720  Biso   1.000  H
  H161     1.0000 0.15920  0.78890  0.33330  Biso   1.000  H
  H162     1.0000 0.98830  0.55590  0.28850  Biso   1.000  H
  H163     1.0000 0.93060  0.54560  0.30250  Biso   1.000  H
  H164     1.0000 0.91670  0.66820  0.30540  Biso   1.000  H
  H165     1.0000 0.96650  0.72910  0.29230  Biso   1.000  H
  H166     1.0000 0.84560  0.54160  0.28620  Biso   1.000  H
  H167     1.0000 0.84910  0.61150  0.27870  Biso   1.000  H
  H168     1.0000 0.04080  0.65800  0.27090  Biso   1.000  H
  H169     1.0000 0.00350  0.70310  0.26660  Biso   1.000  H
  H170     1.0000 0.78390  0.48290  0.25350  Biso   1.000  H
  H171     1.0000 0.93080  0.53820  0.21630  Biso   1.000  H
  H172     1.0000 0.01830  0.61980  0.23390  Biso   1.000  H
  H173     1.0000 0.39700  0.51260  0.32940  Biso   1.000  H
  H174     1.0000 0.19630  0.31590  0.30530  Biso   1.000  H
  H175     1.0000 0.18600  0.39430  0.32340  Biso   1.000  H
  H176     1.0000 0.46710  0.49550  0.30030  Biso   1.000  H
  H177     1.0000 0.46020  0.43000  0.31080  Biso   1.000  H
  H178     1.0000 0.30370  0.31820  0.28250  Biso   1.000  H
  H179     1.0000 0.33770  0.29780  0.29790  Biso   1.000  H
  H180     1.0000 0.50880  0.40440  0.28510  Biso   1.000  H
  H181     1.0000 0.44360  0.32540  0.28590  Biso   1.000  H
  H182     1.0000 0.35500  0.42790  0.27110  Biso   1.000  H
  H183     1.0000 0.43650  0.48750  0.27230  Biso   1.000  H
  H184     1.0000 0.51560  0.32620  0.25520  Biso   1.000  H
  H185     1.0000 0.44320  0.39800  0.21620  Biso   1.000  H
  H186     1.0000 0.39370  0.43610  0.23530  Biso   1.000  H
  H187     1.0000 0.61260  0.58390  0.33240  Biso   1.000  H
  H188     1.0000 0.55160  0.58700  0.32210  Biso   1.000  H
  H189     1.0000 0.53480  0.54760  0.33990  Biso   1.000  H
  H190     1.0000 0.69030  0.67000  0.34540  Biso   1.000  H
  H191     1.0000 0.66590  0.69430  0.36180  Biso   1.000  H
  H192     1.0000 0.69200  0.74360  0.34550  Biso   1.000  H
  H193     1.0000 0.32070  0.79380  0.75573  Biso   1.000  H
  H194     1.0000 0.39890  0.03020  0.74053  Biso   1.000  H
  H195     1.0000 0.39860  0.95150  0.71993  Biso   1.000  H
  H196     1.0000 0.31680  0.84040  0.78843  Biso   1.000  H
  H197     1.0000 0.25100  0.84850  0.78253  Biso   1.000  H
  H198     1.0000 0.30320  0.00200  0.77263  Biso   1.000  H
  H199     1.0000 0.38710  0.04690  0.77553  Biso   1.000  H
  H200     1.0000 0.44650  0.99450  0.79023  Biso   1.000  H
  H201     1.0000 0.41120  0.93430  0.80443  Biso   1.000  H
  H202     1.0000 0.25810  0.96800  0.80083  Biso   1.000  H
  H203     1.0000 0.26940  0.91510  0.81283  Biso   1.000  H
  H204     1.0000 0.52110  0.08620  0.81773  Biso   1.000  H
  H205     1.0000 0.39790  0.14440  0.84303  Biso   1.000  H
  H206     1.0000 0.29590  0.05690  0.82883  Biso   1.000  H
  H207     1.0000 0.50500  0.92150  0.65053  Biso   1.000  H
  H208     1.0000 0.72370  0.92390  0.65053  Biso   1.000  H
  H209     1.0000 0.62970  0.84080  0.66663  Biso   1.000  H
  H210     1.0000 0.56760  0.01170  0.62183  Biso   1.000  H
  H211     1.0000 0.61500  0.06940  0.63583  Biso   1.000  H
  H212     1.0000 0.75150  0.08330  0.63873  Biso   1.000  H
  H213     1.0000 0.76260  0.03350  0.62563  Biso   1.000  H
  H214     1.0000 0.69600  0.15440  0.61953  Biso   1.000  H
  H215     1.0000 0.76240  0.15090  0.61203  Biso   1.000  H
  H216     1.0000 0.61720  0.95920  0.60423  Biso   1.000  H
  H217     1.0000 0.69960  0.99650  0.59993  Biso   1.000  H
  H218     1.0000 0.69900  0.21610  0.58683  Biso   1.000  H
  H219     1.0000 0.60740  0.06920  0.54963  Biso   1.000  H
  H220     1.0000 0.60150  0.98170  0.56723  Biso   1.000  H
  H221     1.0000 0.11560  0.60300  0.66273  Biso   1.000  H
  H222     1.0000 0.11960  0.80370  0.63863  Biso   1.000  H
  H223     1.0000 0.20830  0.81400  0.65673  Biso   1.000  H
  H224     1.0000 0.02840  0.53290  0.63363  Biso   1.000  H
  H225     1.0000 0.96980  0.53980  0.64413  Biso   1.000  H
  H226     1.0000 0.01450  0.69630  0.61583  Biso   1.000  H
  H227     1.0000 0.96010  0.66230  0.63123  Biso   1.000  H
  H228     1.0000 0.89560  0.49120  0.61843  Biso   1.000  H
  H229     1.0000 0.88180  0.55640  0.61923  Biso   1.000  H
  H230     1.0000 0.07290  0.64500  0.60443  Biso   1.000  H
  H231     1.0000 0.05100  0.56350  0.60563  Biso   1.000  H
  H232     1.0000 0.81060  0.48440  0.58853  Biso   1.000  H
  H233     1.0000 0.95480  0.55680  0.54953  Biso   1.000  H
  H234     1.0000 0.04240  0.60630  0.56863  Biso   1.000  H
  H235     1.0000 0.97130  0.38740  0.66573  Biso   1.000  H
  H236     1.0000 0.03540  0.44840  0.65543  Biso   1.000  H
  H237     1.0000 0.01280  0.46520  0.67323  Biso   1.000  H
  H238     1.0000 0.97970  0.30970  0.67873  Biso   1.000  H
  H239     1.0000 0.02840  0.33410  0.69513  Biso   1.000  H
  H240     1.0000 0.05160  0.30800  0.67883  Biso   1.000  H
  H241     1.0000 0.47310  0.67930  0.08907  Biso   1.000  H
  H242     1.0000 0.63130  0.60110  0.07387  Biso   1.000  H
  H243     1.0000 0.55290  0.60140  0.05327  Biso   1.000  H
  H244     1.0000 0.52360  0.68320  0.12177  Biso   1.000  H
  H245     1.0000 0.59750  0.74900  0.11587  Biso   1.000  H
  H246     1.0000 0.69880  0.69680  0.10597  Biso   1.000  H
  H247     1.0000 0.65980  0.61290  0.10887  Biso   1.000  H
  H248     1.0000 0.54800  0.55350  0.12357  Biso   1.000  H
  H249     1.0000 0.52310  0.58880  0.13777  Biso   1.000  H
  H250     1.0000 0.70990  0.74190  0.13417  Biso   1.000  H
  H251     1.0000 0.64570  0.73060  0.14617  Biso   1.000  H
  H252     1.0000 0.56510  0.47890  0.15107  Biso   1.000  H
  H253     1.0000 0.74650  0.60210  0.17637  Biso   1.000  H
  H254     1.0000 0.76100  0.70410  0.16217  Biso   1.000  H
  H255     1.0000 0.41650  0.49500  0.98387  Biso   1.000  H
  H256     1.0000 0.20020  0.27630  0.98387  Biso   1.000  H
  H257     1.0000 0.21110  0.37030  0.99997  Biso   1.000  H
  H258     1.0000 0.44410  0.43240  0.95517  Biso   1.000  H
  H259     1.0000 0.45440  0.38500  0.96917  Biso   1.000  H
  H260     1.0000 0.33180  0.24850  0.97207  Biso   1.000  H
  H261     1.0000 0.27090  0.23740  0.95897  Biso   1.000  H
  H262     1.0000 0.45840  0.30400  0.95287  Biso   1.000  H
  H263     1.0000 0.38850  0.23760  0.94537  Biso   1.000  H
  H264     1.0000 0.34200  0.38280  0.93757  Biso   1.000  H
  H265     1.0000 0.29690  0.30040  0.93327  Biso   1.000  H
  H266     1.0000 0.51710  0.30100  0.92017  Biso   1.000  H
  H267     1.0000 0.46180  0.39260  0.88297  Biso   1.000  H
  H268     1.0000 0.38020  0.39850  0.90057  Biso   1.000  H
  H269     1.0000 0.48740  0.88440  0.99607  Biso   1.000  H
  H270     1.0000 0.68410  0.88040  0.97197  Biso   1.000  H
  H271     1.0000 0.60570  0.79170  0.99007  Biso   1.000  H
  H272     1.0000 0.50450  0.97160  0.96697  Biso   1.000  H
  H273     1.0000 0.57000  0.03020  0.97747  Biso   1.000  H
  H274     1.0000 0.68180  0.98550  0.94917  Biso   1.000  H
  H275     1.0000 0.70220  0.03990  0.96457  Biso   1.000  H
  H276     1.0000 0.59560  0.10440  0.95177  Biso   1.000  H
  H277     1.0000 0.67460  0.11820  0.95257  Biso   1.000  H
  H278     1.0000 0.57210  0.92710  0.93777  Biso   1.000  H
  H279     1.0000 0.51250  0.94900  0.93897  Biso   1.000  H
  H280     1.0000 0.67380  0.18940  0.92187  Biso   1.000  H
  H281     1.0000 0.60200  0.04520  0.88287  Biso   1.000  H
  H282     1.0000 0.56390  0.95760  0.90197  Biso   1.000  H
  H283     1.0000 0.41610  0.02870  0.99907  Biso   1.000  H
  H284     1.0000 0.41300  0.96460  0.98877  Biso   1.000  H
  H285     1.0000 0.45240  0.98720  0.00657  Biso   1.000  H
  H286     1.0000 0.33000  0.02030  0.01207  Biso   1.000  H
  H287     1.0000 0.30570  0.97160  0.02847  Biso   1.000  H
  H288     1.0000 0.25640  0.94840  0.01217  Biso   1.000  H
  C1       1.0000 0.86300  0.50450  0.90282  Biso   1.000  C
  C2       1.0000 0.84054  0.50558  0.91918  Biso   1.000  C
  C3       1.0000 0.88730  0.55480  0.93086  Biso   1.000  C
  C4       1.0000 0.95870  0.60170  0.92679  Biso   1.000  C
  C5       1.0000 0.98260  0.60030  0.91010  Biso   1.000  C
  C6       1.0000 0.93600  0.55300  0.89772  Biso   1.000  C
  C7       1.0000 0.87110  0.56830  0.94917  Biso   1.000  C
  C8       1.0000 0.94760  0.60920  0.95759  Biso   1.000  C
  C9       1.0000 0.99910  0.65280  0.94096  Biso   1.000  C
  C10      1.0000 0.97300  0.56430  0.96536  Biso   1.000  C
  C11      1.0000 0.02940  0.61570  0.97844  Biso   1.000  C
  C12      1.0000 0.01950  0.66980  0.98186  Biso   1.000  C
  C13      1.0000 0.95740  0.66410  0.97222  Biso   1.000  C
  C14      1.0000 0.08240  0.60540  0.98668  Biso   1.000  C
  C15      1.0000 0.12730  0.65580  0.99789  Biso   1.000  C
  C16      1.0000 0.11560  0.71290  0.00150  Biso   1.000  C
  C17      1.0000 0.06250  0.72170  0.99328  Biso   1.000  C
  C18      1.0000 0.18270  0.64750  0.00718  Biso   1.000  C
  C19      1.0000 0.81149  0.45364  0.88998  Biso   1.000  C
  C20      1.0000 0.86640  0.31010  0.82657  Biso   1.000  C
  C21      1.0000 0.92050  0.37290  0.81688  Biso   1.000  C
  C22      1.0000 0.96850  0.36400  0.80757  Biso   1.000  C
  C23      1.0000 0.97240  0.30210  0.80847  Biso   1.000  C
  C24      1.0000 0.92310  0.24290  0.81737  Biso   1.000  C
  C25      1.0000 0.87270  0.24970  0.82658  Biso   1.000  C
  C26      1.0000 0.02890  0.41950  0.79581  Biso   1.000  C
  C27      1.0000 0.04850  0.37140  0.78528  Biso   1.000  C
  C28      1.0000 0.04160  0.31420  0.79808  Biso   1.000  C
  C29      1.0000 0.12720  0.41670  0.77896  Biso   1.000  C
  C30      1.0000 0.11800  0.43820  0.76087  Biso   1.000  C
  C31      1.0000 0.04870  0.39760  0.75536  Biso   1.000  C
  C32      1.0000 0.00500  0.34430  0.76943  Biso   1.000  C
  C33      1.0000 0.16920  0.48850  0.74979  Biso   1.000  C
  C34      1.0000 0.15050  0.49620  0.73304  Biso   1.000  C
  C35      1.0000 0.08080  0.45560  0.72750  Biso   1.000  C
  C36      1.0000 0.02870  0.40700  0.73780  Biso   1.000  C
  C37      1.0000 0.20790  0.54830  0.72193  Biso   1.000  C
  C38      1.0000 0.81630  0.31540  0.83696  Biso   1.000  C
  C39      1.0000 0.70880  0.53760  0.82786  Biso   1.000  C
  C40      1.0000 0.64230  0.52410  0.82381  Biso   1.000  C
  C41      1.0000 0.63150  0.56340  0.81161  Biso   1.000  C
  C42      1.0000 0.69280  0.62860  0.80496  Biso   1.000  C
  C43      1.0000 0.76310  0.64390  0.80960  Biso   1.000  C
  C44      1.0000 0.76850  0.59740  0.82056  Biso   1.000  C
  C45      1.0000 0.56480  0.55430  0.80319  Biso   1.000  C
  C46      1.0000 0.58830  0.59880  0.78758  Biso   1.000  C
  C47      1.0000 0.66560  0.66350  0.79252  Biso   1.000  C
  C48      1.0000 0.54010  0.62690  0.78139  Biso   1.000  C
  C49      1.0000 0.54440  0.62900  0.76220  Biso   1.000  C
  C50      1.0000 0.58010  0.59690  0.75757  Biso   1.000  C
  C51      1.0000 0.59650  0.56367  0.77200  Biso   1.000  C
  C52      1.0000 0.51017  0.65281  0.75109  Biso   1.000  C
  C53      1.0000 0.51610  0.64380  0.73338  Biso   1.000  C
  C54      1.0000 0.55320  0.60920  0.72787  Biso   1.000  C
  C55      1.0000 0.58250  0.58720  0.73923  Biso   1.000  C
  C56      1.0000 0.47600  0.66390  0.72110  Biso   1.000  C
  C57      1.0000 0.71780  0.48830  0.84041  Biso   1.000  C
  C58      1.0000 0.45660  0.30960  0.84474  Biso   1.000  C
  C59      1.0000 0.42990  0.41250  0.83339  Biso   1.000  C
  C60      1.0000 0.33340  0.30510  0.84946  Biso   1.000  C
  C61      1.0000 0.64150  0.13700  0.23615  Biso   1.000  C
  C62      1.0000 0.66504  0.15946  0.25251  Biso   1.000  C
  C63      1.0000 0.66750  0.11270  0.26419  Biso   1.000  C
  C64      1.0000 0.64300  0.04130  0.26012  Biso   1.000  C
  C65      1.0000 0.61770  0.01740  0.24343  Biso   1.000  C
  C66      1.0000 0.61700  0.06400  0.23105  Biso   1.000  C
  C67      1.0000 0.69720  0.12890  0.28250  Biso   1.000  C
  C68      1.0000 0.66160  0.05240  0.29092  Biso   1.000  C
  C69      1.0000 0.65370  0.00090  0.27429  Biso   1.000  C
  C70      1.0000 0.59130  0.02700  0.29869  Biso   1.000  C
  C71      1.0000 0.58630  0.97060  0.31177  Biso   1.000  C
  C72      1.0000 0.65030  0.98050  0.31519  Biso   1.000  C
  C73      1.0000 0.70670  0.04260  0.30555  Biso   1.000  C
  C74      1.0000 0.52300  0.91760  0.32001  Biso   1.000  C
  C75      1.0000 0.52850  0.87270  0.33122  Biso   1.000  C
  C76      1.0000 0.59730  0.88440  0.33483  Biso   1.000  C
  C77      1.0000 0.65920  0.93750  0.32661  Biso   1.000  C
  C78      1.0000 0.46480  0.81730  0.34051  Biso   1.000  C
  C79      1.0000 0.64215  0.18851  0.22331  Biso   1.000  C
  C80      1.0000 0.44370  0.13360  0.15990  Biso   1.000  C
  C81      1.0000 0.45240  0.07950  0.15021  Biso   1.000  C
  C82      1.0000 0.39550  0.03150  0.14090  Biso   1.000  C
  C83      1.0000 0.32970  0.02760  0.14180  Biso   1.000  C
  C84      1.0000 0.31980  0.07690  0.15070  Biso   1.000  C
  C85      1.0000 0.37700  0.12730  0.15991  Biso   1.000  C
  C86      1.0000 0.39060  0.97110  0.12914  Biso   1.000  C
  C87      1.0000 0.32290  0.95150  0.11861  Biso   1.000  C
  C88      1.0000 0.27260  0.95840  0.13141  Biso   1.000  C
  C89      1.0000 0.28950  0.87280  0.11229  Biso   1.000  C
  C90      1.0000 0.32020  0.88200  0.09420  Biso   1.000  C
  C91      1.0000 0.34890  0.95130  0.08869  Biso   1.000  C
  C92      1.0000 0.33930  0.99500  0.10276  Biso   1.000  C
  C93      1.0000 0.31930  0.83080  0.08312  Biso   1.000  C
  C94      1.0000 0.34570  0.84950  0.06637  Biso   1.000  C
  C95      1.0000 0.37480  0.91920  0.06083  Biso   1.000  C
  C96      1.0000 0.37830  0.97130  0.07113  Biso   1.000  C
  C97      1.0000 0.34040  0.79210  0.05526  Biso   1.000  C
  C98      1.0000 0.49910  0.18370  0.17029  Biso   1.000  C
  C99      1.0000 0.82880  0.29120  0.16119  Biso   1.000  C
  C100     1.0000 0.88180  0.35770  0.15714  Biso   1.000  C
  C101     1.0000 0.93190  0.36850  0.14494  Biso   1.000  C
  C102     1.0000 0.93580  0.30720  0.13829  Biso   1.000  C
  C103     1.0000 0.88080  0.23690  0.14293  Biso   1.000  C
  C104     1.0000 0.82890  0.23150  0.15389  Biso   1.000  C
  C105     1.0000 0.98950  0.43520  0.13652  Biso   1.000  C
  C106     1.0000 0.01050  0.41170  0.12091  Biso   1.000  C
  C107     1.0000 0.99790  0.33440  0.12585  Biso   1.000  C
  C108     1.0000 0.08680  0.45990  0.11472  Biso   1.000  C
  C109     1.0000 0.08460  0.45560  0.09553  Biso   1.000  C
  C110     1.0000 0.01680  0.41990  0.09090  Biso   1.000  C
  C111     1.0000 0.96717  0.40350  0.10533  Biso   1.000  C
  C112     1.0000 0.14264  0.48983  0.08442  Biso   1.000  C
  C113     1.0000 0.12770  0.48390  0.06671  Biso   1.000  C
  C114     1.0000 0.05600  0.44680  0.06120  Biso   1.000  C
  C115     1.0000 0.00470  0.41750  0.07256  Biso   1.000  C
  C116     1.0000 0.18790  0.52400  0.05443  Biso   1.000  C
  C117     1.0000 0.77050  0.28220  0.17374  Biso   1.000  C
  C118     1.0000 0.85300  0.54340  0.17807  Biso   1.000  C
  C119     1.0000 0.98260  0.57010  0.16672  Biso   1.000  C
  C120     1.0000 0.97170  0.66660  0.18279  Biso   1.000  C
  C121     1.0000 0.49550  0.35850  0.56949  Biso   1.000  C
  C122     1.0000 0.49442  0.33496  0.58585  Biso   1.000  C
  C123     1.0000 0.44520  0.33250  0.59753  Biso   1.000  C
  C124     1.0000 0.39830  0.35700  0.59346  Biso   1.000  C
  C125     1.0000 0.39970  0.38230  0.57677  Biso   1.000  C
  C126     1.0000 0.44700  0.38300  0.56439  Biso   1.000  C
  C127     1.0000 0.43170  0.30280  0.61584  Biso   1.000  C
  C128     1.0000 0.39080  0.33840  0.62426  Biso   1.000  C
  C129     1.0000 0.34720  0.34630  0.60763  Biso   1.000  C
  C130     1.0000 0.43570  0.40870  0.63203  Biso   1.000  C
  C131     1.0000 0.38430  0.41370  0.64511  Biso   1.000  C
  C132     1.0000 0.33020  0.34970  0.64853  Biso   1.000  C
  C133     1.0000 0.33590  0.29330  0.63889  Biso   1.000  C
  C134     1.0000 0.39460  0.47700  0.65335  Biso   1.000  C
  C135     1.0000 0.34420  0.47150  0.66456  Biso   1.000  C
  C136     1.0000 0.28710  0.40270  0.66817  Biso   1.000  C
  C137     1.0000 0.27830  0.34080  0.65995  Biso   1.000  C
  C138     1.0000 0.35250  0.53520  0.67385  Biso   1.000  C
  C139     1.0000 0.54636  0.35785  0.55665  Biso   1.000  C
  C140     1.0000 0.68990  0.55630  0.49324  Biso   1.000  C
  C141     1.0000 0.62710  0.54760  0.48355  Biso   1.000  C
  C142     1.0000 0.63600  0.60450  0.47424  Biso   1.000  C
  C143     1.0000 0.69790  0.67030  0.47514  Biso   1.000  C
  C144     1.0000 0.75710  0.68020  0.48404  Biso   1.000  C
  C145     1.0000 0.75030  0.62300  0.49325  Biso   1.000  C
  C146     1.0000 0.58050  0.60940  0.46248  Biso   1.000  C
  C147     1.0000 0.62860  0.67710  0.45195  Biso   1.000  C
  C148     1.0000 0.68580  0.72740  0.46475  Biso   1.000  C
  C149     1.0000 0.58330  0.71050  0.44563  Biso   1.000  C
  C150     1.0000 0.56180  0.67980  0.42754  Biso   1.000  C
  C151     1.0000 0.60240  0.65110  0.42203  Biso   1.000  C
  C152     1.0000 0.65570  0.66070  0.43610  Biso   1.000  C
  C153     1.0000 0.51150  0.68070  0.41646  Biso   1.000  C
  C154     1.0000 0.50380  0.65430  0.39971  Biso   1.000  C
  C155     1.0000 0.54440  0.62520  0.39417  Biso   1.000  C
  C156     1.0000 0.59300  0.62170  0.40447  Biso   1.000  C
  C157     1.0000 0.45170  0.65960  0.38860  Biso   1.000  C
  C158     1.0000 0.68460  0.50090  0.50363  Biso   1.000  C
  C159     1.0000 0.46240  0.17120  0.49453  Biso   1.000  C
  C160     1.0000 0.47590  0.11820  0.49048  Biso   1.000  C
  C161     1.0000 0.43660  0.06810  0.47828  Biso   1.000  C
  C162     1.0000 0.37140  0.06420  0.47163  Biso   1.000  C
  C163     1.0000 0.35610  0.11920  0.47627  Biso   1.000  C
  C164     1.0000 0.40260  0.17110  0.48723  Biso   1.000  C
  C165     1.0000 0.44570  0.01050  0.46986  Biso   1.000  C
  C166     1.0000 0.40120  0.98950  0.45425  Biso   1.000  C
  C167     1.0000 0.33650  0.00210  0.45919  Biso   1.000  C
  C168     1.0000 0.37310  0.91320  0.44806  Biso   1.000  C
  C169     1.0000 0.37100  0.91540  0.42887  Biso   1.000  C
  C170     1.0000 0.40310  0.98320  0.42424  Biso   1.000  C
  C171     1.0000 0.43633  0.03283  0.43867  Biso   1.000  C
  C172     1.0000 0.34719  0.85736  0.41776  Biso   1.000  C
  C173     1.0000 0.35620  0.87230  0.40005  Biso   1.000  C
  C174     1.0000 0.39080  0.94400  0.39454  Biso   1.000  C
  C175     1.0000 0.41280  0.99530  0.40590  Biso   1.000  C
  C176     1.0000 0.33610  0.81210  0.38777  Biso   1.000  C
  C177     1.0000 0.51170  0.22950  0.50708  Biso   1.000  C
  C178     1.0000 0.69040  0.14700  0.51141  Biso   1.000  C
  C179     1.0000 0.58750  0.01740  0.50006  Biso   1.000  C
  C180     1.0000 0.69490  0.02830  0.51613  Biso   1.000  C
  C181     1.0000 0.13700  0.49550  0.40282  Biso   1.000  C
  C182     1.0000 0.15946  0.49442  0.41918  Biso   1.000  C
  C183     1.0000 0.11270  0.44520  0.43086  Biso   1.000  C
  C184     1.0000 0.04130  0.39830  0.42679  Biso   1.000  C
  C185     1.0000 0.01740  0.39970  0.41010  Biso   1.000  C
  C186     1.0000 0.06400  0.44700  0.39772  Biso   1.000  C
  C187     1.0000 0.12890  0.43170  0.44917  Biso   1.000  C
  C188     1.0000 0.05240  0.39080  0.45759  Biso   1.000  C
  C189     1.0000 0.00090  0.34720  0.44096  Biso   1.000  C
  C190     1.0000 0.02700  0.43570  0.46536  Biso   1.000  C
  C191     1.0000 0.97060  0.38430  0.47844  Biso   1.000  C
  C192     1.0000 0.98050  0.33020  0.48186  Biso   1.000  C
  C193     1.0000 0.04260  0.33590  0.47222  Biso   1.000  C
  C194     1.0000 0.91760  0.39460  0.48668  Biso   1.000  C
  C195     1.0000 0.87270  0.34420  0.49789  Biso   1.000  C
  C196     1.0000 0.88440  0.28710  0.50150  Biso   1.000  C
  C197     1.0000 0.93750  0.27830  0.49328  Biso   1.000  C
  C198     1.0000 0.81730  0.35250  0.50718  Biso   1.000  C
  C199     1.0000 0.18851  0.54636  0.38998  Biso   1.000  C
  C200     1.0000 0.13360  0.68990  0.32657  Biso   1.000  C
  C201     1.0000 0.07950  0.62710  0.31688  Biso   1.000  C
  C202     1.0000 0.03150  0.63600  0.30757  Biso   1.000  C
  C203     1.0000 0.02760  0.69790  0.30847  Biso   1.000  C
  C204     1.0000 0.07690  0.75710  0.31737  Biso   1.000  C
  C205     1.0000 0.12730  0.75030  0.32658  Biso   1.000  C
  C206     1.0000 0.97110  0.58050  0.29581  Biso   1.000  C
  C207     1.0000 0.95150  0.62860  0.28528  Biso   1.000  C
  C208     1.0000 0.95840  0.68580  0.29808  Biso   1.000  C
  C209     1.0000 0.87280  0.58330  0.27896  Biso   1.000  C
  C210     1.0000 0.88200  0.56180  0.26087  Biso   1.000  C
  C211     1.0000 0.95130  0.60240  0.25536  Biso   1.000  C
  C212     1.0000 0.99500  0.65570  0.26943  Biso   1.000  C
  C213     1.0000 0.83080  0.51150  0.24979  Biso   1.000  C
  C214     1.0000 0.84950  0.50380  0.23304  Biso   1.000  C
  C215     1.0000 0.91920  0.54440  0.22750  Biso   1.000  C
  C216     1.0000 0.97130  0.59300  0.23780  Biso   1.000  C
  C217     1.0000 0.79210  0.45170  0.22193  Biso   1.000  C
  C218     1.0000 0.18370  0.68460  0.33696  Biso   1.000  C
  C219     1.0000 0.29120  0.46240  0.32786  Biso   1.000  C
  C220     1.0000 0.35770  0.47590  0.32381  Biso   1.000  C
  C221     1.0000 0.36850  0.43660  0.31161  Biso   1.000  C
  C222     1.0000 0.30720  0.37140  0.30496  Biso   1.000  C
  C223     1.0000 0.23690  0.35610  0.30960  Biso   1.000  C
  C224     1.0000 0.23150  0.40260  0.32056  Biso   1.000  C
  C225     1.0000 0.43520  0.44570  0.30319  Biso   1.000  C
  C226     1.0000 0.41170  0.40120  0.28758  Biso   1.000  C
  C227     1.0000 0.33440  0.33650  0.29252  Biso   1.000  C
  C228     1.0000 0.45990  0.37310  0.28139  Biso   1.000  C
  C229     1.0000 0.45560  0.37100  0.26220  Biso   1.000  C
  C230     1.0000 0.41990  0.40310  0.25757  Biso   1.000  C
  C231     1.0000 0.40350  0.43633  0.27200  Biso   1.000  C
  C232     1.0000 0.48983  0.34719  0.25109  Biso   1.000  C
  C233     1.0000 0.48390  0.35620  0.23338  Biso   1.000  C
  C234     1.0000 0.44680  0.39080  0.22787  Biso   1.000  C
  C235     1.0000 0.41750  0.41280  0.23923  Biso   1.000  C
  C236     1.0000 0.52400  0.33610  0.22110  Biso   1.000  C
  C237     1.0000 0.28220  0.51170  0.34041  Biso   1.000  C
  C238     1.0000 0.54340  0.69040  0.34474  Biso   1.000  C
  C239     1.0000 0.57010  0.58750  0.33339  Biso   1.000  C
  C240     1.0000 0.66660  0.69490  0.34946  Biso   1.000  C
  C241     1.0000 0.35850  0.86300  0.73615  Biso   1.000  C
  C242     1.0000 0.33496  0.84054  0.75251  Biso   1.000  C
  C243     1.0000 0.33250  0.88730  0.76419  Biso   1.000  C
  C244     1.0000 0.35700  0.95870  0.76012  Biso   1.000  C
  C245     1.0000 0.38230  0.98260  0.74343  Biso   1.000  C
  C246     1.0000 0.38300  0.93600  0.73105  Biso   1.000  C
  C247     1.0000 0.30280  0.87110  0.78250  Biso   1.000  C
  C248     1.0000 0.33840  0.94760  0.79092  Biso   1.000  C
  C249     1.0000 0.34630  0.99910  0.77429  Biso   1.000  C
  C250     1.0000 0.40870  0.97300  0.79869  Biso   1.000  C
  C251     1.0000 0.41370  0.02940  0.81177  Biso   1.000  C
  C252     1.0000 0.34970  0.01950  0.81519  Biso   1.000  C
  C253     1.0000 0.29330  0.95740  0.80555  Biso   1.000  C
  C254     1.0000 0.47700  0.08240  0.82001  Biso   1.000  C
  C255     1.0000 0.47150  0.12730  0.83122  Biso   1.000  C
  C256     1.0000 0.40270  0.11560  0.83483  Biso   1.000  C
  C257     1.0000 0.34080  0.06250  0.82661  Biso   1.000  C
  C258     1.0000 0.53520  0.18270  0.84051  Biso   1.000  C
  C259     1.0000 0.35785  0.81149  0.72331  Biso   1.000  C
  C260     1.0000 0.55630  0.86640  0.65990  Biso   1.000  C
  C261     1.0000 0.54760  0.92050  0.65021  Biso   1.000  C
  C262     1.0000 0.60450  0.96850  0.64090  Biso   1.000  C
  C263     1.0000 0.67030  0.97240  0.64180  Biso   1.000  C
  C264     1.0000 0.68020  0.92310  0.65070  Biso   1.000  C
  C265     1.0000 0.62300  0.87270  0.65991  Biso   1.000  C
  C266     1.0000 0.60940  0.02890  0.62914  Biso   1.000  C
  C267     1.0000 0.67710  0.04850  0.61861  Biso   1.000  C
  C268     1.0000 0.72740  0.04160  0.63141  Biso   1.000  C
  C269     1.0000 0.71050  0.12720  0.61229  Biso   1.000  C
  C270     1.0000 0.67980  0.11800  0.59420  Biso   1.000  C
  C271     1.0000 0.65110  0.04870  0.58869  Biso   1.000  C
  C272     1.0000 0.66070  0.00500  0.60276  Biso   1.000  C
  C273     1.0000 0.68070  0.16920  0.58312  Biso   1.000  C
  C274     1.0000 0.65430  0.15050  0.56637  Biso   1.000  C
  C275     1.0000 0.62520  0.08080  0.56083  Biso   1.000  C
  C276     1.0000 0.62170  0.02870  0.57113  Biso   1.000  C
  C277     1.0000 0.65960  0.20790  0.55526  Biso   1.000  C
  C278     1.0000 0.50090  0.81630  0.67029  Biso   1.000  C
  C279     1.0000 0.17120  0.70880  0.66119  Biso   1.000  C
  C280     1.0000 0.11820  0.64230  0.65714  Biso   1.000  C
  C281     1.0000 0.06810  0.63150  0.64494  Biso   1.000  C
  C282     1.0000 0.06420  0.69280  0.63829  Biso   1.000  C
  C283     1.0000 0.11920  0.76310  0.64293  Biso   1.000  C
  C284     1.0000 0.17110  0.76850  0.65389  Biso   1.000  C
  C285     1.0000 0.01050  0.56480  0.63652  Biso   1.000  C
  C286     1.0000 0.98950  0.58830  0.62091  Biso   1.000  C
  C287     1.0000 0.00210  0.66560  0.62585  Biso   1.000  C
  C288     1.0000 0.91320  0.54010  0.61472  Biso   1.000  C
  C289     1.0000 0.91540  0.54440  0.59553  Biso   1.000  C
  C290     1.0000 0.98320  0.58010  0.59090  Biso   1.000  C
  C291     1.0000 0.03283  0.59650  0.60533  Biso   1.000  C
  C292     1.0000 0.85736  0.51017  0.58442  Biso   1.000  C
  C293     1.0000 0.87230  0.51610  0.56671  Biso   1.000  C
  C294     1.0000 0.94400  0.55320  0.56120  Biso   1.000  C
  C295     1.0000 0.99530  0.58250  0.57256  Biso   1.000  C
  C296     1.0000 0.81210  0.47600  0.55443  Biso   1.000  C
  C297     1.0000 0.22950  0.71780  0.67374  Biso   1.000  C
  C298     1.0000 0.14700  0.45660  0.67807  Biso   1.000  C
  C299     1.0000 0.01740  0.42990  0.66672  Biso   1.000  C
  C300     1.0000 0.02830  0.33340  0.68279  Biso   1.000  C
  C301     1.0000 0.50450  0.64150  0.06949  Biso   1.000  C
  C302     1.0000 0.50558  0.66504  0.08585  Biso   1.000  C
  C303     1.0000 0.55480  0.66750  0.09753  Biso   1.000  C
  C304     1.0000 0.60170  0.64300  0.09346  Biso   1.000  C
  C305     1.0000 0.60030  0.61770  0.07677  Biso   1.000  C
  C306     1.0000 0.55300  0.61700  0.06439  Biso   1.000  C
  C307     1.0000 0.56830  0.69720  0.11584  Biso   1.000  C
  C308     1.0000 0.60920  0.66160  0.12426  Biso   1.000  C
  C309     1.0000 0.65280  0.65370  0.10763  Biso   1.000  C
  C310     1.0000 0.56430  0.59130  0.13203  Biso   1.000  C
  C311     1.0000 0.61570  0.58630  0.14511  Biso   1.000  C
  C312     1.0000 0.66980  0.65030  0.14853  Biso   1.000  C
  C313     1.0000 0.66410  0.70670  0.13889  Biso   1.000  C
  C314     1.0000 0.60540  0.52300  0.15335  Biso   1.000  C
  C315     1.0000 0.65580  0.52850  0.16456  Biso   1.000  C
  C316     1.0000 0.71290  0.59730  0.16817  Biso   1.000  C
  C317     1.0000 0.72170  0.65920  0.15995  Biso   1.000  C
  C318     1.0000 0.64750  0.46480  0.17385  Biso   1.000  C
  C319     1.0000 0.45364  0.64215  0.05665  Biso   1.000  C
  C320     1.0000 0.31010  0.44370  0.99324  Biso   1.000  C
  C321     1.0000 0.37290  0.45240  0.98355  Biso   1.000  C
  C322     1.0000 0.36400  0.39550  0.97424  Biso   1.000  C
  C323     1.0000 0.30210  0.32970  0.97514  Biso   1.000  C
  C324     1.0000 0.24290  0.31980  0.98404  Biso   1.000  C
  C325     1.0000 0.24970  0.37700  0.99325  Biso   1.000  C
  C326     1.0000 0.41950  0.39060  0.96248  Biso   1.000  C
  C327     1.0000 0.37140  0.32290  0.95195  Biso   1.000  C
  C328     1.0000 0.31420  0.27260  0.96475  Biso   1.000  C
  C329     1.0000 0.41670  0.28950  0.94563  Biso   1.000  C
  C330     1.0000 0.43820  0.32020  0.92754  Biso   1.000  C
  C331     1.0000 0.39760  0.34890  0.92203  Biso   1.000  C
  C332     1.0000 0.34430  0.33930  0.93610  Biso   1.000  C
  C333     1.0000 0.48850  0.31930  0.91646  Biso   1.000  C
  C334     1.0000 0.49620  0.34570  0.89971  Biso   1.000  C
  C335     1.0000 0.45560  0.37480  0.89417  Biso   1.000  C
  C336     1.0000 0.40700  0.37830  0.90447  Biso   1.000  C
  C337     1.0000 0.54830  0.34040  0.88860  Biso   1.000  C
  C338     1.0000 0.31540  0.49910  0.00363  Biso   1.000  C
  C339     1.0000 0.53760  0.82880  0.99453  Biso   1.000  C
  C340     1.0000 0.52410  0.88180  0.99048  Biso   1.000  C
  C341     1.0000 0.56340  0.93190  0.97828  Biso   1.000  C
  C342     1.0000 0.62860  0.93580  0.97163  Biso   1.000  C
  C343     1.0000 0.64390  0.88080  0.97627  Biso   1.000  C
  C344     1.0000 0.59740  0.82890  0.98723  Biso   1.000  C
  C345     1.0000 0.55430  0.98950  0.96986  Biso   1.000  C
  C346     1.0000 0.59880  0.01050  0.95425  Biso   1.000  C
  C347     1.0000 0.66350  0.99790  0.95919  Biso   1.000  C
  C348     1.0000 0.62690  0.08680  0.94806  Biso   1.000  C
  C349     1.0000 0.62900  0.08460  0.92887  Biso   1.000  C
  C350     1.0000 0.59690  0.01680  0.92424  Biso   1.000  C
  C351     1.0000 0.56367  0.96717  0.93867  Biso   1.000  C
  C352     1.0000 0.65281  0.14264  0.91776  Biso   1.000  C
  C353     1.0000 0.64380  0.12770  0.90005  Biso   1.000  C
  C354     1.0000 0.60920  0.05600  0.89454  Biso   1.000  C
  C355     1.0000 0.58720  0.00470  0.90590  Biso   1.000  C
  C356     1.0000 0.66390  0.18790  0.88777  Biso   1.000  C
  C357     1.0000 0.48830  0.77050  0.00708  Biso   1.000  C
  C358     1.0000 0.30960  0.85300  0.01141  Biso   1.000  C
  C359     1.0000 0.41250  0.98260  0.00006  Biso   1.000  C
  C360     1.0000 0.30510  0.97170  0.01613  Biso   1.000  C
  N1       1.0000 0.41190  0.34290  0.84249  Biso   1.000  N
  N2       1.0000 0.93100  0.58810  0.17582  Biso   1.000  N
  N3       1.0000 0.65710  0.06900  0.50916  Biso   1.000  N
  N4       1.0000 0.58810  0.65710  0.34249  Biso   1.000  N
  N5       1.0000 0.06900  0.41190  0.67582  Biso   1.000  N
  N6       1.0000 0.34290  0.93100  0.00916  Biso   1.000  N
  O1       1.0000 0.67831  0.32906  0.86076  Biso   1.000  O
  O2       1.0000 0.83322  0.45614  0.87483  Biso   1.000  O
  O3       1.0000 0.74983  0.41291  0.89568  Biso   1.000  O
  O4       1.0000 0.18230  0.58960  0.00510  Biso   1.000  O
  O5       1.0000 0.22783  0.70063  0.01607  Biso   1.000  O
  O6       1.0000 0.82415  0.37968  0.83978  Biso   1.000  O
  O7       1.0000 0.76330  0.25864  0.84309  Biso   1.000  O
  O8       1.0000 0.26974  0.58527  0.72863  Biso   1.000  O
  O9       1.0000 0.19351  0.55137  0.70628  Biso   1.000  O
  O10      1.0000 0.77662  0.49200  0.84137  Biso   1.000  O
  O11      1.0000 0.66720  0.45253  0.84978  Biso   1.000  O
  O12      1.0000 0.43422  0.68177  0.72758  Biso   1.000  O
  O13      1.0000 0.48418  0.65821  0.70526  Biso   1.000  O
  O14      1.0000 0.51820  0.35270  0.83776  Biso   1.000  O
  O15      1.0000 0.65075  0.32169  0.19409  Biso   1.000  O
  O16      1.0000 0.62292  0.16678  0.20816  Biso   1.000  O
  O17      1.0000 0.66308  0.25017  0.22901  Biso   1.000  O
  O18      1.0000 0.40730  0.81770  0.33843  Biso   1.000  O
  O19      1.0000 0.47280  0.77217  0.34940  Biso   1.000  O
  O20      1.0000 0.55553  0.17585  0.17311  Biso   1.000  O
  O21      1.0000 0.49534  0.23670  0.17642  Biso   1.000  O
  O22      1.0000 0.31553  0.73026  0.06196  Biso   1.000  O
  O23      1.0000 0.35786  0.80649  0.03961  Biso   1.000  O
  O24      1.0000 0.71538  0.22338  0.17470  Biso   1.000  O
  O25      1.0000 0.78533  0.33280  0.18311  Biso   1.000  O
  O26      1.0000 0.24755  0.56578  0.06091  Biso   1.000  O
  O27      1.0000 0.17403  0.51582  0.03859  Biso   1.000  O
  O28      1.0000 0.83450  0.48180  0.17109  Biso   1.000  O
  O29      1.0000 0.67094  0.34925  0.52743  Biso   1.000  O
  O30      1.0000 0.54386  0.37708  0.54150  Biso   1.000  O
  O31      1.0000 0.58709  0.33692  0.56235  Biso   1.000  O
  O32      1.0000 0.41040  0.59270  0.67177  Biso   1.000  O
  O33      1.0000 0.29937  0.52720  0.68274  Biso   1.000  O
  O34      1.0000 0.62032  0.44447  0.50645  Biso   1.000  O
  O35      1.0000 0.74136  0.50466  0.50976  Biso   1.000  O
  O36      1.0000 0.41473  0.68447  0.39530  Biso   1.000  O
  O37      1.0000 0.44863  0.64214  0.37295  Biso   1.000  O
  O38      1.0000 0.50800  0.28462  0.50804  Biso   1.000  O
  O39      1.0000 0.54747  0.21467  0.51645  Biso   1.000  O
  O40      1.0000 0.31823  0.75245  0.39425  Biso   1.000  O
  O41      1.0000 0.34179  0.82597  0.37193  Biso   1.000  O
  O42      1.0000 0.64730  0.16550  0.50443  Biso   1.000  O
  O43      1.0000 0.32169  0.67094  0.36076  Biso   1.000  O
  O44      1.0000 0.16678  0.54386  0.37483  Biso   1.000  O
  O45      1.0000 0.25017  0.58709  0.39568  Biso   1.000  O
  O46      1.0000 0.81770  0.41040  0.50510  Biso   1.000  O
  O47      1.0000 0.77217  0.29937  0.51607  Biso   1.000  O
  O48      1.0000 0.17585  0.62032  0.33978  Biso   1.000  O
  O49      1.0000 0.23670  0.74136  0.34309  Biso   1.000  O
  O50      1.0000 0.73026  0.41473  0.22863  Biso   1.000  O
  O51      1.0000 0.80649  0.44863  0.20628  Biso   1.000  O
  O52      1.0000 0.22338  0.50800  0.34137  Biso   1.000  O
  O53      1.0000 0.33280  0.54747  0.34978  Biso   1.000  O
  O54      1.0000 0.56578  0.31823  0.22758  Biso   1.000  O
  O55      1.0000 0.51582  0.34179  0.20526  Biso   1.000  O
  O56      1.0000 0.48180  0.64730  0.33776  Biso   1.000  O
  O57      1.0000 0.34925  0.67831  0.69409  Biso   1.000  O
  O58      1.0000 0.37708  0.83322  0.70816  Biso   1.000  O
  O59      1.0000 0.33692  0.74983  0.72901  Biso   1.000  O
  O60      1.0000 0.59270  0.18230  0.83843  Biso   1.000  O
  O61      1.0000 0.52720  0.22783  0.84940  Biso   1.000  O
  O62      1.0000 0.44447  0.82415  0.67311  Biso   1.000  O
  O63      1.0000 0.50466  0.76330  0.67642  Biso   1.000  O
  O64      1.0000 0.68447  0.26974  0.56196  Biso   1.000  O
  O65      1.0000 0.64214  0.19351  0.53961  Biso   1.000  O
  O66      1.0000 0.28462  0.77662  0.67470  Biso   1.000  O
  O67      1.0000 0.21467  0.66720  0.68311  Biso   1.000  O
  O68      1.0000 0.75245  0.43422  0.56091  Biso   1.000  O
  O69      1.0000 0.82597  0.48418  0.53859  Biso   1.000  O
  O70      1.0000 0.16550  0.51820  0.67109  Biso   1.000  O
  O71      1.0000 0.32906  0.65075  0.02743  Biso   1.000  O
  O72      1.0000 0.45614  0.62292  0.04150  Biso   1.000  O
  O73      1.0000 0.41291  0.66308  0.06235  Biso   1.000  O
  O74      1.0000 0.58960  0.40730  0.17177  Biso   1.000  O
  O75      1.0000 0.70063  0.47280  0.18274  Biso   1.000  O
  O76      1.0000 0.37968  0.55553  0.00645  Biso   1.000  O
  O77      1.0000 0.25864  0.49534  0.00976  Biso   1.000  O
  O78      1.0000 0.58527  0.31553  0.89530  Biso   1.000  O
  O79      1.0000 0.55137  0.35786  0.87295  Biso   1.000  O
  O80      1.0000 0.49200  0.71538  0.00804  Biso   1.000  O
  O81      1.0000 0.45253  0.78533  0.01645  Biso   1.000  O
  O82      1.0000 0.68177  0.24755  0.89425  Biso   1.000  O
  O83      1.0000 0.65821  0.17403  0.87193  Biso   1.000  O
  O84      1.0000 0.35270  0.83450  0.00443  Biso   1.000  O
  Zn25     1.0000 0.35846  0.58862  0.47886  Biso   1.000  Zn
  Zn26     1.0000 0.34523  0.67272  0.44798  Biso   1.000  Zn
  Zn27     1.0000 0.43040  0.75835  0.48023  Biso   1.000  Zn
  Zn28     1.0000 0.25735  0.65941  0.48185  Biso   1.000  Zn
  Zn29     1.0000 0.41138  0.76984  0.14553  Biso   1.000  Zn
  Zn30     1.0000 0.32728  0.67251  0.11464  Biso   1.000  Zn
  Zn31     1.0000 0.24165  0.67205  0.14689  Biso   1.000  Zn
  Zn32     1.0000 0.34059  0.59794  0.14851  Biso   1.000  Zn
  Zn33     1.0000 0.23016  0.64154  0.81220  Biso   1.000  Zn
  Zn34     1.0000 0.32749  0.65477  0.78131  Biso   1.000  Zn
  Zn35     1.0000 0.32795  0.56960  0.81356  Biso   1.000  Zn
  Zn36     1.0000 0.40206  0.74265  0.81518  Biso   1.000  Zn
  Zn37     1.0000 0.64154  0.41138  0.97886  Biso   1.000  Zn
  Zn38     1.0000 0.65477  0.32728  0.94798  Biso   1.000  Zn
  Zn39     1.0000 0.56960  0.24165  0.98023  Biso   1.000  Zn
  Zn40     1.0000 0.74265  0.34059  0.98185  Biso   1.000  Zn
  Zn41     1.0000 0.58862  0.23016  0.64553  Biso   1.000  Zn
  Zn42     1.0000 0.67272  0.32749  0.61464  Biso   1.000  Zn
  Zn43     1.0000 0.75835  0.32795  0.64689  Biso   1.000  Zn
  Zn44     1.0000 0.65941  0.40206  0.64851  Biso   1.000  Zn
  Zn45     1.0000 0.76984  0.35846  0.31220  Biso   1.000  Zn
  Zn46     1.0000 0.67251  0.34523  0.28131  Biso   1.000  Zn
  Zn47     1.0000 0.67205  0.43040  0.31356  Biso   1.000  Zn
  Zn48     1.0000 0.59794  0.25735  0.31518  Biso   1.000  Zn
  H289     1.0000 0.32070  0.52690  0.41093  Biso   1.000  H
  H290     1.0000 0.39890  0.36870  0.42613  Biso   1.000  H
  H291     1.0000 0.39860  0.44710  0.44673  Biso   1.000  H
  H292     1.0000 0.31680  0.47640  0.37823  Biso   1.000  H
  H293     1.0000 0.25100  0.40250  0.38413  Biso   1.000  H
  H294     1.0000 0.30320  0.30120  0.39403  Biso   1.000  H
  H295     1.0000 0.38710  0.34020  0.39113  Biso   1.000  H
  H296     1.0000 0.44650  0.45200  0.37643  Biso   1.000  H
  H297     1.0000 0.41120  0.47690  0.36223  Biso   1.000  H
  H298     1.0000 0.25810  0.29010  0.36583  Biso   1.000  H
  H299     1.0000 0.26940  0.35430  0.35383  Biso   1.000  H
  H300     1.0000 0.52110  0.43490  0.34893  Biso   1.000  H
  H301     1.0000 0.39790  0.25350  0.32363  Biso   1.000  H
  H302     1.0000 0.29590  0.23900  0.33783  Biso   1.000  H
  H303     1.0000 0.50500  0.58350  0.51613  Biso   1.000  H
  H304     1.0000 0.72370  0.79980  0.51613  Biso   1.000  H
  H305     1.0000 0.62970  0.78890  0.50003  Biso   1.000  H
  H306     1.0000 0.56760  0.55590  0.54483  Biso   1.000  H
  H307     1.0000 0.61500  0.54560  0.53083  Biso   1.000  H
  H308     1.0000 0.75150  0.66820  0.52793  Biso   1.000  H
  H309     1.0000 0.76260  0.72910  0.54103  Biso   1.000  H
  H310     1.0000 0.69600  0.54160  0.54713  Biso   1.000  H
  H311     1.0000 0.76240  0.61150  0.55463  Biso   1.000  H
  H312     1.0000 0.61720  0.65800  0.56243  Biso   1.000  H
  H313     1.0000 0.69960  0.70310  0.56673  Biso   1.000  H
  H314     1.0000 0.69900  0.48290  0.57983  Biso   1.000  H
  H315     1.0000 0.60740  0.53820  0.61703  Biso   1.000  H
  H316     1.0000 0.60150  0.61980  0.59943  Biso   1.000  H
  H317     1.0000 0.11560  0.51260  0.50393  Biso   1.000  H
  H318     1.0000 0.11960  0.31590  0.52803  Biso   1.000  H
  H319     1.0000 0.20830  0.39430  0.50993  Biso   1.000  H
  H320     1.0000 0.02840  0.49550  0.53303  Biso   1.000  H
  H321     1.0000 0.96980  0.43000  0.52253  Biso   1.000  H
  H322     1.0000 0.01450  0.31820  0.55083  Biso   1.000  H
  H323     1.0000 0.96010  0.29780  0.53543  Biso   1.000  H
  H324     1.0000 0.89560  0.40440  0.54823  Biso   1.000  H
  H325     1.0000 0.88180  0.32540  0.54743  Biso   1.000  H
  H326     1.0000 0.07290  0.42790  0.56223  Biso   1.000  H
  H327     1.0000 0.05100  0.48750  0.56103  Biso   1.000  H
  H328     1.0000 0.81060  0.32620  0.57813  Biso   1.000  H
  H329     1.0000 0.95480  0.39800  0.61713  Biso   1.000  H
  H330     1.0000 0.04240  0.43610  0.59803  Biso   1.000  H
  H331     1.0000 0.97130  0.58390  0.50093  Biso   1.000  H
  H332     1.0000 0.03540  0.58700  0.51123  Biso   1.000  H
  H333     1.0000 0.01280  0.54760  0.49343  Biso   1.000  H
  H334     1.0000 0.97970  0.67000  0.48793  Biso   1.000  H
  H335     1.0000 0.02840  0.69430  0.47153  Biso   1.000  H
  H336     1.0000 0.05160  0.74360  0.48783  Biso   1.000  H
  H337     1.0000 0.47310  0.79380  0.07760  Biso   1.000  H
  H338     1.0000 0.63130  0.03020  0.09280  Biso   1.000  H
  H339     1.0000 0.55290  0.95150  0.11340  Biso   1.000  H
  H340     1.0000 0.52360  0.84040  0.04490  Biso   1.000  H
  H341     1.0000 0.59750  0.84850  0.05080  Biso   1.000  H
  H342     1.0000 0.69880  0.00200  0.06070  Biso   1.000  H
  H343     1.0000 0.65980  0.04690  0.05780  Biso   1.000  H
  H344     1.0000 0.54800  0.99450  0.04310  Biso   1.000  H
  H345     1.0000 0.52310  0.93430  0.02890  Biso   1.000  H
  H346     1.0000 0.70990  0.96800  0.03250  Biso   1.000  H
  H347     1.0000 0.64570  0.91510  0.02050  Biso   1.000  H
  H348     1.0000 0.56510  0.08620  0.01560  Biso   1.000  H
  H349     1.0000 0.74650  0.14440  0.99030  Biso   1.000  H
  H350     1.0000 0.76100  0.05690  0.00450  Biso   1.000  H
  H351     1.0000 0.41650  0.92150  0.18280  Biso   1.000  H
  H352     1.0000 0.20020  0.92390  0.18280  Biso   1.000  H
  H353     1.0000 0.21110  0.84080  0.16670  Biso   1.000  H
  H354     1.0000 0.44410  0.01170  0.21150  Biso   1.000  H
  H355     1.0000 0.45440  0.06940  0.19750  Biso   1.000  H
  H356     1.0000 0.33180  0.08330  0.19460  Biso   1.000  H
  H357     1.0000 0.27090  0.03350  0.20770  Biso   1.000  H
  H358     1.0000 0.45840  0.15440  0.21380  Biso   1.000  H
  H359     1.0000 0.38850  0.15090  0.22130  Biso   1.000  H
  H360     1.0000 0.34200  0.95920  0.22910  Biso   1.000  H
  H361     1.0000 0.29690  0.99650  0.23340  Biso   1.000  H
  H362     1.0000 0.51710  0.21610  0.24650  Biso   1.000  H
  H363     1.0000 0.46180  0.06920  0.28370  Biso   1.000  H
  H364     1.0000 0.38020  0.98170  0.26610  Biso   1.000  H
  H365     1.0000 0.48740  0.60300  0.17060  Biso   1.000  H
  H366     1.0000 0.68410  0.80370  0.19470  Biso   1.000  H
  H367     1.0000 0.60570  0.81400  0.17660  Biso   1.000  H
  H368     1.0000 0.50450  0.53290  0.19970  Biso   1.000  H
  H369     1.0000 0.57000  0.53980  0.18920  Biso   1.000  H
  H370     1.0000 0.68180  0.69630  0.21750  Biso   1.000  H
  H371     1.0000 0.70220  0.66230  0.20210  Biso   1.000  H
  H372     1.0000 0.59560  0.49120  0.21490  Biso   1.000  H
  H373     1.0000 0.67460  0.55640  0.21410  Biso   1.000  H
  H374     1.0000 0.57210  0.64500  0.22890  Biso   1.000  H
  H375     1.0000 0.51250  0.56350  0.22770  Biso   1.000  H
  H376     1.0000 0.67380  0.48440  0.24480  Biso   1.000  H
  H377     1.0000 0.60200  0.55680  0.28380  Biso   1.000  H
  H378     1.0000 0.56390  0.60630  0.26470  Biso   1.000  H
  H379     1.0000 0.41610  0.38740  0.16760  Biso   1.000  H
  H380     1.0000 0.41300  0.44840  0.17790  Biso   1.000  H
  H381     1.0000 0.45240  0.46520  0.16010  Biso   1.000  H
  H382     1.0000 0.33000  0.30970  0.15460  Biso   1.000  H
  H383     1.0000 0.30570  0.33410  0.13820  Biso   1.000  H
  H384     1.0000 0.25640  0.30800  0.15450  Biso   1.000  H
  H385     1.0000 0.20620  0.67930  0.74427  Biso   1.000  H
  H386     1.0000 0.96980  0.60110  0.75947  Biso   1.000  H
  H387     1.0000 0.04850  0.60140  0.78007  Biso   1.000  H
  H388     1.0000 0.15960  0.68320  0.71157  Biso   1.000  H
  H389     1.0000 0.15150  0.74900  0.71747  Biso   1.000  H
  H390     1.0000 0.99800  0.69680  0.72737  Biso   1.000  H
  H391     1.0000 0.95310  0.61290  0.72447  Biso   1.000  H
  H392     1.0000 0.00550  0.55350  0.70977  Biso   1.000  H
  H393     1.0000 0.06570  0.58880  0.69557  Biso   1.000  H
  H394     1.0000 0.03200  0.74190  0.69917  Biso   1.000  H
  H395     1.0000 0.08490  0.73060  0.68717  Biso   1.000  H
  H396     1.0000 0.91380  0.47890  0.68227  Biso   1.000  H
  H397     1.0000 0.85560  0.60210  0.65697  Biso   1.000  H
  H398     1.0000 0.94310  0.70410  0.67117  Biso   1.000  H
  H399     1.0000 0.07850  0.49500  0.84947  Biso   1.000  H
  H400     1.0000 0.07610  0.27630  0.84947  Biso   1.000  H
  H401     1.0000 0.15920  0.37030  0.83337  Biso   1.000  H
  H402     1.0000 0.98830  0.43240  0.87817  Biso   1.000  H
  H403     1.0000 0.93060  0.38500  0.86417  Biso   1.000  H
  H404     1.0000 0.91670  0.24850  0.86127  Biso   1.000  H
  H405     1.0000 0.96650  0.23740  0.87437  Biso   1.000  H
  H406     1.0000 0.84560  0.30400  0.88047  Biso   1.000  H
  H407     1.0000 0.84910  0.23760  0.88797  Biso   1.000  H
  H408     1.0000 0.04080  0.38280  0.89577  Biso   1.000  H
  H409     1.0000 0.00350  0.30040  0.90007  Biso   1.000  H
  H410     1.0000 0.78390  0.30100  0.91317  Biso   1.000  H
  H411     1.0000 0.93080  0.39260  0.95037  Biso   1.000  H
  H412     1.0000 0.01830  0.39850  0.93277  Biso   1.000  H
  H413     1.0000 0.39700  0.88440  0.83727  Biso   1.000  H
  H414     1.0000 0.19630  0.88040  0.86137  Biso   1.000  H
  H415     1.0000 0.18600  0.79170  0.84327  Biso   1.000  H
  H416     1.0000 0.46710  0.97160  0.86637  Biso   1.000  H
  H417     1.0000 0.46020  0.03020  0.85587  Biso   1.000  H
  H418     1.0000 0.30370  0.98550  0.88417  Biso   1.000  H
  H419     1.0000 0.33770  0.03990  0.86877  Biso   1.000  H
  H420     1.0000 0.50880  0.10440  0.88157  Biso   1.000  H
  H421     1.0000 0.44360  0.11820  0.88077  Biso   1.000  H
  H422     1.0000 0.35500  0.92710  0.89557  Biso   1.000  H
  H423     1.0000 0.43650  0.94900  0.89437  Biso   1.000  H
  H424     1.0000 0.51560  0.18940  0.91147  Biso   1.000  H
  H425     1.0000 0.44320  0.04520  0.95047  Biso   1.000  H
  H426     1.0000 0.39370  0.95760  0.93137  Biso   1.000  H
  H427     1.0000 0.61260  0.02870  0.83427  Biso   1.000  H
  H428     1.0000 0.55160  0.96460  0.84457  Biso   1.000  H
  H429     1.0000 0.53480  0.98720  0.82677  Biso   1.000  H
  H430     1.0000 0.69030  0.02030  0.82127  Biso   1.000  H
  H431     1.0000 0.66590  0.97160  0.80487  Biso   1.000  H
  H432     1.0000 0.69200  0.94840  0.82117  Biso   1.000  H
  H433     1.0000 0.67930  0.47310  0.91093  Biso   1.000  H
  H434     1.0000 0.60110  0.63130  0.92613  Biso   1.000  H
  H435     1.0000 0.60140  0.55290  0.94673  Biso   1.000  H
  H436     1.0000 0.68320  0.52360  0.87823  Biso   1.000  H
  H437     1.0000 0.74900  0.59750  0.88413  Biso   1.000  H
  H438     1.0000 0.69680  0.69880  0.89403  Biso   1.000  H
  H439     1.0000 0.61290  0.65980  0.89113  Biso   1.000  H
  H440     1.0000 0.55350  0.54800  0.87643  Biso   1.000  H
  H441     1.0000 0.58880  0.52310  0.86223  Biso   1.000  H
  H442     1.0000 0.74190  0.70990  0.86583  Biso   1.000  H
  H443     1.0000 0.73060  0.64570  0.85383  Biso   1.000  H
  H444     1.0000 0.47890  0.56510  0.84893  Biso   1.000  H
  H445     1.0000 0.60210  0.74650  0.82363  Biso   1.000  H
  H446     1.0000 0.70410  0.76100  0.83783  Biso   1.000  H
  H447     1.0000 0.49500  0.41650  0.01613  Biso   1.000  H
  H448     1.0000 0.27630  0.20020  0.01613  Biso   1.000  H
  H449     1.0000 0.37030  0.21110  0.00003  Biso   1.000  H
  H450     1.0000 0.43240  0.44410  0.04483  Biso   1.000  H
  H451     1.0000 0.38500  0.45440  0.03083  Biso   1.000  H
  H452     1.0000 0.24850  0.33180  0.02793  Biso   1.000  H
  H453     1.0000 0.23740  0.27090  0.04103  Biso   1.000  H
  H454     1.0000 0.30400  0.45840  0.04713  Biso   1.000  H
  H455     1.0000 0.23760  0.38850  0.05463  Biso   1.000  H
  H456     1.0000 0.38280  0.34200  0.06243  Biso   1.000  H
  H457     1.0000 0.30040  0.29690  0.06673  Biso   1.000  H
  H458     1.0000 0.30100  0.51710  0.07983  Biso   1.000  H
  H459     1.0000 0.39260  0.46180  0.11703  Biso   1.000  H
  H460     1.0000 0.39850  0.38020  0.09943  Biso   1.000  H
  H461     1.0000 0.88440  0.48740  0.00393  Biso   1.000  H
  H462     1.0000 0.88040  0.68410  0.02803  Biso   1.000  H
  H463     1.0000 0.79170  0.60570  0.00993  Biso   1.000  H
  H464     1.0000 0.97160  0.50450  0.03303  Biso   1.000  H
  H465     1.0000 0.03020  0.57000  0.02253  Biso   1.000  H
  H466     1.0000 0.98550  0.68180  0.05083  Biso   1.000  H
  H467     1.0000 0.03990  0.70220  0.03543  Biso   1.000  H
  H468     1.0000 0.10440  0.59560  0.04823  Biso   1.000  H
  H469     1.0000 0.11820  0.67460  0.04743  Biso   1.000  H
  H470     1.0000 0.92710  0.57210  0.06223  Biso   1.000  H
  H471     1.0000 0.94900  0.51250  0.06103  Biso   1.000  H
  H472     1.0000 0.18940  0.67380  0.07813  Biso   1.000  H
  H473     1.0000 0.04520  0.60200  0.11713  Biso   1.000  H
  H474     1.0000 0.95760  0.56390  0.09803  Biso   1.000  H
  H475     1.0000 0.02870  0.41610  0.00093  Biso   1.000  H
  H476     1.0000 0.96460  0.41300  0.01123  Biso   1.000  H
  H477     1.0000 0.98720  0.45240  0.99343  Biso   1.000  H
  H478     1.0000 0.02030  0.33000  0.98793  Biso   1.000  H
  H479     1.0000 0.97160  0.30570  0.97153  Biso   1.000  H
  H480     1.0000 0.94840  0.25640  0.98783  Biso   1.000  H
  H481     1.0000 0.52690  0.20620  0.57760  Biso   1.000  H
  H482     1.0000 0.36870  0.96980  0.59280  Biso   1.000  H
  H483     1.0000 0.44710  0.04850  0.61340  Biso   1.000  H
  H484     1.0000 0.47640  0.15960  0.54490  Biso   1.000  H
  H485     1.0000 0.40250  0.15150  0.55080  Biso   1.000  H
  H486     1.0000 0.30120  0.99800  0.56070  Biso   1.000  H
  H487     1.0000 0.34020  0.95310  0.55780  Biso   1.000  H
  H488     1.0000 0.45200  0.00550  0.54310  Biso   1.000  H
  H489     1.0000 0.47690  0.06570  0.52890  Biso   1.000  H
  H490     1.0000 0.29010  0.03200  0.53250  Biso   1.000  H
  H491     1.0000 0.35430  0.08490  0.52050  Biso   1.000  H
  H492     1.0000 0.43490  0.91380  0.51560  Biso   1.000  H
  H493     1.0000 0.25350  0.85560  0.49030  Biso   1.000  H
  H494     1.0000 0.23900  0.94310  0.50450  Biso   1.000  H
  H495     1.0000 0.58350  0.07850  0.68280  Biso   1.000  H
  H496     1.0000 0.79980  0.07610  0.68280  Biso   1.000  H
  H497     1.0000 0.78890  0.15920  0.66670  Biso   1.000  H
  H498     1.0000 0.55590  0.98830  0.71150  Biso   1.000  H
  H499     1.0000 0.54560  0.93060  0.69750  Biso   1.000  H
  H500     1.0000 0.66820  0.91670  0.69460  Biso   1.000  H
  H501     1.0000 0.72910  0.96650  0.70770  Biso   1.000  H
  H502     1.0000 0.54160  0.84560  0.71380  Biso   1.000  H
  H503     1.0000 0.61150  0.84910  0.72130  Biso   1.000  H
  H504     1.0000 0.65800  0.04080  0.72910  Biso   1.000  H
  H505     1.0000 0.70310  0.00350  0.73340  Biso   1.000  H
  H506     1.0000 0.48290  0.78390  0.74650  Biso   1.000  H
  H507     1.0000 0.53820  0.93080  0.78370  Biso   1.000  H
  H508     1.0000 0.61980  0.01830  0.76610  Biso   1.000  H
  H509     1.0000 0.51260  0.39700  0.67060  Biso   1.000  H
  H510     1.0000 0.31590  0.19630  0.69470  Biso   1.000  H
  H511     1.0000 0.39430  0.18600  0.67660  Biso   1.000  H
  H512     1.0000 0.49550  0.46710  0.69970  Biso   1.000  H
  H513     1.0000 0.43000  0.46020  0.68920  Biso   1.000  H
  H514     1.0000 0.31820  0.30370  0.71750  Biso   1.000  H
  H515     1.0000 0.29780  0.33770  0.70210  Biso   1.000  H
  H516     1.0000 0.40440  0.50880  0.71490  Biso   1.000  H
  H517     1.0000 0.32540  0.44360  0.71410  Biso   1.000  H
  H518     1.0000 0.42790  0.35500  0.72890  Biso   1.000  H
  H519     1.0000 0.48750  0.43650  0.72770  Biso   1.000  H
  H520     1.0000 0.32620  0.51560  0.74480  Biso   1.000  H
  H521     1.0000 0.39800  0.44320  0.78380  Biso   1.000  H
  H522     1.0000 0.43610  0.39370  0.76470  Biso   1.000  H
  H523     1.0000 0.58390  0.61260  0.66760  Biso   1.000  H
  H524     1.0000 0.58700  0.55160  0.67790  Biso   1.000  H
  H525     1.0000 0.54760  0.53480  0.66010  Biso   1.000  H
  H526     1.0000 0.67000  0.69030  0.65460  Biso   1.000  H
  H527     1.0000 0.69430  0.66590  0.63820  Biso   1.000  H
  H528     1.0000 0.74360  0.69200  0.65450  Biso   1.000  H
  H529     1.0000 0.79380  0.32070  0.24427  Biso   1.000  H
  H530     1.0000 0.03020  0.39890  0.25947  Biso   1.000  H
  H531     1.0000 0.95150  0.39860  0.28007  Biso   1.000  H
  H532     1.0000 0.84040  0.31680  0.21157  Biso   1.000  H
  H533     1.0000 0.84850  0.25100  0.21747  Biso   1.000  H
  H534     1.0000 0.00200  0.30320  0.22737  Biso   1.000  H
  H535     1.0000 0.04690  0.38710  0.22447  Biso   1.000  H
  H536     1.0000 0.99450  0.44650  0.20977  Biso   1.000  H
  H537     1.0000 0.93430  0.41120  0.19557  Biso   1.000  H
  H538     1.0000 0.96800  0.25810  0.19917  Biso   1.000  H
  H539     1.0000 0.91510  0.26940  0.18717  Biso   1.000  H
  H540     1.0000 0.08620  0.52110  0.18227  Biso   1.000  H
  H541     1.0000 0.14440  0.39790  0.15697  Biso   1.000  H
  H542     1.0000 0.05690  0.29590  0.17117  Biso   1.000  H
  H543     1.0000 0.92150  0.50500  0.34947  Biso   1.000  H
  H544     1.0000 0.92390  0.72370  0.34947  Biso   1.000  H
  H545     1.0000 0.84080  0.62970  0.33337  Biso   1.000  H
  H546     1.0000 0.01170  0.56760  0.37817  Biso   1.000  H
  H547     1.0000 0.06940  0.61500  0.36417  Biso   1.000  H
  H548     1.0000 0.08330  0.75150  0.36127  Biso   1.000  H
  H549     1.0000 0.03350  0.76260  0.37437  Biso   1.000  H
  H550     1.0000 0.15440  0.69600  0.38047  Biso   1.000  H
  H551     1.0000 0.15090  0.76240  0.38797  Biso   1.000  H
  H552     1.0000 0.95920  0.61720  0.39577  Biso   1.000  H
  H553     1.0000 0.99650  0.69960  0.40007  Biso   1.000  H
  H554     1.0000 0.21610  0.69900  0.41317  Biso   1.000  H
  H555     1.0000 0.06920  0.60740  0.45037  Biso   1.000  H
  H556     1.0000 0.98170  0.60150  0.43277  Biso   1.000  H
  H557     1.0000 0.60300  0.11560  0.33727  Biso   1.000  H
  H558     1.0000 0.80370  0.11960  0.36137  Biso   1.000  H
  H559     1.0000 0.81400  0.20830  0.34327  Biso   1.000  H
  H560     1.0000 0.53290  0.02840  0.36637  Biso   1.000  H
  H561     1.0000 0.53980  0.96980  0.35587  Biso   1.000  H
  H562     1.0000 0.69630  0.01450  0.38417  Biso   1.000  H
  H563     1.0000 0.66230  0.96010  0.36877  Biso   1.000  H
  H564     1.0000 0.49120  0.89560  0.38157  Biso   1.000  H
  H565     1.0000 0.55640  0.88180  0.38077  Biso   1.000  H
  H566     1.0000 0.64500  0.07290  0.39557  Biso   1.000  H
  H567     1.0000 0.56350  0.05100  0.39437  Biso   1.000  H
  H568     1.0000 0.48440  0.81060  0.41147  Biso   1.000  H
  H569     1.0000 0.55680  0.95480  0.45047  Biso   1.000  H
  H570     1.0000 0.60630  0.04240  0.43137  Biso   1.000  H
  H571     1.0000 0.38740  0.97130  0.33427  Biso   1.000  H
  H572     1.0000 0.44840  0.03540  0.34457  Biso   1.000  H
  H573     1.0000 0.46520  0.01280  0.32677  Biso   1.000  H
  H574     1.0000 0.30970  0.97970  0.32127  Biso   1.000  H
  H575     1.0000 0.33410  0.02840  0.30487  Biso   1.000  H
  H576     1.0000 0.30800  0.05160  0.32117  Biso   1.000  H
  C361     1.0000 0.35850  0.49550  0.43051  Biso   1.000  C
  C362     1.0000 0.33496  0.49442  0.41415  Biso   1.000  C
  C363     1.0000 0.33250  0.44520  0.40247  Biso   1.000  C
  C364     1.0000 0.35700  0.39830  0.40654  Biso   1.000  C
  C365     1.0000 0.38230  0.39970  0.42323  Biso   1.000  C
  C366     1.0000 0.38300  0.44700  0.43561  Biso   1.000  C
  C367     1.0000 0.30280  0.43170  0.38416  Biso   1.000  C
  C368     1.0000 0.33840  0.39080  0.37574  Biso   1.000  C
  C369     1.0000 0.34630  0.34720  0.39237  Biso   1.000  C
  C370     1.0000 0.40870  0.43570  0.36797  Biso   1.000  C
  C371     1.0000 0.41370  0.38430  0.35489  Biso   1.000  C
  C372     1.0000 0.34970  0.33020  0.35147  Biso   1.000  C
  C373     1.0000 0.29330  0.33590  0.36111  Biso   1.000  C
  C374     1.0000 0.47700  0.39460  0.34665  Biso   1.000  C
  C375     1.0000 0.47150  0.34420  0.33544  Biso   1.000  C
  C376     1.0000 0.40270  0.28710  0.33183  Biso   1.000  C
  C377     1.0000 0.34080  0.27830  0.34005  Biso   1.000  C
  C378     1.0000 0.53520  0.35250  0.32615  Biso   1.000  C
  C379     1.0000 0.35785  0.54636  0.44335  Biso   1.000  C
  C380     1.0000 0.55630  0.68990  0.50676  Biso   1.000  C
  C381     1.0000 0.54760  0.62710  0.51645  Biso   1.000  C
  C382     1.0000 0.60450  0.63600  0.52576  Biso   1.000  C
  C383     1.0000 0.67030  0.69790  0.52486  Biso   1.000  C
  C384     1.0000 0.68020  0.75710  0.51596  Biso   1.000  C
  C385     1.0000 0.62300  0.75030  0.50675  Biso   1.000  C
  C386     1.0000 0.60940  0.58050  0.53752  Biso   1.000  C
  C387     1.0000 0.67710  0.62860  0.54805  Biso   1.000  C
  C388     1.0000 0.72740  0.68580  0.53525  Biso   1.000  C
  C389     1.0000 0.71050  0.58330  0.55437  Biso   1.000  C
  C390     1.0000 0.67980  0.56180  0.57246  Biso   1.000  C
  C391     1.0000 0.65110  0.60240  0.57797  Biso   1.000  C
  C392     1.0000 0.66070  0.65570  0.56390  Biso   1.000  C
  C393     1.0000 0.68070  0.51150  0.58354  Biso   1.000  C
  C394     1.0000 0.65430  0.50380  0.60029  Biso   1.000  C
  C395     1.0000 0.62520  0.54440  0.60583  Biso   1.000  C
  C396     1.0000 0.62170  0.59300  0.59553  Biso   1.000  C
  C397     1.0000 0.65960  0.45170  0.61140  Biso   1.000  C
  C398     1.0000 0.50090  0.68460  0.49637  Biso   1.000  C
  C399     1.0000 0.17120  0.46240  0.50547  Biso   1.000  C
  C400     1.0000 0.11820  0.47590  0.50952  Biso   1.000  C
  C401     1.0000 0.06810  0.43660  0.52172  Biso   1.000  C
  C402     1.0000 0.06420  0.37140  0.52837  Biso   1.000  C
  C403     1.0000 0.11920  0.35610  0.52373  Biso   1.000  C
  C404     1.0000 0.17110  0.40260  0.51277  Biso   1.000  C
  C405     1.0000 0.01050  0.44570  0.53014  Biso   1.000  C
  C406     1.0000 0.98950  0.40120  0.54575  Biso   1.000  C
  C407     1.0000 0.00210  0.33650  0.54081  Biso   1.000  C
  C408     1.0000 0.91320  0.37310  0.55194  Biso   1.000  C
  C409     1.0000 0.91540  0.37100  0.57113  Biso   1.000  C
  C410     1.0000 0.98320  0.40310  0.57576  Biso   1.000  C
  C411     1.0000 0.03283  0.43633  0.56133  Biso   1.000  C
  C412     1.0000 0.85736  0.34719  0.58224  Biso   1.000  C
  C413     1.0000 0.87230  0.35620  0.59995  Biso   1.000  C
  C414     1.0000 0.94400  0.39080  0.60546  Biso   1.000  C
  C415     1.0000 0.99530  0.41280  0.59410  Biso   1.000  C
  C416     1.0000 0.81210  0.33610  0.61223  Biso   1.000  C
  C417     1.0000 0.22950  0.51170  0.49292  Biso   1.000  C
  C418     1.0000 0.14700  0.69040  0.48859  Biso   1.000  C
  C419     1.0000 0.01740  0.58750  0.49994  Biso   1.000  C
  C420     1.0000 0.02830  0.69490  0.48387  Biso   1.000  C
  C421     1.0000 0.50450  0.86300  0.09718  Biso   1.000  C
  C422     1.0000 0.50558  0.84054  0.08082  Biso   1.000  C
  C423     1.0000 0.55480  0.88730  0.06914  Biso   1.000  C
  C424     1.0000 0.60170  0.95870  0.07321  Biso   1.000  C
  C425     1.0000 0.60030  0.98260  0.08990  Biso   1.000  C
  C426     1.0000 0.55300  0.93600  0.10228  Biso   1.000  C
  C427     1.0000 0.56830  0.87110  0.05083  Biso   1.000  C
  C428     1.0000 0.60920  0.94760  0.04241  Biso   1.000  C
  C429     1.0000 0.65280  0.99910  0.05904  Biso   1.000  C
  C430     1.0000 0.56430  0.97300  0.03464  Biso   1.000  C
  C431     1.0000 0.61570  0.02940  0.02156  Biso   1.000  C
  C432     1.0000 0.66980  0.01950  0.01814  Biso   1.000  C
  C433     1.0000 0.66410  0.95740  0.02778  Biso   1.000  C
  C434     1.0000 0.60540  0.08240  0.01332  Biso   1.000  C
  C435     1.0000 0.65580  0.12730  0.00211  Biso   1.000  C
  C436     1.0000 0.71290  0.11560  0.99850  Biso   1.000  C
  C437     1.0000 0.72170  0.06250  0.00672  Biso   1.000  C
  C438     1.0000 0.64750  0.18270  0.99282  Biso   1.000  C
  C439     1.0000 0.45364  0.81149  0.11002  Biso   1.000  C
  C440     1.0000 0.31010  0.86640  0.17343  Biso   1.000  C
  C441     1.0000 0.37290  0.92050  0.18312  Biso   1.000  C
  C442     1.0000 0.36400  0.96850  0.19243  Biso   1.000  C
  C443     1.0000 0.30210  0.97240  0.19153  Biso   1.000  C
  C444     1.0000 0.24290  0.92310  0.18263  Biso   1.000  C
  C445     1.0000 0.24970  0.87270  0.17342  Biso   1.000  C
  C446     1.0000 0.41950  0.02890  0.20419  Biso   1.000  C
  C447     1.0000 0.37140  0.04850  0.21472  Biso   1.000  C
  C448     1.0000 0.31420  0.04160  0.20192  Biso   1.000  C
  C449     1.0000 0.41670  0.12720  0.22104  Biso   1.000  C
  C450     1.0000 0.43820  0.11800  0.23913  Biso   1.000  C
  C451     1.0000 0.39760  0.04870  0.24464  Biso   1.000  C
  C452     1.0000 0.34430  0.00500  0.23057  Biso   1.000  C
  C453     1.0000 0.48850  0.16920  0.25021  Biso   1.000  C
  C454     1.0000 0.49620  0.15050  0.26696  Biso   1.000  C
  C455     1.0000 0.45560  0.08080  0.27250  Biso   1.000  C
  C456     1.0000 0.40700  0.02870  0.26220  Biso   1.000  C
  C457     1.0000 0.54830  0.20790  0.27807  Biso   1.000  C
  C458     1.0000 0.31540  0.81630  0.16304  Biso   1.000  C
  C459     1.0000 0.53760  0.70880  0.17214  Biso   1.000  C
  C460     1.0000 0.52410  0.64230  0.17619  Biso   1.000  C
  C461     1.0000 0.56340  0.63150  0.18839  Biso   1.000  C
  C462     1.0000 0.62860  0.69280  0.19504  Biso   1.000  C
  C463     1.0000 0.64390  0.76310  0.19040  Biso   1.000  C
  C464     1.0000 0.59740  0.76850  0.17944  Biso   1.000  C
  C465     1.0000 0.55430  0.56480  0.19681  Biso   1.000  C
  C466     1.0000 0.59880  0.58830  0.21242  Biso   1.000  C
  C467     1.0000 0.66350  0.66560  0.20748  Biso   1.000  C
  C468     1.0000 0.62690  0.54010  0.21861  Biso   1.000  C
  C469     1.0000 0.62900  0.54440  0.23780  Biso   1.000  C
  C470     1.0000 0.59690  0.58010  0.24243  Biso   1.000  C
  C471     1.0000 0.56367  0.59650  0.22800  Biso   1.000  C
  C472     1.0000 0.65281  0.51017  0.24891  Biso   1.000  C
  C473     1.0000 0.64380  0.51610  0.26662  Biso   1.000  C
  C474     1.0000 0.60920  0.55320  0.27213  Biso   1.000  C
  C475     1.0000 0.58720  0.58250  0.26077  Biso   1.000  C
  C476     1.0000 0.66390  0.47600  0.27890  Biso   1.000  C
  C477     1.0000 0.48830  0.71780  0.15959  Biso   1.000  C
  C478     1.0000 0.30960  0.45660  0.15526  Biso   1.000  C
  C479     1.0000 0.41250  0.42990  0.16661  Biso   1.000  C
  C480     1.0000 0.30510  0.33340  0.15054  Biso   1.000  C
  C481     1.0000 0.13700  0.64150  0.76385  Biso   1.000  C
  C482     1.0000 0.15946  0.66504  0.74749  Biso   1.000  C
  C483     1.0000 0.11270  0.66750  0.73581  Biso   1.000  C
  C484     1.0000 0.04130  0.64300  0.73988  Biso   1.000  C
  C485     1.0000 0.01740  0.61770  0.75657  Biso   1.000  C
  C486     1.0000 0.06400  0.61700  0.76895  Biso   1.000  C
  C487     1.0000 0.12890  0.69720  0.71750  Biso   1.000  C
  C488     1.0000 0.05240  0.66160  0.70908  Biso   1.000  C
  C489     1.0000 0.00090  0.65370  0.72571  Biso   1.000  C
  C490     1.0000 0.02700  0.59130  0.70131  Biso   1.000  C
  C491     1.0000 0.97060  0.58630  0.68823  Biso   1.000  C
  C492     1.0000 0.98050  0.65030  0.68481  Biso   1.000  C
  C493     1.0000 0.04260  0.70670  0.69445  Biso   1.000  C
  C494     1.0000 0.91760  0.52300  0.67999  Biso   1.000  C
  C495     1.0000 0.87270  0.52850  0.66878  Biso   1.000  C
  C496     1.0000 0.88440  0.59730  0.66517  Biso   1.000  C
  C497     1.0000 0.93750  0.65920  0.67339  Biso   1.000  C
  C498     1.0000 0.81730  0.46480  0.65949  Biso   1.000  C
  C499     1.0000 0.18851  0.64215  0.77669  Biso   1.000  C
  C500     1.0000 0.13360  0.44370  0.84010  Biso   1.000  C
  C501     1.0000 0.07950  0.45240  0.84979  Biso   1.000  C
  C502     1.0000 0.03150  0.39550  0.85910  Biso   1.000  C
  C503     1.0000 0.02760  0.32970  0.85820  Biso   1.000  C
  C504     1.0000 0.07690  0.31980  0.84930  Biso   1.000  C
  C505     1.0000 0.12730  0.37700  0.84009  Biso   1.000  C
  C506     1.0000 0.97110  0.39060  0.87086  Biso   1.000  C
  C507     1.0000 0.95150  0.32290  0.88139  Biso   1.000  C
  C508     1.0000 0.95840  0.27260  0.86859  Biso   1.000  C
  C509     1.0000 0.87280  0.28950  0.88771  Biso   1.000  C
  C510     1.0000 0.88200  0.32020  0.90580  Biso   1.000  C
  C511     1.0000 0.95130  0.34890  0.91131  Biso   1.000  C
  C512     1.0000 0.99500  0.33930  0.89724  Biso   1.000  C
  C513     1.0000 0.83080  0.31930  0.91688  Biso   1.000  C
  C514     1.0000 0.84950  0.34570  0.93363  Biso   1.000  C
  C515     1.0000 0.91920  0.37480  0.93917  Biso   1.000  C
  C516     1.0000 0.97130  0.37830  0.92887  Biso   1.000  C
  C517     1.0000 0.79210  0.34040  0.94474  Biso   1.000  C
  C518     1.0000 0.18370  0.49910  0.82971  Biso   1.000  C
  C519     1.0000 0.29120  0.82880  0.83881  Biso   1.000  C
  C520     1.0000 0.35770  0.88180  0.84286  Biso   1.000  C
  C521     1.0000 0.36850  0.93190  0.85506  Biso   1.000  C
  C522     1.0000 0.30720  0.93580  0.86171  Biso   1.000  C
  C523     1.0000 0.23690  0.88080  0.85707  Biso   1.000  C
  C524     1.0000 0.23150  0.82890  0.84611  Biso   1.000  C
  C525     1.0000 0.43520  0.98950  0.86348  Biso   1.000  C
  C526     1.0000 0.41170  0.01050  0.87909  Biso   1.000  C
  C527     1.0000 0.33440  0.99790  0.87415  Biso   1.000  C
  C528     1.0000 0.45990  0.08680  0.88528  Biso   1.000  C
  C529     1.0000 0.45560  0.08460  0.90447  Biso   1.000  C
  C530     1.0000 0.41990  0.01680  0.90910  Biso   1.000  C
  C531     1.0000 0.40350  0.96717  0.89467  Biso   1.000  C
  C532     1.0000 0.48983  0.14264  0.91558  Biso   1.000  C
  C533     1.0000 0.48390  0.12770  0.93329  Biso   1.000  C
  C534     1.0000 0.44680  0.05600  0.93880  Biso   1.000  C
  C535     1.0000 0.41750  0.00470  0.92744  Biso   1.000  C
  C536     1.0000 0.52400  0.18790  0.94557  Biso   1.000  C
  C537     1.0000 0.28220  0.77050  0.82626  Biso   1.000  C
  C538     1.0000 0.54340  0.85300  0.82193  Biso   1.000  C
  C539     1.0000 0.57010  0.98260  0.83328  Biso   1.000  C
  C540     1.0000 0.66660  0.97170  0.81721  Biso   1.000  C
  C541     1.0000 0.64150  0.50450  0.93051  Biso   1.000  C
  C542     1.0000 0.66504  0.50558  0.91415  Biso   1.000  C
  C543     1.0000 0.66750  0.55480  0.90247  Biso   1.000  C
  C544     1.0000 0.64300  0.60170  0.90654  Biso   1.000  C
  C545     1.0000 0.61770  0.60030  0.92323  Biso   1.000  C
  C546     1.0000 0.61700  0.55300  0.93561  Biso   1.000  C
  C547     1.0000 0.69720  0.56830  0.88416  Biso   1.000  C
  C548     1.0000 0.66160  0.60920  0.87574  Biso   1.000  C
  C549     1.0000 0.65370  0.65280  0.89237  Biso   1.000  C
  C550     1.0000 0.59130  0.56430  0.86797  Biso   1.000  C
  C551     1.0000 0.58630  0.61570  0.85489  Biso   1.000  C
  C552     1.0000 0.65030  0.66980  0.85147  Biso   1.000  C
  C553     1.0000 0.70670  0.66410  0.86111  Biso   1.000  C
  C554     1.0000 0.52300  0.60540  0.84665  Biso   1.000  C
  C555     1.0000 0.52850  0.65580  0.83544  Biso   1.000  C
  C556     1.0000 0.59730  0.71290  0.83183  Biso   1.000  C
  C557     1.0000 0.65920  0.72170  0.84005  Biso   1.000  C
  C558     1.0000 0.46480  0.64750  0.82615  Biso   1.000  C
  C559     1.0000 0.64215  0.45364  0.94335  Biso   1.000  C
  C560     1.0000 0.44370  0.31010  0.00676  Biso   1.000  C
  C561     1.0000 0.45240  0.37290  0.01645  Biso   1.000  C
  C562     1.0000 0.39550  0.36400  0.02576  Biso   1.000  C
  C563     1.0000 0.32970  0.30210  0.02486  Biso   1.000  C
  C564     1.0000 0.31980  0.24290  0.01596  Biso   1.000  C
  C565     1.0000 0.37700  0.24970  0.00675  Biso   1.000  C
  C566     1.0000 0.39060  0.41950  0.03752  Biso   1.000  C
  C567     1.0000 0.32290  0.37140  0.04805  Biso   1.000  C
  C568     1.0000 0.27260  0.31420  0.03525  Biso   1.000  C
  C569     1.0000 0.28950  0.41670  0.05437  Biso   1.000  C
  C570     1.0000 0.32020  0.43820  0.07246  Biso   1.000  C
  C571     1.0000 0.34890  0.39760  0.07797  Biso   1.000  C
  C572     1.0000 0.33930  0.34430  0.06390  Biso   1.000  C
  C573     1.0000 0.31930  0.48850  0.08354  Biso   1.000  C
  C574     1.0000 0.34570  0.49620  0.10029  Biso   1.000  C
  C575     1.0000 0.37480  0.45560  0.10583  Biso   1.000  C
  C576     1.0000 0.37830  0.40700  0.09553  Biso   1.000  C
  C577     1.0000 0.34040  0.54830  0.11140  Biso   1.000  C
  C578     1.0000 0.49910  0.31540  0.99637  Biso   1.000  C
  C579     1.0000 0.82880  0.53760  0.00547  Biso   1.000  C
  C580     1.0000 0.88180  0.52410  0.00952  Biso   1.000  C
  C581     1.0000 0.93190  0.56340  0.02172  Biso   1.000  C
  C582     1.0000 0.93580  0.62860  0.02837  Biso   1.000  C
  C583     1.0000 0.88080  0.64390  0.02373  Biso   1.000  C
  C584     1.0000 0.82890  0.59740  0.01277  Biso   1.000  C
  C585     1.0000 0.98950  0.55430  0.03014  Biso   1.000  C
  C586     1.0000 0.01050  0.59880  0.04575  Biso   1.000  C
  C587     1.0000 0.99790  0.66350  0.04081  Biso   1.000  C
  C588     1.0000 0.08680  0.62690  0.05194  Biso   1.000  C
  C589     1.0000 0.08460  0.62900  0.07113  Biso   1.000  C
  C590     1.0000 0.01680  0.59690  0.07576  Biso   1.000  C
  C591     1.0000 0.96717  0.56367  0.06133  Biso   1.000  C
  C592     1.0000 0.14264  0.65281  0.08224  Biso   1.000  C
  C593     1.0000 0.12770  0.64380  0.09995  Biso   1.000  C
  C594     1.0000 0.05600  0.60920  0.10546  Biso   1.000  C
  C595     1.0000 0.00470  0.58720  0.09410  Biso   1.000  C
  C596     1.0000 0.18790  0.66390  0.11223  Biso   1.000  C
  C597     1.0000 0.77050  0.48830  0.99292  Biso   1.000  C
  C598     1.0000 0.85300  0.30960  0.98859  Biso   1.000  C
  C599     1.0000 0.98260  0.41250  0.99994  Biso   1.000  C
  C600     1.0000 0.97170  0.30510  0.98387  Biso   1.000  C
  C601     1.0000 0.49550  0.13700  0.59718  Biso   1.000  C
  C602     1.0000 0.49442  0.15946  0.58082  Biso   1.000  C
  C603     1.0000 0.44520  0.11270  0.56914  Biso   1.000  C
  C604     1.0000 0.39830  0.04130  0.57321  Biso   1.000  C
  C605     1.0000 0.39970  0.01740  0.58990  Biso   1.000  C
  C606     1.0000 0.44700  0.06400  0.60228  Biso   1.000  C
  C607     1.0000 0.43170  0.12890  0.55083  Biso   1.000  C
  C608     1.0000 0.39080  0.05240  0.54241  Biso   1.000  C
  C609     1.0000 0.34720  0.00090  0.55904  Biso   1.000  C
  C610     1.0000 0.43570  0.02700  0.53464  Biso   1.000  C
  C611     1.0000 0.38430  0.97060  0.52156  Biso   1.000  C
  C612     1.0000 0.33020  0.98050  0.51814  Biso   1.000  C
  C613     1.0000 0.33590  0.04260  0.52778  Biso   1.000  C
  C614     1.0000 0.39460  0.91760  0.51332  Biso   1.000  C
  C615     1.0000 0.34420  0.87270  0.50211  Biso   1.000  C
  C616     1.0000 0.28710  0.88440  0.49850  Biso   1.000  C
  C617     1.0000 0.27830  0.93750  0.50672  Biso   1.000  C
  C618     1.0000 0.35250  0.81730  0.49282  Biso   1.000  C
  C619     1.0000 0.54636  0.18851  0.61002  Biso   1.000  C
  C620     1.0000 0.68990  0.13360  0.67343  Biso   1.000  C
  C621     1.0000 0.62710  0.07950  0.68312  Biso   1.000  C
  C622     1.0000 0.63600  0.03150  0.69243  Biso   1.000  C
  C623     1.0000 0.69790  0.02760  0.69153  Biso   1.000  C
  C624     1.0000 0.75710  0.07690  0.68263  Biso   1.000  C
  C625     1.0000 0.75030  0.12730  0.67342  Biso   1.000  C
  C626     1.0000 0.58050  0.97110  0.70419  Biso   1.000  C
  C627     1.0000 0.62860  0.95150  0.71472  Biso   1.000  C
  C628     1.0000 0.68580  0.95840  0.70192  Biso   1.000  C
  C629     1.0000 0.58330  0.87280  0.72104  Biso   1.000  C
  C630     1.0000 0.56180  0.88200  0.73913  Biso   1.000  C
  C631     1.0000 0.60240  0.95130  0.74464  Biso   1.000  C
  C632     1.0000 0.65570  0.99500  0.73057  Biso   1.000  C
  C633     1.0000 0.51150  0.83080  0.75021  Biso   1.000  C
  C634     1.0000 0.50380  0.84950  0.76696  Biso   1.000  C
  C635     1.0000 0.54440  0.91920  0.77250  Biso   1.000  C
  C636     1.0000 0.59300  0.97130  0.76220  Biso   1.000  C
  C637     1.0000 0.45170  0.79210  0.77807  Biso   1.000  C
  C638     1.0000 0.68460  0.18370  0.66304  Biso   1.000  C
  C639     1.0000 0.46240  0.29120  0.67214  Biso   1.000  C
  C640     1.0000 0.47590  0.35770  0.67619  Biso   1.000  C
  C641     1.0000 0.43660  0.36850  0.68839  Biso   1.000  C
  C642     1.0000 0.37140  0.30720  0.69504  Biso   1.000  C
  C643     1.0000 0.35610  0.23690  0.69040  Biso   1.000  C
  C644     1.0000 0.40260  0.23150  0.67944  Biso   1.000  C
  C645     1.0000 0.44570  0.43520  0.69681  Biso   1.000  C
  C646     1.0000 0.40120  0.41170  0.71242  Biso   1.000  C
  C647     1.0000 0.33650  0.33440  0.70748  Biso   1.000  C
  C648     1.0000 0.37310  0.45990  0.71861  Biso   1.000  C
  C649     1.0000 0.37100  0.45560  0.73780  Biso   1.000  C
  C650     1.0000 0.40310  0.41990  0.74243  Biso   1.000  C
  C651     1.0000 0.43633  0.40350  0.72800  Biso   1.000  C
  C652     1.0000 0.34719  0.48983  0.74891  Biso   1.000  C
  C653     1.0000 0.35620  0.48390  0.76662  Biso   1.000  C
  C654     1.0000 0.39080  0.44680  0.77213  Biso   1.000  C
  C655     1.0000 0.41280  0.41750  0.76077  Biso   1.000  C
  C656     1.0000 0.33610  0.52400  0.77890  Biso   1.000  C
  C657     1.0000 0.51170  0.28220  0.65959  Biso   1.000  C
  C658     1.0000 0.69040  0.54340  0.65526  Biso   1.000  C
  C659     1.0000 0.58750  0.57010  0.66661  Biso   1.000  C
  C660     1.0000 0.69490  0.66660  0.65054  Biso   1.000  C
  C661     1.0000 0.86300  0.35850  0.26385  Biso   1.000  C
  C662     1.0000 0.84054  0.33496  0.24749  Biso   1.000  C
  C663     1.0000 0.88730  0.33250  0.23581  Biso   1.000  C
  C664     1.0000 0.95870  0.35700  0.23988  Biso   1.000  C
  C665     1.0000 0.98260  0.38230  0.25657  Biso   1.000  C
  C666     1.0000 0.93600  0.38300  0.26895  Biso   1.000  C
  C667     1.0000 0.87110  0.30280  0.21750  Biso   1.000  C
  C668     1.0000 0.94760  0.33840  0.20908  Biso   1.000  C
  C669     1.0000 0.99910  0.34630  0.22571  Biso   1.000  C
  C670     1.0000 0.97300  0.40870  0.20131  Biso   1.000  C
  C671     1.0000 0.02940  0.41370  0.18823  Biso   1.000  C
  C672     1.0000 0.01950  0.34970  0.18481  Biso   1.000  C
  C673     1.0000 0.95740  0.29330  0.19445  Biso   1.000  C
  C674     1.0000 0.08240  0.47700  0.17999  Biso   1.000  C
  C675     1.0000 0.12730  0.47150  0.16878  Biso   1.000  C
  C676     1.0000 0.11560  0.40270  0.16517  Biso   1.000  C
  C677     1.0000 0.06250  0.34080  0.17339  Biso   1.000  C
  C678     1.0000 0.18270  0.53520  0.15949  Biso   1.000  C
  C679     1.0000 0.81149  0.35785  0.27669  Biso   1.000  C
  C680     1.0000 0.86640  0.55630  0.34010  Biso   1.000  C
  C681     1.0000 0.92050  0.54760  0.34979  Biso   1.000  C
  C682     1.0000 0.96850  0.60450  0.35910  Biso   1.000  C
  C683     1.0000 0.97240  0.67030  0.35820  Biso   1.000  C
  C684     1.0000 0.92310  0.68020  0.34930  Biso   1.000  C
  C685     1.0000 0.87270  0.62300  0.34009  Biso   1.000  C
  C686     1.0000 0.02890  0.60940  0.37086  Biso   1.000  C
  C687     1.0000 0.04850  0.67710  0.38139  Biso   1.000  C
  C688     1.0000 0.04160  0.72740  0.36859  Biso   1.000  C
  C689     1.0000 0.12720  0.71050  0.38771  Biso   1.000  C
  C690     1.0000 0.11800  0.67980  0.40580  Biso   1.000  C
  C691     1.0000 0.04870  0.65110  0.41131  Biso   1.000  C
  C692     1.0000 0.00500  0.66070  0.39724  Biso   1.000  C
  C693     1.0000 0.16920  0.68070  0.41688  Biso   1.000  C
  C694     1.0000 0.15050  0.65430  0.43363  Biso   1.000  C
  C695     1.0000 0.08080  0.62520  0.43917  Biso   1.000  C
  C696     1.0000 0.02870  0.62170  0.42887  Biso   1.000  C
  C697     1.0000 0.20790  0.65960  0.44474  Biso   1.000  C
  C698     1.0000 0.81630  0.50090  0.32971  Biso   1.000  C
  C699     1.0000 0.70880  0.17120  0.33881  Biso   1.000  C
  C700     1.0000 0.64230  0.11820  0.34286  Biso   1.000  C
  C701     1.0000 0.63150  0.06810  0.35506  Biso   1.000  C
  C702     1.0000 0.69280  0.06420  0.36171  Biso   1.000  C
  C703     1.0000 0.76310  0.11920  0.35707  Biso   1.000  C
  C704     1.0000 0.76850  0.17110  0.34611  Biso   1.000  C
  C705     1.0000 0.56480  0.01050  0.36348  Biso   1.000  C
  C706     1.0000 0.58830  0.98950  0.37909  Biso   1.000  C
  C707     1.0000 0.66560  0.00210  0.37415  Biso   1.000  C
  C708     1.0000 0.54010  0.91320  0.38528  Biso   1.000  C
  C709     1.0000 0.54440  0.91540  0.40447  Biso   1.000  C
  C710     1.0000 0.58010  0.98320  0.40910  Biso   1.000  C
  C711     1.0000 0.59650  0.03283  0.39467  Biso   1.000  C
  C712     1.0000 0.51017  0.85736  0.41558  Biso   1.000  C
  C713     1.0000 0.51610  0.87230  0.43329  Biso   1.000  C
  C714     1.0000 0.55320  0.94400  0.43880  Biso   1.000  C
  C715     1.0000 0.58250  0.99530  0.42744  Biso   1.000  C
  C716     1.0000 0.47600  0.81210  0.44557  Biso   1.000  C
  C717     1.0000 0.71780  0.22950  0.32626  Biso   1.000  C
  C718     1.0000 0.45660  0.14700  0.32193  Biso   1.000  C
  C719     1.0000 0.42990  0.01740  0.33328  Biso   1.000  C
  C720     1.0000 0.33340  0.02830  0.31721  Biso   1.000  C
  N7       1.0000 0.06900  0.65710  0.49084  Biso   1.000  N
  N8       1.0000 0.34290  0.41190  0.15751  Biso   1.000  N
  N9       1.0000 0.58810  0.93100  0.82418  Biso   1.000  N
  N10      1.0000 0.93100  0.34290  0.99084  Biso   1.000  N
  N11      1.0000 0.65710  0.58810  0.65751  Biso   1.000  N
  N12      1.0000 0.41190  0.06900  0.32418  Biso   1.000  N
  O85      1.0000 0.34925  0.67094  0.47257  Biso   1.000  O
  O86      1.0000 0.37708  0.54386  0.45850  Biso   1.000  O
  O87      1.0000 0.33692  0.58709  0.43765  Biso   1.000  O
  O88      1.0000 0.59270  0.41040  0.32823  Biso   1.000  O
  O89      1.0000 0.52720  0.29937  0.31726  Biso   1.000  O
  O90      1.0000 0.44447  0.62032  0.49355  Biso   1.000  O
  O91      1.0000 0.50466  0.74136  0.49024  Biso   1.000  O
  O92      1.0000 0.68447  0.41473  0.60470  Biso   1.000  O
  O93      1.0000 0.64214  0.44863  0.62705  Biso   1.000  O
  O94      1.0000 0.28462  0.50800  0.49196  Biso   1.000  O
  O95      1.0000 0.21467  0.54747  0.48355  Biso   1.000  O
  O96      1.0000 0.75245  0.31823  0.60575  Biso   1.000  O
  O97      1.0000 0.82597  0.34179  0.62807  Biso   1.000  O
  O98      1.0000 0.16550  0.64730  0.49557  Biso   1.000  O
  O99      1.0000 0.32906  0.67831  0.13924  Biso   1.000  O
  O100     1.0000 0.45614  0.83322  0.12517  Biso   1.000  O
  O101     1.0000 0.41291  0.74983  0.10432  Biso   1.000  O
  O102     1.0000 0.58960  0.18230  0.99490  Biso   1.000  O
  O103     1.0000 0.70063  0.22783  0.98393  Biso   1.000  O
  O104     1.0000 0.37968  0.82415  0.16022  Biso   1.000  O
  O105     1.0000 0.25864  0.76330  0.15691  Biso   1.000  O
  O106     1.0000 0.58527  0.26974  0.27137  Biso   1.000  O
  O107     1.0000 0.55137  0.19351  0.29372  Biso   1.000  O
  O108     1.0000 0.49200  0.77662  0.15863  Biso   1.000  O
  O109     1.0000 0.45253  0.66720  0.15022  Biso   1.000  O
  O110     1.0000 0.68177  0.43422  0.27242  Biso   1.000  O
  O111     1.0000 0.65821  0.48418  0.29474  Biso   1.000  O
  O112     1.0000 0.35270  0.51820  0.16224  Biso   1.000  O
  O113     1.0000 0.32169  0.65075  0.80591  Biso   1.000  O
  O114     1.0000 0.16678  0.62292  0.79184  Biso   1.000  O
  O115     1.0000 0.25017  0.66308  0.77099  Biso   1.000  O
  O116     1.0000 0.81770  0.40730  0.66157  Biso   1.000  O
  O117     1.0000 0.77217  0.47280  0.65060  Biso   1.000  O
  O118     1.0000 0.17585  0.55553  0.82689  Biso   1.000  O
  O119     1.0000 0.23670  0.49534  0.82358  Biso   1.000  O
  O120     1.0000 0.73026  0.31553  0.93804  Biso   1.000  O
  O121     1.0000 0.80649  0.35786  0.96039  Biso   1.000  O
  O122     1.0000 0.22338  0.71538  0.82530  Biso   1.000  O
  O123     1.0000 0.33280  0.78533  0.81689  Biso   1.000  O
  O124     1.0000 0.56578  0.24755  0.93909  Biso   1.000  O
  O125     1.0000 0.51582  0.17403  0.96141  Biso   1.000  O
  O126     1.0000 0.48180  0.83450  0.82891  Biso   1.000  O
  O127     1.0000 0.65075  0.32906  0.97257  Biso   1.000  O
  O128     1.0000 0.62292  0.45614  0.95850  Biso   1.000  O
  O129     1.0000 0.66308  0.41291  0.93765  Biso   1.000  O
  O130     1.0000 0.40730  0.58960  0.82823  Biso   1.000  O
  O131     1.0000 0.47280  0.70063  0.81726  Biso   1.000  O
  O132     1.0000 0.55553  0.37968  0.99355  Biso   1.000  O
  O133     1.0000 0.49534  0.25864  0.99024  Biso   1.000  O
  O134     1.0000 0.31553  0.58527  0.10470  Biso   1.000  O
  O135     1.0000 0.35786  0.55137  0.12705  Biso   1.000  O
  O136     1.0000 0.71538  0.49200  0.99196  Biso   1.000  O
  O137     1.0000 0.78533  0.45253  0.98355  Biso   1.000  O
  O138     1.0000 0.24755  0.68177  0.10575  Biso   1.000  O
  O139     1.0000 0.17403  0.65821  0.12807  Biso   1.000  O
  O140     1.0000 0.83450  0.35270  0.99557  Biso   1.000  O
  O141     1.0000 0.67094  0.32169  0.63924  Biso   1.000  O
  O142     1.0000 0.54386  0.16678  0.62517  Biso   1.000  O
  O143     1.0000 0.58709  0.25017  0.60432  Biso   1.000  O
  O144     1.0000 0.41040  0.81770  0.49490  Biso   1.000  O
  O145     1.0000 0.29937  0.77217  0.48393  Biso   1.000  O
  O146     1.0000 0.62032  0.17585  0.66022  Biso   1.000  O
  O147     1.0000 0.74136  0.23670  0.65691  Biso   1.000  O
  O148     1.0000 0.41473  0.73026  0.77137  Biso   1.000  O
  O149     1.0000 0.44863  0.80649  0.79372  Biso   1.000  O
  O150     1.0000 0.50800  0.22338  0.65863  Biso   1.000  O
  O151     1.0000 0.54747  0.33280  0.65022  Biso   1.000  O
  O152     1.0000 0.31823  0.56578  0.77242  Biso   1.000  O
  O153     1.0000 0.34179  0.51582  0.79474  Biso   1.000  O
  O154     1.0000 0.64730  0.48180  0.66224  Biso   1.000  O
  O155     1.0000 0.67831  0.34925  0.30591  Biso   1.000  O
  O156     1.0000 0.83322  0.37708  0.29184  Biso   1.000  O
  O157     1.0000 0.74983  0.33692  0.27099  Biso   1.000  O
  O158     1.0000 0.18230  0.59270  0.16157  Biso   1.000  O
  O159     1.0000 0.22783  0.52720  0.15060  Biso   1.000  O
  O160     1.0000 0.82415  0.44447  0.32689  Biso   1.000  O
  O161     1.0000 0.76330  0.50466  0.32358  Biso   1.000  O
  O162     1.0000 0.26974  0.68447  0.43804  Biso   1.000  O
  O163     1.0000 0.19351  0.64214  0.46039  Biso   1.000  O
  O164     1.0000 0.77662  0.28462  0.32530  Biso   1.000  O
  O165     1.0000 0.66720  0.21467  0.31689  Biso   1.000  O
  O166     1.0000 0.43422  0.75245  0.43909  Biso   1.000  O
  O167     1.0000 0.48418  0.82597  0.46141  Biso   1.000  O
  O168     1.0000 0.51820  0.16550  0.32891  Biso   1.000  O
