data_image0
_cell_length_a       28.253
_cell_length_b       13.8524
_cell_length_c       44.966
_cell_angle_alpha    90
_cell_angle_beta     90
_cell_angle_gamma    90

_symmetry_space_group_name_H-M    "P 1"
_symmetry_int_tables_number       1

loop_
  _symmetry_equiv_pos_as_xyz
  'x, y, z'

loop_
  _atom_site_label
  _atom_site_occupancy
  _atom_site_fract_x
  _atom_site_fract_y
  _atom_site_fract_z
  _atom_site_thermal_displace_type
  _atom_site_B_iso_or_equiv
  _atom_site_type_symbol
  C1       1.0000 0.04710  0.00960  0.53790  Biso   1.000  C
  H1       1.0000 0.03250  0.04360  0.55380  Biso   1.000  H
  C2       1.0000 0.05780  0.05910  0.51180  Biso   1.000  C
  H2       1.0000 0.05020  0.12560  0.50990  Biso   1.000  H
  C3       1.0000 0.07940  0.01130  0.48890  Biso   1.000  C
  C4       1.0000 0.08750  0.91420  0.49180  Biso   1.000  C
  H3       1.0000 0.10130  0.87830  0.47600  Biso   1.000  H
  C5       1.0000 0.07490  0.86880  0.51860  Biso   1.000  C
  H4       1.0000 0.07980  0.80120  0.52040  Biso   1.000  H
  C6       1.0000 0.09420  0.06380  0.46190  Biso   1.000  C
  C7       1.0000 0.09830  0.20080  0.43500  Biso   1.000  C
  C8       1.0000 0.13280  0.06600  0.41750  Biso   1.000  C
  C9       1.0000 0.08350  0.30290  0.43010  Biso   1.000  C
  C10      1.0000 0.05790  0.34990  0.45220  Biso   1.000  C
  H5       1.0000 0.05120  0.31830  0.47050  Biso   1.000  H
  C11      1.0000 0.04260  0.44230  0.44730  Biso   1.000  C
  H6       1.0000 0.02530  0.47420  0.46260  Biso   1.000  H
  C12      1.0000 0.07640  0.44410  0.40080  Biso   1.000  C
  H7       1.0000 0.08420  0.47780  0.38310  Biso   1.000  H
  C13      1.0000 0.09180  0.35090  0.40390  Biso   1.000  C
  H8       1.0000 0.10810  0.31970  0.38810  Biso   1.000  H
  C14      1.0000 0.15750  0.01390  0.39350  Biso   1.000  C
  C15      1.0000 0.18220  0.05860  0.37120  Biso   1.000  C
  H9       1.0000 0.18440  0.12700  0.37080  Biso   1.000  H
  C16      1.0000 0.20330  0.00540  0.34990  Biso   1.000  C
  H10      1.0000 0.22140  0.03770  0.33510  Biso   1.000  H
  C17      1.0000 0.17600  0.86420  0.36950  Biso   1.000  C
  H11      1.0000 0.17400  0.79580  0.36900  Biso   1.000  H
  C18      1.0000 0.15380  0.91210  0.39200  Biso   1.000  C
  H12      1.0000 0.13610  0.87770  0.40650  Biso   1.000  H
  C19      1.0000 0.31180  0.08320  0.76620  Biso   1.000  C
  H13      1.0000 0.33930  0.09890  0.77740  Biso   1.000  H
  C20      1.0000 0.31770  0.05000  0.73740  Biso   1.000  C
  H14      1.0000 0.34840  0.04390  0.72910  Biso   1.000  H
  C21      1.0000 0.27890  0.02610  0.72110  Biso   1.000  C
  C22      1.0000 0.23500  0.03280  0.73460  Biso   1.000  C
  H15      1.0000 0.20750  0.01360  0.72400  Biso   1.000  H
  C23      1.0000 0.23110  0.06730  0.76330  Biso   1.000  C
  H16      1.0000 0.20070  0.07220  0.77220  Biso   1.000  H
  C24      1.0000 0.28230  0.99560  0.68930  Biso   1.000  C
  C25      1.0000 0.32440  0.95950  0.64840  Biso   1.000  C
  C26      1.0000 0.24550  0.95910  0.64650  Biso   1.000  C
  C27      1.0000 0.37030  0.94620  0.63320  Biso   1.000  C
  C28      1.0000 0.41250  0.95720  0.64840  Biso   1.000  C
  H17      1.0000 0.41240  0.97690  0.66870  Biso   1.000  H
  C29      1.0000 0.45540  0.93900  0.63380  Biso   1.000  C
  H18      1.0000 0.48430  0.94650  0.64430  Biso   1.000  H
  C30      1.0000 0.41640  0.90450  0.59060  Biso   1.000  C
  H19      1.0000 0.41740  0.88830  0.57010  Biso   1.000  H
  C31      1.0000 0.37230  0.92010  0.60380  Biso   1.000  C
  H20      1.0000 0.34410  0.91260  0.59260  Biso   1.000  H
  C32      1.0000 0.19960  0.94270  0.63020  Biso   1.000  C
  C33      1.0000 0.19960  0.91040  0.60100  Biso   1.000  C
  H21      1.0000 0.22840  0.90110  0.59050  Biso   1.000  H
  C34      1.0000 0.15630  0.89220  0.58750  Biso   1.000  C
  H22      1.0000 0.15620  0.86970  0.56750  Biso   1.000  H
  C35      1.0000 0.11590  0.93830  0.62950  Biso   1.000  C
  H23      1.0000 0.08660  0.94920  0.63930  Biso   1.000  H
  C36      1.0000 0.15650  0.95690  0.64410  Biso   1.000  C
  H24      1.0000 0.15550  0.97990  0.66400  Biso   1.000  H
  I1       1.0000 0.98726  0.94405  0.61115  Biso   1.000  I
  I2       1.0000 0.06467  0.67486  0.57999  Biso   1.000  I
  I3       1.0000 0.19388  0.66811  0.31070  Biso   1.000  I
  I4       1.0000 0.32405  0.82465  0.33241  Biso   1.000  I
  I5       1.0000 0.06877  0.70615  0.37324  Biso   1.000  I
  I6       1.0000 0.00625  0.70073  0.46457  Biso   1.000  I
  N1       1.0000 0.05670  0.91630  0.54130  Biso   1.000  N
  N2       1.0000 0.08160  0.15630  0.45970  Biso   1.000  N
  N3       1.0000 0.12510  0.15880  0.41330  Biso   1.000  N
  N4       1.0000 0.11900  0.01410  0.44100  Biso   1.000  N
  N5       1.0000 0.05110  0.49000  0.42140  Biso   1.000  N
  N6       1.0000 0.20000  0.90880  0.34860  Biso   1.000  N
  N7       1.0000 0.27030  0.09420  0.77890  Biso   1.000  N
  N8       1.0000 0.32500  0.98390  0.67760  Biso   1.000  N
  N9       1.0000 0.28620  0.94610  0.63220  Biso   1.000  N
  N10      1.0000 0.24120  0.98340  0.67520  Biso   1.000  N
  N11      1.0000 0.45660  0.91130  0.60520  Biso   1.000  N
  N12      1.0000 0.11550  0.90450  0.60110  Biso   1.000  N
  Zn1      1.0000 0.05230  0.85602  0.58300  Biso   1.000  Zn
  Zn2      1.0000 0.23722  0.82865  0.31753  Biso   1.000  Zn
  Zn3      1.0000 0.02115  0.62340  0.41355  Biso   1.000  Zn
  C37      1.0000 0.45290  0.99040  0.03790  Biso   1.000  C
  H25      1.0000 0.46750  0.95640  0.05380  Biso   1.000  H
  C38      1.0000 0.44220  0.94090  0.01180  Biso   1.000  C
  H26      1.0000 0.44980  0.87440  0.00990  Biso   1.000  H
  C39      1.0000 0.42060  0.98870  0.98890  Biso   1.000  C
  C40      1.0000 0.41250  0.08580  0.99180  Biso   1.000  C
  H27      1.0000 0.39870  0.12170  0.97600  Biso   1.000  H
  C41      1.0000 0.42510  0.13120  0.01860  Biso   1.000  C
  H28      1.0000 0.42020  0.19880  0.02040  Biso   1.000  H
  C42      1.0000 0.40580  0.93620  0.96190  Biso   1.000  C
  C43      1.0000 0.40170  0.79920  0.93500  Biso   1.000  C
  C44      1.0000 0.36720  0.93400  0.91750  Biso   1.000  C
  C45      1.0000 0.41650  0.69710  0.93010  Biso   1.000  C
  C46      1.0000 0.44210  0.65010  0.95220  Biso   1.000  C
  H29      1.0000 0.44880  0.68170  0.97050  Biso   1.000  H
  C47      1.0000 0.45740  0.55770  0.94730  Biso   1.000  C
  H30      1.0000 0.47470  0.52580  0.96260  Biso   1.000  H
  C48      1.0000 0.42360  0.55590  0.90080  Biso   1.000  C
  H31      1.0000 0.41580  0.52220  0.88310  Biso   1.000  H
  C49      1.0000 0.40820  0.64910  0.90390  Biso   1.000  C
  H32      1.0000 0.39190  0.68030  0.88810  Biso   1.000  H
  C50      1.0000 0.34250  0.98610  0.89350  Biso   1.000  C
  C51      1.0000 0.31780  0.94140  0.87120  Biso   1.000  C
  H33      1.0000 0.31560  0.87300  0.87080  Biso   1.000  H
  C52      1.0000 0.29670  0.99460  0.84990  Biso   1.000  C
  H34      1.0000 0.27860  0.96230  0.83510  Biso   1.000  H
  C53      1.0000 0.32400  0.13580  0.86950  Biso   1.000  C
  H35      1.0000 0.32600  0.20420  0.86900  Biso   1.000  H
  C54      1.0000 0.34620  0.08790  0.89200  Biso   1.000  C
  H36      1.0000 0.36390  0.12230  0.90650  Biso   1.000  H
  C55      1.0000 0.18820  0.91680  0.26620  Biso   1.000  C
  H37      1.0000 0.16070  0.90110  0.27740  Biso   1.000  H
  C56      1.0000 0.18230  0.95000  0.23740  Biso   1.000  C
  H38      1.0000 0.15160  0.95610  0.22910  Biso   1.000  H
  C57      1.0000 0.22110  0.97390  0.22110  Biso   1.000  C
  C58      1.0000 0.26500  0.96720  0.23460  Biso   1.000  C
  H39      1.0000 0.29250  0.98640  0.22400  Biso   1.000  H
  C59      1.0000 0.26890  0.93270  0.26330  Biso   1.000  C
  H40      1.0000 0.29930  0.92780  0.27220  Biso   1.000  H
  C60      1.0000 0.21770  0.00440  0.18930  Biso   1.000  C
  C61      1.0000 0.17560  0.04050  0.14840  Biso   1.000  C
  C62      1.0000 0.25450  0.04090  0.14650  Biso   1.000  C
  C63      1.0000 0.12970  0.05380  0.13320  Biso   1.000  C
  C64      1.0000 0.08750  0.04280  0.14840  Biso   1.000  C
  H41      1.0000 0.08760  0.02310  0.16870  Biso   1.000  H
  C65      1.0000 0.04460  0.06100  0.13380  Biso   1.000  C
  H42      1.0000 0.01570  0.05350  0.14430  Biso   1.000  H
  C66      1.0000 0.08360  0.09550  0.09060  Biso   1.000  C
  H43      1.0000 0.08260  0.11170  0.07010  Biso   1.000  H
  C67      1.0000 0.12770  0.07990  0.10380  Biso   1.000  C
  H44      1.0000 0.15590  0.08740  0.09260  Biso   1.000  H
  C68      1.0000 0.30040  0.05730  0.13020  Biso   1.000  C
  C69      1.0000 0.30040  0.08960  0.10100  Biso   1.000  C
  H45      1.0000 0.27160  0.09890  0.09050  Biso   1.000  H
  C70      1.0000 0.34370  0.10780  0.08750  Biso   1.000  C
  H46      1.0000 0.34380  0.13030  0.06750  Biso   1.000  H
  C71      1.0000 0.38410  0.06170  0.12950  Biso   1.000  C
  H47      1.0000 0.41340  0.05080  0.13930  Biso   1.000  H
  C72      1.0000 0.34350  0.04310  0.14410  Biso   1.000  C
  H48      1.0000 0.34450  0.02010  0.16400  Biso   1.000  H
  I7       1.0000 0.51274  0.05595  0.11115  Biso   1.000  I
  I8       1.0000 0.43533  0.32514  0.07999  Biso   1.000  I
  I9       1.0000 0.30612  0.33189  0.81070  Biso   1.000  I
  I10      1.0000 0.17595  0.17535  0.83241  Biso   1.000  I
  I11      1.0000 0.43123  0.29385  0.87324  Biso   1.000  I
  I12      1.0000 0.49375  0.29927  0.96457  Biso   1.000  I
  N13      1.0000 0.44330  0.08370  0.04130  Biso   1.000  N
  N14      1.0000 0.41840  0.84370  0.95970  Biso   1.000  N
  N15      1.0000 0.37490  0.84120  0.91330  Biso   1.000  N
  N16      1.0000 0.38100  0.98590  0.94100  Biso   1.000  N
  N17      1.0000 0.44890  0.51000  0.92140  Biso   1.000  N
  N18      1.0000 0.30000  0.09120  0.84860  Biso   1.000  N
  N19      1.0000 0.22970  0.90580  0.27890  Biso   1.000  N
  N20      1.0000 0.17500  0.01610  0.17760  Biso   1.000  N
  N21      1.0000 0.21380  0.05390  0.13220  Biso   1.000  N
  N22      1.0000 0.25880  0.01660  0.17520  Biso   1.000  N
  N23      1.0000 0.04340  0.08870  0.10520  Biso   1.000  N
  N24      1.0000 0.38450  0.09550  0.10110  Biso   1.000  N
  Zn4      1.0000 0.44770  0.14398  0.08300  Biso   1.000  Zn
  Zn5      1.0000 0.26278  0.17135  0.81753  Biso   1.000  Zn
  Zn6      1.0000 0.47885  0.37660  0.91355  Biso   1.000  Zn
  C73      1.0000 0.95290  0.50960  0.96210  Biso   1.000  C
  H49      1.0000 0.96750  0.54360  0.94620  Biso   1.000  H
  C74      1.0000 0.94220  0.55910  0.98820  Biso   1.000  C
  H50      1.0000 0.94980  0.62560  0.99010  Biso   1.000  H
  C75      1.0000 0.92060  0.51130  0.01110  Biso   1.000  C
  C76      1.0000 0.91250  0.41420  0.00820  Biso   1.000  C
  H51      1.0000 0.89870  0.37830  0.02400  Biso   1.000  H
  C77      1.0000 0.92510  0.36880  0.98140  Biso   1.000  C
  H52      1.0000 0.92020  0.30120  0.97960  Biso   1.000  H
  C78      1.0000 0.90580  0.56380  0.03810  Biso   1.000  C
  C79      1.0000 0.90170  0.70080  0.06500  Biso   1.000  C
  C80      1.0000 0.86720  0.56600  0.08250  Biso   1.000  C
  C81      1.0000 0.91650  0.80290  0.06990  Biso   1.000  C
  C82      1.0000 0.94210  0.84990  0.04780  Biso   1.000  C
  H53      1.0000 0.94880  0.81830  0.02950  Biso   1.000  H
  C83      1.0000 0.95740  0.94230  0.05270  Biso   1.000  C
  H54      1.0000 0.97470  0.97420  0.03740  Biso   1.000  H
  C84      1.0000 0.92360  0.94410  0.09920  Biso   1.000  C
  H55      1.0000 0.91580  0.97780  0.11690  Biso   1.000  H
  C85      1.0000 0.90820  0.85090  0.09610  Biso   1.000  C
  H56      1.0000 0.89190  0.81970  0.11190  Biso   1.000  H
  C86      1.0000 0.84250  0.51390  0.10650  Biso   1.000  C
  C87      1.0000 0.81780  0.55860  0.12880  Biso   1.000  C
  H57      1.0000 0.81560  0.62700  0.12920  Biso   1.000  H
  C88      1.0000 0.79670  0.50540  0.15010  Biso   1.000  C
  H58      1.0000 0.77860  0.53770  0.16490  Biso   1.000  H
  C89      1.0000 0.82400  0.36420  0.13050  Biso   1.000  C
  H59      1.0000 0.82600  0.29580  0.13100  Biso   1.000  H
  C90      1.0000 0.84620  0.41210  0.10800  Biso   1.000  C
  H60      1.0000 0.86390  0.37770  0.09350  Biso   1.000  H
  C91      1.0000 0.68820  0.58320  0.73380  Biso   1.000  C
  H61      1.0000 0.66070  0.59890  0.72260  Biso   1.000  H
  C92      1.0000 0.68230  0.55000  0.76260  Biso   1.000  C
  H62      1.0000 0.65160  0.54390  0.77090  Biso   1.000  H
  C93      1.0000 0.72110  0.52610  0.77890  Biso   1.000  C
  C94      1.0000 0.76500  0.53280  0.76540  Biso   1.000  C
  H63      1.0000 0.79250  0.51360  0.77600  Biso   1.000  H
  C95      1.0000 0.76890  0.56730  0.73670  Biso   1.000  C
  H64      1.0000 0.79930  0.57220  0.72780  Biso   1.000  H
  C96      1.0000 0.71770  0.49560  0.81070  Biso   1.000  C
  C97      1.0000 0.67560  0.45950  0.85160  Biso   1.000  C
  C98      1.0000 0.75450  0.45910  0.85350  Biso   1.000  C
  C99      1.0000 0.62970  0.44620  0.86680  Biso   1.000  C
  C100     1.0000 0.58750  0.45720  0.85160  Biso   1.000  C
  H65      1.0000 0.58760  0.47690  0.83130  Biso   1.000  H
  C101     1.0000 0.54460  0.43900  0.86620  Biso   1.000  C
  H66      1.0000 0.51570  0.44650  0.85570  Biso   1.000  H
  C102     1.0000 0.58360  0.40450  0.90940  Biso   1.000  C
  H67      1.0000 0.58260  0.38830  0.92990  Biso   1.000  H
  C103     1.0000 0.62770  0.42010  0.89620  Biso   1.000  C
  H68      1.0000 0.65590  0.41260  0.90740  Biso   1.000  H
  C104     1.0000 0.80040  0.44270  0.86980  Biso   1.000  C
  C105     1.0000 0.80040  0.41040  0.89900  Biso   1.000  C
  H69      1.0000 0.77160  0.40110  0.90950  Biso   1.000  H
  C106     1.0000 0.84370  0.39220  0.91250  Biso   1.000  C
  H70      1.0000 0.84380  0.36970  0.93250  Biso   1.000  H
  C107     1.0000 0.88410  0.43830  0.87050  Biso   1.000  C
  H71      1.0000 0.91340  0.44920  0.86070  Biso   1.000  H
  C108     1.0000 0.84350  0.45690  0.85590  Biso   1.000  C
  H72      1.0000 0.84450  0.47990  0.83600  Biso   1.000  H
  I13      1.0000 0.01274  0.44405  0.88885  Biso   1.000  I
  I14      1.0000 0.93533  0.17486  0.92001  Biso   1.000  I
  I15      1.0000 0.80612  0.16811  0.18930  Biso   1.000  I
  I16      1.0000 0.67595  0.32465  0.16759  Biso   1.000  I
  I17      1.0000 0.93123  0.20615  0.12676  Biso   1.000  I
  I18      1.0000 0.99375  0.20073  0.03543  Biso   1.000  I
  N25      1.0000 0.94330  0.41630  0.95870  Biso   1.000  N
  N26      1.0000 0.91840  0.65630  0.04030  Biso   1.000  N
  N27      1.0000 0.87490  0.65880  0.08670  Biso   1.000  N
  N28      1.0000 0.88100  0.51410  0.05900  Biso   1.000  N
  N29      1.0000 0.94890  0.99000  0.07860  Biso   1.000  N
  N30      1.0000 0.80000  0.40880  0.15140  Biso   1.000  N
  N31      1.0000 0.72970  0.59420  0.72110  Biso   1.000  N
  N32      1.0000 0.67500  0.48390  0.82240  Biso   1.000  N
  N33      1.0000 0.71380  0.44610  0.86780  Biso   1.000  N
  N34      1.0000 0.75880  0.48340  0.82480  Biso   1.000  N
  N35      1.0000 0.54340  0.41130  0.89480  Biso   1.000  N
  N36      1.0000 0.88450  0.40450  0.89890  Biso   1.000  N
  Zn7      1.0000 0.94770  0.35602  0.91700  Biso   1.000  Zn
  Zn8      1.0000 0.76278  0.32865  0.18247  Biso   1.000  Zn
  Zn9      1.0000 0.97885  0.12340  0.08645  Biso   1.000  Zn
  C109     1.0000 0.54710  0.49040  0.46210  Biso   1.000  C
  H73      1.0000 0.53250  0.45640  0.44620  Biso   1.000  H
  C110     1.0000 0.55780  0.44090  0.48820  Biso   1.000  C
  H74      1.0000 0.55020  0.37440  0.49010  Biso   1.000  H
  C111     1.0000 0.57940  0.48870  0.51110  Biso   1.000  C
  C112     1.0000 0.58750  0.58580  0.50820  Biso   1.000  C
  H75      1.0000 0.60130  0.62170  0.52400  Biso   1.000  H
  C113     1.0000 0.57490  0.63120  0.48140  Biso   1.000  C
  H76      1.0000 0.57980  0.69880  0.47960  Biso   1.000  H
  C114     1.0000 0.59420  0.43620  0.53810  Biso   1.000  C
  C115     1.0000 0.59830  0.29920  0.56500  Biso   1.000  C
  C116     1.0000 0.63280  0.43400  0.58250  Biso   1.000  C
  C117     1.0000 0.58350  0.19710  0.56990  Biso   1.000  C
  C118     1.0000 0.55790  0.15010  0.54780  Biso   1.000  C
  H77      1.0000 0.55120  0.18170  0.52950  Biso   1.000  H
  C119     1.0000 0.54260  0.05770  0.55270  Biso   1.000  C
  H78      1.0000 0.52530  0.02580  0.53740  Biso   1.000  H
  C120     1.0000 0.57640  0.05590  0.59920  Biso   1.000  C
  H79      1.0000 0.58420  0.02220  0.61690  Biso   1.000  H
  C121     1.0000 0.59180  0.14910  0.59610  Biso   1.000  C
  H80      1.0000 0.60810  0.18030  0.61190  Biso   1.000  H
  C122     1.0000 0.65750  0.48610  0.60650  Biso   1.000  C
  C123     1.0000 0.68220  0.44140  0.62880  Biso   1.000  C
  H81      1.0000 0.68440  0.37300  0.62920  Biso   1.000  H
  C124     1.0000 0.70330  0.49460  0.65010  Biso   1.000  C
  H82      1.0000 0.72140  0.46230  0.66490  Biso   1.000  H
  C125     1.0000 0.67600  0.63580  0.63050  Biso   1.000  C
  H83      1.0000 0.67400  0.70420  0.63100  Biso   1.000  H
  C126     1.0000 0.65380  0.58790  0.60800  Biso   1.000  C
  H84      1.0000 0.63610  0.62230  0.59350  Biso   1.000  H
  C127     1.0000 0.81180  0.41680  0.23380  Biso   1.000  C
  H85      1.0000 0.83930  0.40110  0.22260  Biso   1.000  H
  C128     1.0000 0.81770  0.45000  0.26260  Biso   1.000  C
  H86      1.0000 0.84840  0.45610  0.27090  Biso   1.000  H
  C129     1.0000 0.77890  0.47390  0.27890  Biso   1.000  C
  C130     1.0000 0.73500  0.46720  0.26540  Biso   1.000  C
  H87      1.0000 0.70750  0.48640  0.27600  Biso   1.000  H
  C131     1.0000 0.73110  0.43270  0.23670  Biso   1.000  C
  H88      1.0000 0.70070  0.42780  0.22780  Biso   1.000  H
  C132     1.0000 0.78230  0.50440  0.31070  Biso   1.000  C
  C133     1.0000 0.82440  0.54050  0.35160  Biso   1.000  C
  C134     1.0000 0.74550  0.54090  0.35350  Biso   1.000  C
  C135     1.0000 0.87030  0.55380  0.36680  Biso   1.000  C
  C136     1.0000 0.91250  0.54280  0.35160  Biso   1.000  C
  H89      1.0000 0.91240  0.52310  0.33130  Biso   1.000  H
  C137     1.0000 0.95540  0.56100  0.36620  Biso   1.000  C
  H90      1.0000 0.98430  0.55350  0.35570  Biso   1.000  H
  C138     1.0000 0.91640  0.59550  0.40940  Biso   1.000  C
  H91      1.0000 0.91740  0.61170  0.42990  Biso   1.000  H
  C139     1.0000 0.87230  0.57990  0.39620  Biso   1.000  C
  H92      1.0000 0.84410  0.58740  0.40740  Biso   1.000  H
  C140     1.0000 0.69960  0.55730  0.36980  Biso   1.000  C
  C141     1.0000 0.69960  0.58960  0.39900  Biso   1.000  C
  H93      1.0000 0.72840  0.59890  0.40950  Biso   1.000  H
  C142     1.0000 0.65630  0.60780  0.41250  Biso   1.000  C
  H94      1.0000 0.65620  0.63030  0.43250  Biso   1.000  H
  C143     1.0000 0.61590  0.56170  0.37050  Biso   1.000  C
  H95      1.0000 0.58660  0.55080  0.36070  Biso   1.000  H
  C144     1.0000 0.65650  0.54310  0.35590  Biso   1.000  C
  H96      1.0000 0.65550  0.52010  0.33600  Biso   1.000  H
  I19      1.0000 0.48726  0.55595  0.38885  Biso   1.000  I
  I20      1.0000 0.56467  0.82514  0.42001  Biso   1.000  I
  I21      1.0000 0.69388  0.83189  0.68930  Biso   1.000  I
  I22      1.0000 0.82405  0.67535  0.66759  Biso   1.000  I
  I23      1.0000 0.56877  0.79385  0.62676  Biso   1.000  I
  I24      1.0000 0.50625  0.79927  0.53543  Biso   1.000  I
  N37      1.0000 0.55670  0.58370  0.45870  Biso   1.000  N
  N38      1.0000 0.58160  0.34370  0.54030  Biso   1.000  N
  N39      1.0000 0.62510  0.34120  0.58670  Biso   1.000  N
  N40      1.0000 0.61900  0.48590  0.55900  Biso   1.000  N
  N41      1.0000 0.55110  0.01000  0.57860  Biso   1.000  N
  N42      1.0000 0.70000  0.59120  0.65140  Biso   1.000  N
  N43      1.0000 0.77030  0.40580  0.22110  Biso   1.000  N
  N44      1.0000 0.82500  0.51610  0.32240  Biso   1.000  N
  N45      1.0000 0.78620  0.55390  0.36780  Biso   1.000  N
  N46      1.0000 0.74120  0.51660  0.32480  Biso   1.000  N
  N47      1.0000 0.95660  0.58870  0.39480  Biso   1.000  N
  N48      1.0000 0.61550  0.59550  0.39890  Biso   1.000  N
  Zn10     1.0000 0.55230  0.64398  0.41700  Biso   1.000  Zn
  Zn11     1.0000 0.73722  0.67135  0.68247  Biso   1.000  Zn
  Zn12     1.0000 0.52115  0.87660  0.58645  Biso   1.000  Zn
  C145     1.0000 0.95290  0.99040  0.46210  Biso   1.000  C
  H97      1.0000 0.96750  0.95640  0.44620  Biso   1.000  H
  C146     1.0000 0.94220  0.94090  0.48820  Biso   1.000  C
  H98      1.0000 0.94980  0.87440  0.49010  Biso   1.000  H
  C147     1.0000 0.92060  0.98870  0.51110  Biso   1.000  C
  C148     1.0000 0.91250  0.08580  0.50820  Biso   1.000  C
  H99      1.0000 0.89870  0.12170  0.52400  Biso   1.000  H
  C149     1.0000 0.92510  0.13120  0.48140  Biso   1.000  C
  H100     1.0000 0.92020  0.19880  0.47960  Biso   1.000  H
  C150     1.0000 0.90580  0.93620  0.53810  Biso   1.000  C
  C151     1.0000 0.90170  0.79920  0.56500  Biso   1.000  C
  C152     1.0000 0.86720  0.93400  0.58250  Biso   1.000  C
  C153     1.0000 0.91650  0.69710  0.56990  Biso   1.000  C
  C154     1.0000 0.94210  0.65010  0.54780  Biso   1.000  C
  H101     1.0000 0.94880  0.68170  0.52950  Biso   1.000  H
  C155     1.0000 0.95740  0.55770  0.55270  Biso   1.000  C
  H102     1.0000 0.97470  0.52580  0.53740  Biso   1.000  H
  C156     1.0000 0.92360  0.55590  0.59920  Biso   1.000  C
  H103     1.0000 0.91580  0.52220  0.61690  Biso   1.000  H
  C157     1.0000 0.90820  0.64910  0.59610  Biso   1.000  C
  H104     1.0000 0.89190  0.68030  0.61190  Biso   1.000  H
  C158     1.0000 0.84250  0.98610  0.60650  Biso   1.000  C
  C159     1.0000 0.81780  0.94140  0.62880  Biso   1.000  C
  H105     1.0000 0.81560  0.87300  0.62920  Biso   1.000  H
  C160     1.0000 0.79670  0.99460  0.65010  Biso   1.000  C
  H106     1.0000 0.77860  0.96230  0.66490  Biso   1.000  H
  C161     1.0000 0.82400  0.13580  0.63050  Biso   1.000  C
  H107     1.0000 0.82600  0.20420  0.63100  Biso   1.000  H
  C162     1.0000 0.84620  0.08790  0.60800  Biso   1.000  C
  H108     1.0000 0.86390  0.12230  0.59350  Biso   1.000  H
  C163     1.0000 0.68820  0.91680  0.23380  Biso   1.000  C
  H109     1.0000 0.66070  0.90110  0.22260  Biso   1.000  H
  C164     1.0000 0.68230  0.95000  0.26260  Biso   1.000  C
  H110     1.0000 0.65160  0.95610  0.27090  Biso   1.000  H
  C165     1.0000 0.72110  0.97390  0.27890  Biso   1.000  C
  C166     1.0000 0.76500  0.96720  0.26540  Biso   1.000  C
  H111     1.0000 0.79250  0.98640  0.27600  Biso   1.000  H
  C167     1.0000 0.76890  0.93270  0.23670  Biso   1.000  C
  H112     1.0000 0.79930  0.92780  0.22780  Biso   1.000  H
  C168     1.0000 0.71770  0.00440  0.31070  Biso   1.000  C
  C169     1.0000 0.67560  0.04050  0.35160  Biso   1.000  C
  C170     1.0000 0.75450  0.04090  0.35350  Biso   1.000  C
  C171     1.0000 0.62970  0.05380  0.36680  Biso   1.000  C
  C172     1.0000 0.58750  0.04280  0.35160  Biso   1.000  C
  H113     1.0000 0.58760  0.02310  0.33130  Biso   1.000  H
  C173     1.0000 0.54460  0.06100  0.36620  Biso   1.000  C
  H114     1.0000 0.51570  0.05350  0.35570  Biso   1.000  H
  C174     1.0000 0.58360  0.09550  0.40940  Biso   1.000  C
  H115     1.0000 0.58260  0.11170  0.42990  Biso   1.000  H
  C175     1.0000 0.62770  0.07990  0.39620  Biso   1.000  C
  H116     1.0000 0.65590  0.08740  0.40740  Biso   1.000  H
  C176     1.0000 0.80040  0.05730  0.36980  Biso   1.000  C
  C177     1.0000 0.80040  0.08960  0.39900  Biso   1.000  C
  H117     1.0000 0.77160  0.09890  0.40950  Biso   1.000  H
  C178     1.0000 0.84370  0.10780  0.41250  Biso   1.000  C
  H118     1.0000 0.84380  0.13030  0.43250  Biso   1.000  H
  C179     1.0000 0.88410  0.06170  0.37050  Biso   1.000  C
  H119     1.0000 0.91340  0.05080  0.36070  Biso   1.000  H
  C180     1.0000 0.84350  0.04310  0.35590  Biso   1.000  C
  H120     1.0000 0.84450  0.02010  0.33600  Biso   1.000  H
  I25      1.0000 0.01274  0.05595  0.38885  Biso   1.000  I
  I26      1.0000 0.93533  0.32514  0.42001  Biso   1.000  I
  I27      1.0000 0.80612  0.33189  0.68930  Biso   1.000  I
  I28      1.0000 0.67595  0.17535  0.66759  Biso   1.000  I
  I29      1.0000 0.93123  0.29385  0.62676  Biso   1.000  I
  I30      1.0000 0.99375  0.29927  0.53543  Biso   1.000  I
  N49      1.0000 0.94330  0.08370  0.45870  Biso   1.000  N
  N50      1.0000 0.91840  0.84370  0.54030  Biso   1.000  N
  N51      1.0000 0.87490  0.84120  0.58670  Biso   1.000  N
  N52      1.0000 0.88100  0.98590  0.55900  Biso   1.000  N
  N53      1.0000 0.94890  0.51000  0.57860  Biso   1.000  N
  N54      1.0000 0.80000  0.09120  0.65140  Biso   1.000  N
  N55      1.0000 0.72970  0.90580  0.22110  Biso   1.000  N
  N56      1.0000 0.67500  0.01610  0.32240  Biso   1.000  N
  N57      1.0000 0.71380  0.05390  0.36780  Biso   1.000  N
  N58      1.0000 0.75880  0.01660  0.32480  Biso   1.000  N
  N59      1.0000 0.54340  0.08870  0.39480  Biso   1.000  N
  N60      1.0000 0.88450  0.09550  0.39890  Biso   1.000  N
  Zn13     1.0000 0.94770  0.14398  0.41700  Biso   1.000  Zn
  Zn14     1.0000 0.76278  0.17135  0.68247  Biso   1.000  Zn
  Zn15     1.0000 0.97885  0.37660  0.58645  Biso   1.000  Zn
  C181     1.0000 0.54710  0.00960  0.96210  Biso   1.000  C
  H121     1.0000 0.53250  0.04360  0.94620  Biso   1.000  H
  C182     1.0000 0.55780  0.05910  0.98820  Biso   1.000  C
  H122     1.0000 0.55020  0.12560  0.99010  Biso   1.000  H
  C183     1.0000 0.57940  0.01130  0.01110  Biso   1.000  C
  C184     1.0000 0.58750  0.91420  0.00820  Biso   1.000  C
  H123     1.0000 0.60130  0.87830  0.02400  Biso   1.000  H
  C185     1.0000 0.57490  0.86880  0.98140  Biso   1.000  C
  H124     1.0000 0.57980  0.80120  0.97960  Biso   1.000  H
  C186     1.0000 0.59420  0.06380  0.03810  Biso   1.000  C
  C187     1.0000 0.59830  0.20080  0.06500  Biso   1.000  C
  C188     1.0000 0.63280  0.06600  0.08250  Biso   1.000  C
  C189     1.0000 0.58350  0.30290  0.06990  Biso   1.000  C
  C190     1.0000 0.55790  0.34990  0.04780  Biso   1.000  C
  H125     1.0000 0.55120  0.31830  0.02950  Biso   1.000  H
  C191     1.0000 0.54260  0.44230  0.05270  Biso   1.000  C
  H126     1.0000 0.52530  0.47420  0.03740  Biso   1.000  H
  C192     1.0000 0.57640  0.44410  0.09920  Biso   1.000  C
  H127     1.0000 0.58420  0.47780  0.11690  Biso   1.000  H
  C193     1.0000 0.59180  0.35090  0.09610  Biso   1.000  C
  H128     1.0000 0.60810  0.31970  0.11190  Biso   1.000  H
  C194     1.0000 0.65750  0.01390  0.10650  Biso   1.000  C
  C195     1.0000 0.68220  0.05860  0.12880  Biso   1.000  C
  H129     1.0000 0.68440  0.12700  0.12920  Biso   1.000  H
  C196     1.0000 0.70330  0.00540  0.15010  Biso   1.000  C
  H130     1.0000 0.72140  0.03770  0.16490  Biso   1.000  H
  C197     1.0000 0.67600  0.86420  0.13050  Biso   1.000  C
  H131     1.0000 0.67400  0.79580  0.13100  Biso   1.000  H
  C198     1.0000 0.65380  0.91210  0.10800  Biso   1.000  C
  H132     1.0000 0.63610  0.87770  0.09350  Biso   1.000  H
  C199     1.0000 0.81180  0.08320  0.73380  Biso   1.000  C
  H133     1.0000 0.83930  0.09890  0.72260  Biso   1.000  H
  C200     1.0000 0.81770  0.05000  0.76260  Biso   1.000  C
  H134     1.0000 0.84840  0.04390  0.77090  Biso   1.000  H
  C201     1.0000 0.77890  0.02610  0.77890  Biso   1.000  C
  C202     1.0000 0.73500  0.03280  0.76540  Biso   1.000  C
  H135     1.0000 0.70750  0.01360  0.77600  Biso   1.000  H
  C203     1.0000 0.73110  0.06730  0.73670  Biso   1.000  C
  H136     1.0000 0.70070  0.07220  0.72780  Biso   1.000  H
  C204     1.0000 0.78230  0.99560  0.81070  Biso   1.000  C
  C205     1.0000 0.82440  0.95950  0.85160  Biso   1.000  C
  C206     1.0000 0.74550  0.95910  0.85350  Biso   1.000  C
  C207     1.0000 0.87030  0.94620  0.86680  Biso   1.000  C
  C208     1.0000 0.91250  0.95720  0.85160  Biso   1.000  C
  H137     1.0000 0.91240  0.97690  0.83130  Biso   1.000  H
  C209     1.0000 0.95540  0.93900  0.86620  Biso   1.000  C
  H138     1.0000 0.98430  0.94650  0.85570  Biso   1.000  H
  C210     1.0000 0.91640  0.90450  0.90940  Biso   1.000  C
  H139     1.0000 0.91740  0.88830  0.92990  Biso   1.000  H
  C211     1.0000 0.87230  0.92010  0.89620  Biso   1.000  C
  H140     1.0000 0.84410  0.91260  0.90740  Biso   1.000  H
  C212     1.0000 0.69960  0.94270  0.86980  Biso   1.000  C
  C213     1.0000 0.69960  0.91040  0.89900  Biso   1.000  C
  H141     1.0000 0.72840  0.90110  0.90950  Biso   1.000  H
  C214     1.0000 0.65630  0.89220  0.91250  Biso   1.000  C
  H142     1.0000 0.65620  0.86970  0.93250  Biso   1.000  H
  C215     1.0000 0.61590  0.93830  0.87050  Biso   1.000  C
  H143     1.0000 0.58660  0.94920  0.86070  Biso   1.000  H
  C216     1.0000 0.65650  0.95690  0.85590  Biso   1.000  C
  H144     1.0000 0.65550  0.97990  0.83600  Biso   1.000  H
  I31      1.0000 0.48726  0.94405  0.88885  Biso   1.000  I
  I32      1.0000 0.56467  0.67486  0.92001  Biso   1.000  I
  I33      1.0000 0.69388  0.66811  0.18930  Biso   1.000  I
  I34      1.0000 0.82405  0.82465  0.16759  Biso   1.000  I
  I35      1.0000 0.56877  0.70615  0.12676  Biso   1.000  I
  I36      1.0000 0.50625  0.70073  0.03543  Biso   1.000  I
  N61      1.0000 0.55670  0.91630  0.95870  Biso   1.000  N
  N62      1.0000 0.58160  0.15630  0.04030  Biso   1.000  N
  N63      1.0000 0.62510  0.15880  0.08670  Biso   1.000  N
  N64      1.0000 0.61900  0.01410  0.05900  Biso   1.000  N
  N65      1.0000 0.55110  0.49000  0.07860  Biso   1.000  N
  N66      1.0000 0.70000  0.90880  0.15140  Biso   1.000  N
  N67      1.0000 0.77030  0.09420  0.72110  Biso   1.000  N
  N68      1.0000 0.82500  0.98390  0.82240  Biso   1.000  N
  N69      1.0000 0.78620  0.94610  0.86780  Biso   1.000  N
  N70      1.0000 0.74120  0.98340  0.82480  Biso   1.000  N
  N71      1.0000 0.95660  0.91130  0.89480  Biso   1.000  N
  N72      1.0000 0.61550  0.90450  0.89890  Biso   1.000  N
  Zn16     1.0000 0.55230  0.85602  0.91700  Biso   1.000  Zn
  Zn17     1.0000 0.73722  0.82865  0.18247  Biso   1.000  Zn
  Zn18     1.0000 0.52115  0.62340  0.08645  Biso   1.000  Zn
  C217     1.0000 0.04710  0.49040  0.03790  Biso   1.000  C
  H145     1.0000 0.03250  0.45640  0.05380  Biso   1.000  H
  C218     1.0000 0.05780  0.44090  0.01180  Biso   1.000  C
  H146     1.0000 0.05020  0.37440  0.00990  Biso   1.000  H
  C219     1.0000 0.07940  0.48870  0.98890  Biso   1.000  C
  C220     1.0000 0.08750  0.58580  0.99180  Biso   1.000  C
  H147     1.0000 0.10130  0.62170  0.97600  Biso   1.000  H
  C221     1.0000 0.07490  0.63120  0.01860  Biso   1.000  C
  H148     1.0000 0.07980  0.69880  0.02040  Biso   1.000  H
  C222     1.0000 0.09420  0.43620  0.96190  Biso   1.000  C
  C223     1.0000 0.09830  0.29920  0.93500  Biso   1.000  C
  C224     1.0000 0.13280  0.43400  0.91750  Biso   1.000  C
  C225     1.0000 0.08350  0.19710  0.93010  Biso   1.000  C
  C226     1.0000 0.05790  0.15010  0.95220  Biso   1.000  C
  H149     1.0000 0.05120  0.18170  0.97050  Biso   1.000  H
  C227     1.0000 0.04260  0.05770  0.94730  Biso   1.000  C
  H150     1.0000 0.02530  0.02580  0.96260  Biso   1.000  H
  C228     1.0000 0.07640  0.05590  0.90080  Biso   1.000  C
  H151     1.0000 0.08420  0.02220  0.88310  Biso   1.000  H
  C229     1.0000 0.09180  0.14910  0.90390  Biso   1.000  C
  H152     1.0000 0.10810  0.18030  0.88810  Biso   1.000  H
  C230     1.0000 0.15750  0.48610  0.89350  Biso   1.000  C
  C231     1.0000 0.18220  0.44140  0.87120  Biso   1.000  C
  H153     1.0000 0.18440  0.37300  0.87080  Biso   1.000  H
  C232     1.0000 0.20330  0.49460  0.84990  Biso   1.000  C
  H154     1.0000 0.22140  0.46230  0.83510  Biso   1.000  H
  C233     1.0000 0.17600  0.63580  0.86950  Biso   1.000  C
  H155     1.0000 0.17400  0.70420  0.86900  Biso   1.000  H
  C234     1.0000 0.15380  0.58790  0.89200  Biso   1.000  C
  H156     1.0000 0.13610  0.62230  0.90650  Biso   1.000  H
  C235     1.0000 0.31180  0.41680  0.26620  Biso   1.000  C
  H157     1.0000 0.33930  0.40110  0.27740  Biso   1.000  H
  C236     1.0000 0.31770  0.45000  0.23740  Biso   1.000  C
  H158     1.0000 0.34840  0.45610  0.22910  Biso   1.000  H
  C237     1.0000 0.27890  0.47390  0.22110  Biso   1.000  C
  C238     1.0000 0.23500  0.46720  0.23460  Biso   1.000  C
  H159     1.0000 0.20750  0.48640  0.22400  Biso   1.000  H
  C239     1.0000 0.23110  0.43270  0.26330  Biso   1.000  C
  H160     1.0000 0.20070  0.42780  0.27220  Biso   1.000  H
  C240     1.0000 0.28230  0.50440  0.18930  Biso   1.000  C
  C241     1.0000 0.32440  0.54050  0.14840  Biso   1.000  C
  C242     1.0000 0.24550  0.54090  0.14650  Biso   1.000  C
  C243     1.0000 0.37030  0.55380  0.13320  Biso   1.000  C
  C244     1.0000 0.41250  0.54280  0.14840  Biso   1.000  C
  H161     1.0000 0.41240  0.52310  0.16870  Biso   1.000  H
  C245     1.0000 0.45540  0.56100  0.13380  Biso   1.000  C
  H162     1.0000 0.48430  0.55350  0.14430  Biso   1.000  H
  C246     1.0000 0.41640  0.59550  0.09060  Biso   1.000  C
  H163     1.0000 0.41740  0.61170  0.07010  Biso   1.000  H
  C247     1.0000 0.37230  0.57990  0.10380  Biso   1.000  C
  H164     1.0000 0.34410  0.58740  0.09260  Biso   1.000  H
  C248     1.0000 0.19960  0.55730  0.13020  Biso   1.000  C
  C249     1.0000 0.19960  0.58960  0.10100  Biso   1.000  C
  H165     1.0000 0.22840  0.59890  0.09050  Biso   1.000  H
  C250     1.0000 0.15630  0.60780  0.08750  Biso   1.000  C
  H166     1.0000 0.15620  0.63030  0.06750  Biso   1.000  H
  C251     1.0000 0.11590  0.56170  0.12950  Biso   1.000  C
  H167     1.0000 0.08660  0.55080  0.13930  Biso   1.000  H
  C252     1.0000 0.15650  0.54310  0.14410  Biso   1.000  C
  H168     1.0000 0.15550  0.52010  0.16400  Biso   1.000  H
  I37      1.0000 0.98726  0.55595  0.11115  Biso   1.000  I
  I38      1.0000 0.06467  0.82514  0.07999  Biso   1.000  I
  I39      1.0000 0.19388  0.83189  0.81070  Biso   1.000  I
  I40      1.0000 0.32405  0.67535  0.83241  Biso   1.000  I
  I41      1.0000 0.06877  0.79385  0.87324  Biso   1.000  I
  I42      1.0000 0.00625  0.79927  0.96457  Biso   1.000  I
  N73      1.0000 0.05670  0.58370  0.04130  Biso   1.000  N
  N74      1.0000 0.08160  0.34370  0.95970  Biso   1.000  N
  N75      1.0000 0.12510  0.34120  0.91330  Biso   1.000  N
  N76      1.0000 0.11900  0.48590  0.94100  Biso   1.000  N
  N77      1.0000 0.05110  0.01000  0.92140  Biso   1.000  N
  N78      1.0000 0.20000  0.59120  0.84860  Biso   1.000  N
  N79      1.0000 0.27030  0.40580  0.27890  Biso   1.000  N
  N80      1.0000 0.32500  0.51610  0.17760  Biso   1.000  N
  N81      1.0000 0.28620  0.55390  0.13220  Biso   1.000  N
  N82      1.0000 0.24120  0.51660  0.17520  Biso   1.000  N
  N83      1.0000 0.45660  0.58870  0.10520  Biso   1.000  N
  N84      1.0000 0.11550  0.59550  0.10110  Biso   1.000  N
  Zn19     1.0000 0.05230  0.64398  0.08300  Biso   1.000  Zn
  Zn20     1.0000 0.23722  0.67135  0.81753  Biso   1.000  Zn
  Zn21     1.0000 0.02115  0.87660  0.91355  Biso   1.000  Zn
  C253     1.0000 0.45290  0.50960  0.53790  Biso   1.000  C
  H169     1.0000 0.46750  0.54360  0.55380  Biso   1.000  H
  C254     1.0000 0.44220  0.55910  0.51180  Biso   1.000  C
  H170     1.0000 0.44980  0.62560  0.50990  Biso   1.000  H
  C255     1.0000 0.42060  0.51130  0.48890  Biso   1.000  C
  C256     1.0000 0.41250  0.41420  0.49180  Biso   1.000  C
  H171     1.0000 0.39870  0.37830  0.47600  Biso   1.000  H
  C257     1.0000 0.42510  0.36880  0.51860  Biso   1.000  C
  H172     1.0000 0.42020  0.30120  0.52040  Biso   1.000  H
  C258     1.0000 0.40580  0.56380  0.46190  Biso   1.000  C
  C259     1.0000 0.40170  0.70080  0.43500  Biso   1.000  C
  C260     1.0000 0.36720  0.56600  0.41750  Biso   1.000  C
  C261     1.0000 0.41650  0.80290  0.43010  Biso   1.000  C
  C262     1.0000 0.44210  0.84990  0.45220  Biso   1.000  C
  H173     1.0000 0.44880  0.81830  0.47050  Biso   1.000  H
  C263     1.0000 0.45740  0.94230  0.44730  Biso   1.000  C
  H174     1.0000 0.47470  0.97420  0.46260  Biso   1.000  H
  C264     1.0000 0.42360  0.94410  0.40080  Biso   1.000  C
  H175     1.0000 0.41580  0.97780  0.38310  Biso   1.000  H
  C265     1.0000 0.40820  0.85090  0.40390  Biso   1.000  C
  H176     1.0000 0.39190  0.81970  0.38810  Biso   1.000  H
  C266     1.0000 0.34250  0.51390  0.39350  Biso   1.000  C
  C267     1.0000 0.31780  0.55860  0.37120  Biso   1.000  C
  H177     1.0000 0.31560  0.62700  0.37080  Biso   1.000  H
  C268     1.0000 0.29670  0.50540  0.34990  Biso   1.000  C
  H178     1.0000 0.27860  0.53770  0.33510  Biso   1.000  H
  C269     1.0000 0.32400  0.36420  0.36950  Biso   1.000  C
  H179     1.0000 0.32600  0.29580  0.36900  Biso   1.000  H
  C270     1.0000 0.34620  0.41210  0.39200  Biso   1.000  C
  H180     1.0000 0.36390  0.37770  0.40650  Biso   1.000  H
  C271     1.0000 0.18820  0.58320  0.76620  Biso   1.000  C
  H181     1.0000 0.16070  0.59890  0.77740  Biso   1.000  H
  C272     1.0000 0.18230  0.55000  0.73740  Biso   1.000  C
  H182     1.0000 0.15160  0.54390  0.72910  Biso   1.000  H
  C273     1.0000 0.22110  0.52610  0.72110  Biso   1.000  C
  C274     1.0000 0.26500  0.53280  0.73460  Biso   1.000  C
  H183     1.0000 0.29250  0.51360  0.72400  Biso   1.000  H
  C275     1.0000 0.26890  0.56730  0.76330  Biso   1.000  C
  H184     1.0000 0.29930  0.57220  0.77220  Biso   1.000  H
  C276     1.0000 0.21770  0.49560  0.68930  Biso   1.000  C
  C277     1.0000 0.17560  0.45950  0.64840  Biso   1.000  C
  C278     1.0000 0.25450  0.45910  0.64650  Biso   1.000  C
  C279     1.0000 0.12970  0.44620  0.63320  Biso   1.000  C
  C280     1.0000 0.08750  0.45720  0.64840  Biso   1.000  C
  H185     1.0000 0.08760  0.47690  0.66870  Biso   1.000  H
  C281     1.0000 0.04460  0.43900  0.63380  Biso   1.000  C
  H186     1.0000 0.01570  0.44650  0.64430  Biso   1.000  H
  C282     1.0000 0.08360  0.40450  0.59060  Biso   1.000  C
  H187     1.0000 0.08260  0.38830  0.57010  Biso   1.000  H
  C283     1.0000 0.12770  0.42010  0.60380  Biso   1.000  C
  H188     1.0000 0.15590  0.41260  0.59260  Biso   1.000  H
  C284     1.0000 0.30040  0.44270  0.63020  Biso   1.000  C
  C285     1.0000 0.30040  0.41040  0.60100  Biso   1.000  C
  H189     1.0000 0.27160  0.40110  0.59050  Biso   1.000  H
  C286     1.0000 0.34370  0.39220  0.58750  Biso   1.000  C
  H190     1.0000 0.34380  0.36970  0.56750  Biso   1.000  H
  C287     1.0000 0.38410  0.43830  0.62950  Biso   1.000  C
  H191     1.0000 0.41340  0.44920  0.63930  Biso   1.000  H
  C288     1.0000 0.34350  0.45690  0.64410  Biso   1.000  C
  H192     1.0000 0.34450  0.47990  0.66400  Biso   1.000  H
  I43      1.0000 0.51274  0.44405  0.61115  Biso   1.000  I
  I44      1.0000 0.43533  0.17486  0.57999  Biso   1.000  I
  I45      1.0000 0.30612  0.16811  0.31070  Biso   1.000  I
  I46      1.0000 0.17595  0.32465  0.33241  Biso   1.000  I
  I47      1.0000 0.43123  0.20615  0.37324  Biso   1.000  I
  I48      1.0000 0.49375  0.20073  0.46457  Biso   1.000  I
  N85      1.0000 0.44330  0.41630  0.54130  Biso   1.000  N
  N86      1.0000 0.41840  0.65630  0.45970  Biso   1.000  N
  N87      1.0000 0.37490  0.65880  0.41330  Biso   1.000  N
  N88      1.0000 0.38100  0.51410  0.44100  Biso   1.000  N
  N89      1.0000 0.44890  0.99000  0.42140  Biso   1.000  N
  N90      1.0000 0.30000  0.40880  0.34860  Biso   1.000  N
  N91      1.0000 0.22970  0.59420  0.77890  Biso   1.000  N
  N92      1.0000 0.17500  0.48390  0.67760  Biso   1.000  N
  N93      1.0000 0.21380  0.44610  0.63220  Biso   1.000  N
  N94      1.0000 0.25880  0.48340  0.67520  Biso   1.000  N
  N95      1.0000 0.04340  0.41130  0.60520  Biso   1.000  N
  N96      1.0000 0.38450  0.40450  0.60110  Biso   1.000  N
  Zn22     1.0000 0.44770  0.35602  0.58300  Biso   1.000  Zn
  Zn23     1.0000 0.26278  0.32865  0.31753  Biso   1.000  Zn
  Zn24     1.0000 0.47885  0.12340  0.41355  Biso   1.000  Zn
