data_image0
_cell_length_a       7.03817
_cell_length_b       83.7732
_cell_length_c       83.7732
_cell_angle_alpha    60.0778
_cell_angle_beta     88.3952
_cell_angle_gamma    91.6048

_symmetry_space_group_name_H-M    P 1
_symmetry_int_tables_number       1

loop_
  _symmetry_equiv_pos_as_xyz
  'x, y, z'

loop_
  _atom_site_label
  _atom_site_occupancy
  _atom_site_fract_x
  _atom_site_fract_y
  _atom_site_fract_z
  _atom_site_thermal_displace_type
  _atom_site_B_iso_or_equiv
  _atom_site_type_symbol
  Mg1      1.0000 0.36512  0.32767  0.32385  Biso   1.000  Mg
  Mg2      1.0000 0.65592  0.67167  0.67623  Biso   1.000  Mg
  Mg3      1.0000 0.68897  0.32385  0.34848  Biso   1.000  Mg
  Mg4      1.0000 0.33215  0.67623  0.65210  Biso   1.000  Mg
  Mg5      1.0000 0.03745  0.34848  0.32767  Biso   1.000  Mg
  Mg6      1.0000 0.98425  0.65210  0.67167  Biso   1.000  Mg
  H1       1.0000 0.33882  0.31382  0.30385  Biso   1.000  H
  H2       1.0000 0.40563  0.50966  0.08725  Biso   1.000  H
  H3       1.0000 0.65325  0.51518  0.07954  Biso   1.000  H
  H4       1.0000 0.51084  0.50116  0.07302  Biso   1.000  H
  H5       1.0000 0.61447  0.49030  0.11283  Biso   1.000  H
  H6       1.0000 0.72966  0.48237  0.09860  Biso   1.000  H
  H7       1.0000 0.42548  0.46756  0.09705  Biso   1.000  H
  H8       1.0000 0.30148  0.47621  0.11032  Biso   1.000  H
  H9       1.0000 0.49111  0.45736  0.13749  Biso   1.000  H
  H10      1.0000 0.63744  0.45081  0.12386  Biso   1.000  H
  H11      1.0000 0.35774  0.43403  0.11998  Biso   1.000  H
  H12      1.0000 0.42641  0.42476  0.14317  Biso   1.000  H
  H13      1.0000 0.28185  0.39007  0.14184  Biso   1.000  H
  H14      1.0000 0.32463  0.36573  0.15221  Biso   1.000  H
  H15      1.0000 0.41440  0.38155  0.12888  Biso   1.000  H
  H16      1.0000 0.99369  0.37117  0.14250  Biso   1.000  H
  H17      1.0000 0.12586  0.36349  0.12897  Biso   1.000  H
  H18      1.0000 0.16996  0.39569  0.10273  Biso   1.000  H
  H19      1.0000 0.05970  0.40442  0.11632  Biso   1.000  H
  H20      1.0000 0.75451  0.38499  0.11903  Biso   1.000  H
  H21      1.0000 0.87347  0.37870  0.10389  Biso   1.000  H
  H22      1.0000 0.92663  0.41611  0.08151  Biso   1.000  H
  H23      1.0000 0.71954  0.40328  0.08170  Biso   1.000  H
  H24      1.0000 0.62237  0.55071  0.92421  Biso   1.000  H
  H25      1.0000 0.72677  0.56853  0.92802  Biso   1.000  H
  H26      1.0000 0.77453  0.56899  0.90658  Biso   1.000  H
  H27      1.0000 0.34439  0.50165  0.97289  Biso   1.000  H
  H28      1.0000 0.37025  0.50056  0.95203  Biso   1.000  H
  H29      1.0000 0.50309  0.51810  0.95430  Biso   1.000  H
  H30      1.0000 0.78060  0.53637  0.95778  Biso   1.000  H
  H31      1.0000 0.34108  0.53449  0.92152  Biso   1.000  H
  H32      1.0000 0.61599  0.46960  0.02193  Biso   1.000  H
  H33      1.0000 0.67364  0.46683  0.00236  Biso   1.000  H
  H34      1.0000 0.81230  0.45576  0.02258  Biso   1.000  H
  H35      1.0000 0.53913  0.41099  0.10258  Biso   1.000  H
  H36      1.0000 0.62413  0.43096  0.08181  Biso   1.000  H
  H37      1.0000 0.14237  0.45209  0.13720  Biso   1.000  H
  H38      1.0000 0.14295  0.42797  0.15358  Biso   1.000  H
  H39      1.0000 0.67074  0.44284  0.16623  Biso   1.000  H
  H40      1.0000 0.92323  0.44070  0.16901  Biso   1.000  H
  H41      1.0000 0.82256  0.44701  0.14712  Biso   1.000  H
  H42      1.0000 0.44622  0.35903  0.19168  Biso   1.000  H
  H43      1.0000 0.62385  0.35738  0.17680  Biso   1.000  H
  H44      1.0000 0.67778  0.35042  0.20017  Biso   1.000  H
  H45      1.0000 0.11461  0.40720  0.19596  Biso   1.000  H
  H46      1.0000 0.35245  0.41714  0.19021  Biso   1.000  H
  H47      1.0000 0.26797  0.40203  0.18179  Biso   1.000  H
  H48      1.0000 0.36067  0.32880  0.26834  Biso   1.000  H
  H49      1.0000 0.43091  0.32516  0.24964  Biso   1.000  H
  H50      1.0000 0.60587  0.33261  0.26003  Biso   1.000  H
  H51      1.0000 0.88613  0.54325  0.89563  Biso   1.000  H
  H52      1.0000 0.36456  0.59532  0.86574  Biso   1.000  H
  H53      1.0000 0.90459  0.61237  0.77089  Biso   1.000  H
  H54      1.0000 0.33805  0.64561  0.77248  Biso   1.000  H
  H55      1.0000 0.82143  0.49369  0.97756  Biso   1.000  H
  H56      1.0000 0.79872  0.38427  0.15665  Biso   1.000  H
  H57      1.0000 0.67906  0.41262  0.19556  Biso   1.000  H
  H58      1.0000 0.12693  0.63944  0.75356  Biso   1.000  H
  H59      1.0000 0.34093  0.64635  0.72771  Biso   1.000  H
  H60      1.0000 0.64892  0.64575  0.72063  Biso   1.000  H
  H61      1.0000 0.14690  0.30958  0.31551  Biso   1.000  H
  H62      1.0000 0.85343  0.69131  0.68426  Biso   1.000  H
  H63      1.0000 0.37320  0.35619  0.27695  Biso   1.000  H
  H64      1.0000 0.67925  0.35036  0.27307  Biso   1.000  H
  H65      1.0000 0.88648  0.35817  0.24638  Biso   1.000  H
  H66      1.0000 0.31682  0.58835  0.80198  Biso   1.000  H
  H67      1.0000 0.19794  0.61703  0.84059  Biso   1.000  H
  H68      1.0000 0.17461  0.50811  0.01991  Biso   1.000  H
  H69      1.0000 0.67078  0.35546  0.22480  Biso   1.000  H
  H70      1.0000 0.09858  0.38729  0.22795  Biso   1.000  H
  H71      1.0000 0.63186  0.40609  0.13155  Biso   1.000  H
  H72      1.0000 0.11031  0.45817  0.10194  Biso   1.000  H
  H73      1.0000 0.44192  0.67247  0.74513  Biso   1.000  H
  H74      1.0000 0.69497  0.67498  0.74038  Biso   1.000  H
  H75      1.0000 0.54166  0.66772  0.72805  Biso   1.000  H
  H76      1.0000 0.72277  0.59804  0.81659  Biso   1.000  H
  H77      1.0000 0.64091  0.58312  0.80785  Biso   1.000  H
  H78      1.0000 0.88022  0.59267  0.80285  Biso   1.000  H
  H79      1.0000 0.32276  0.65068  0.79705  Biso   1.000  H
  H80      1.0000 0.37476  0.64380  0.82044  Biso   1.000  H
  H81      1.0000 0.55324  0.64191  0.80577  Biso   1.000  H
  H82      1.0000 0.17352  0.55416  0.85047  Biso   1.000  H
  H83      1.0000 0.07227  0.56037  0.82863  Biso   1.000  H
  H84      1.0000 0.32481  0.55823  0.83138  Biso   1.000  H
  H85      1.0000 0.85362  0.57311  0.84398  Biso   1.000  H
  H86      1.0000 0.85402  0.54903  0.86052  Biso   1.000  H
  H87      1.0000 0.37260  0.57073  0.91546  Biso   1.000  H
  H88      1.0000 0.45752  0.59062  0.89461  Biso   1.000  H
  H89      1.0000 0.18367  0.54603  0.97488  Biso   1.000  H
  H90      1.0000 0.32229  0.53499  0.99510  Biso   1.000  H
  H91      1.0000 0.38001  0.53220  0.97554  Biso   1.000  H
  H92      1.0000 0.65553  0.46712  0.07600  Biso   1.000  H
  H93      1.0000 0.21586  0.46543  0.03960  Biso   1.000  H
  H94      1.0000 0.49336  0.48363  0.04322  Biso   1.000  H
  H95      1.0000 0.62610  0.50111  0.04558  Biso   1.000  H
  H96      1.0000 0.65194  0.50012  0.02467  Biso   1.000  H
  H97      1.0000 0.22222  0.43263  0.09077  Biso   1.000  H
  H98      1.0000 0.26990  0.43321  0.06927  Biso   1.000  H
  H99      1.0000 0.37429  0.45095  0.07318  Biso   1.000  H
  H100     1.0000 0.27728  0.59851  0.91537  Biso   1.000  H
  H101     1.0000 0.07012  0.58563  0.91566  Biso   1.000  H
  H102     1.0000 0.12333  0.62302  0.89308  Biso   1.000  H
  H103     1.0000 0.24218  0.61659  0.87804  Biso   1.000  H
  H104     1.0000 0.93692  0.59712  0.88089  Biso   1.000  H
  H105     1.0000 0.82675  0.60598  0.89437  Biso   1.000  H
  H106     1.0000 0.87081  0.63810  0.86799  Biso   1.000  H
  H107     1.0000 0.00299  0.63031  0.85456  Biso   1.000  H
  H108     1.0000 0.58225  0.61996  0.86821  Biso   1.000  H
  H109     1.0000 0.67209  0.63568  0.84484  Biso   1.000  H
  H110     1.0000 0.71479  0.61131  0.85536  Biso   1.000  H
  H111     1.0000 0.57025  0.57649  0.85429  Biso   1.000  H
  H112     1.0000 0.63863  0.56733  0.87747  Biso   1.000  H
  H113     1.0000 0.35877  0.55051  0.87370  Biso   1.000  H
  H114     1.0000 0.50503  0.54382  0.86017  Biso   1.000  H
  H115     1.0000 0.69438  0.52506  0.88740  Biso   1.000  H
  H116     1.0000 0.57062  0.53386  0.90055  Biso   1.000  H
  H117     1.0000 0.26623  0.51902  0.89912  Biso   1.000  H
  H118     1.0000 0.38099  0.51096  0.88497  Biso   1.000  H
  H119     1.0000 0.48516  0.50028  0.92472  Biso   1.000  H
  H120     1.0000 0.34218  0.48623  0.91832  Biso   1.000  H
  H121     1.0000 0.58977  0.49168  0.91057  Biso   1.000  H
  H122     1.0000 0.66309  0.68559  0.69636  Biso   1.000  H
  H123     1.0000 0.64267  0.30385  0.38233  Biso   1.000  H
  H124     1.0000 0.49288  0.08725  0.40309  Biso   1.000  H
  H125     1.0000 0.73279  0.07954  0.40528  Biso   1.000  H
  H126     1.0000 0.58386  0.07302  0.42582  Biso   1.000  H
  H127     1.0000 0.72730  0.11283  0.39687  Biso   1.000  H
  H128     1.0000 0.82826  0.09860  0.41903  Biso   1.000  H
  H129     1.0000 0.52253  0.09705  0.43539  Biso   1.000  H
  H130     1.0000 0.41180  0.11032  0.41347  Biso   1.000  H
  H131     1.0000 0.62860  0.13749  0.40515  Biso   1.000  H
  H132     1.0000 0.76130  0.12386  0.42533  Biso   1.000  H
  H133     1.0000 0.47772  0.11998  0.44599  Biso   1.000  H
  H134     1.0000 0.56958  0.14317  0.43207  Biso   1.000  H
  H135     1.0000 0.42369  0.14184  0.46809  Biso   1.000  H
  H136     1.0000 0.47684  0.15221  0.48206  Biso   1.000  H
  H137     1.0000 0.54328  0.12888  0.48957  Biso   1.000  H
  H138     1.0000 0.13619  0.14250  0.48633  Biso   1.000  H
  H139     1.0000 0.25483  0.12897  0.50754  Biso   1.000  H
  H140     1.0000 0.27269  0.10273  0.50158  Biso   1.000  H
  H141     1.0000 0.17602  0.11632  0.47926  Biso   1.000  H
  H142     1.0000 0.87354  0.11903  0.49598  Biso   1.000  H
  H143     1.0000 0.97736  0.10389  0.51741  Biso   1.000  H
  H144     1.0000 0.00814  0.08151  0.50238  Biso   1.000  H
  H145     1.0000 0.80124  0.08170  0.51502  Biso   1.000  H
  H146     1.0000 0.54658  0.92421  0.52508  Biso   1.000  H
  H147     1.0000 0.65479  0.92802  0.50345  Biso   1.000  H
  H148     1.0000 0.68111  0.90658  0.52443  Biso   1.000  H
  H149     1.0000 0.31728  0.97289  0.52546  Biso   1.000  H
  H150     1.0000 0.32228  0.95203  0.54741  Biso   1.000  H
  H151     1.0000 0.45739  0.95430  0.52760  Biso   1.000  H
  H152     1.0000 0.73838  0.95778  0.50585  Biso   1.000  H
  H153     1.0000 0.26260  0.92152  0.54399  Biso   1.000  H
  H154     1.0000 0.63792  0.02193  0.50847  Biso   1.000  H
  H155     1.0000 0.67600  0.00236  0.53081  Biso   1.000  H
  H156     1.0000 0.83488  0.02258  0.52166  Biso   1.000  H
  H157     1.0000 0.64171  0.10258  0.48643  Biso   1.000  H
  H158     1.0000 0.70594  0.08181  0.48723  Biso   1.000  H
  H159     1.0000 0.27957  0.13720  0.41071  Biso   1.000  H
  H160     1.0000 0.29653  0.15358  0.41845  Biso   1.000  H
  H161     1.0000 0.83697  0.16623  0.39093  Biso   1.000  H
  H162     1.0000 0.09224  0.16901  0.39029  Biso   1.000  H
  H163     1.0000 0.96968  0.14712  0.40587  Biso   1.000  H
  H164     1.0000 0.63790  0.19168  0.44929  Biso   1.000  H
  H165     1.0000 0.80065  0.17680  0.46582  Biso   1.000  H
  H166     1.0000 0.87795  0.20017  0.44941  Biso   1.000  H
  H167     1.0000 0.31057  0.19596  0.39684  Biso   1.000  H
  H168     1.0000 0.54266  0.19021  0.39265  Biso   1.000  H
  H169     1.0000 0.44976  0.18179  0.41618  Biso   1.000  H
  H170     1.0000 0.62901  0.26834  0.40286  Biso   1.000  H
  H171     1.0000 0.68055  0.24964  0.42520  Biso   1.000  H
  H172     1.0000 0.86590  0.26003  0.40736  Biso   1.000  H
  H173     1.0000 0.78176  0.89563  0.56112  Biso   1.000  H
  H174     1.0000 0.23030  0.86574  0.53894  Biso   1.000  H
  H175     1.0000 0.67548  0.77089  0.61674  Biso   1.000  H
  H176     1.0000 0.11053  0.77248  0.58191  Biso   1.000  H
  H177     1.0000 0.79899  0.97756  0.52875  Biso   1.000  H
  H178     1.0000 0.95537  0.15665  0.45908  Biso   1.000  H
  H179     1.0000 0.87462  0.19556  0.39182  Biso   1.000  H
  H180     1.0000 0.88049  0.75356  0.60700  Biso   1.000  H
  H181     1.0000 0.06864  0.72771  0.62594  Biso   1.000  H
  H182     1.0000 0.36955  0.72063  0.63362  Biso   1.000  H
  H183     1.0000 0.46241  0.31551  0.37491  Biso   1.000  H
  H184     1.0000 0.53769  0.68426  0.62443  Biso   1.000  H
  H185     1.0000 0.65015  0.27695  0.36686  Biso   1.000  H
  H186     1.0000 0.95232  0.27307  0.37657  Biso   1.000  H
  H187     1.0000 0.13286  0.24638  0.39545  Biso   1.000  H
  H188     1.0000 0.11880  0.80198  0.60967  Biso   1.000  H
  H189     1.0000 0.03853  0.84059  0.54238  Biso   1.000  H
  H190     1.0000 0.19452  0.01991  0.47198  Biso   1.000  H
  H191     1.0000 0.89558  0.22480  0.41974  Biso   1.000  H
  H192     1.0000 0.32653  0.22795  0.38476  Biso   1.000  H
  H193     1.0000 0.76341  0.13155  0.46236  Biso   1.000  H
  H194     1.0000 0.21225  0.10194  0.43989  Biso   1.000  H
  H195     1.0000 0.18705  0.74513  0.58240  Biso   1.000  H
  H196     1.0000 0.43535  0.74038  0.58464  Biso   1.000  H
  H197     1.0000 0.26971  0.72805  0.60423  Biso   1.000  H
  H198     1.0000 0.53936  0.81659  0.58537  Biso   1.000  H
  H199     1.0000 0.44876  0.80785  0.60903  Biso   1.000  H
  H200     1.0000 0.68307  0.80285  0.60448  Biso   1.000  H
  H201     1.0000 0.11981  0.79705  0.55227  Biso   1.000  H
  H202     1.0000 0.19520  0.82044  0.53576  Biso   1.000  H
  H203     1.0000 0.35901  0.80577  0.55232  Biso   1.000  H
  H204     1.0000 0.02399  0.85047  0.59537  Biso   1.000  H
  H205     1.0000 0.90090  0.82863  0.61100  Biso   1.000  H
  H206     1.0000 0.15619  0.83138  0.61039  Biso   1.000  H
  H207     1.0000 0.69760  0.84398  0.58291  Biso   1.000  H
  H208     1.0000 0.71454  0.86052  0.59045  Biso   1.000  H
  H209     1.0000 0.28806  0.91546  0.51381  Biso   1.000  H
  H210     1.0000 0.35213  0.89461  0.51477  Biso   1.000  H
  H211     1.0000 0.15855  0.97488  0.47909  Biso   1.000  H
  H212     1.0000 0.31739  0.99510  0.46991  Biso   1.000  H
  H213     1.0000 0.35555  0.97554  0.49226  Biso   1.000  H
  H214     1.0000 0.73153  0.07600  0.45688  Biso   1.000  H
  H215     1.0000 0.25546  0.03960  0.49497  Biso   1.000  H
  H216     1.0000 0.53658  0.04322  0.47315  Biso   1.000  H
  H217     1.0000 0.67168  0.04558  0.45331  Biso   1.000  H
  H218     1.0000 0.67661  0.02467  0.47521  Biso   1.000  H
  H219     1.0000 0.31299  0.09077  0.47660  Biso   1.000  H
  H220     1.0000 0.33917  0.06927  0.49752  Biso   1.000  H
  H221     1.0000 0.44747  0.07318  0.47587  Biso   1.000  H
  H222     1.0000 0.19265  0.91537  0.48612  Biso   1.000  H
  H223     1.0000 0.98578  0.91566  0.49871  Biso   1.000  H
  H224     1.0000 0.01641  0.89308  0.48390  Biso   1.000  H
  H225     1.0000 0.12022  0.87804  0.50537  Biso   1.000  H
  H226     1.0000 0.81781  0.88089  0.52199  Biso   1.000  H
  H227     1.0000 0.72112  0.89437  0.49965  Biso   1.000  H
  H228     1.0000 0.73880  0.86799  0.49391  Biso   1.000  H
  H229     1.0000 0.85755  0.85456  0.51513  Biso   1.000  H
  H230     1.0000 0.45046  0.86821  0.51183  Biso   1.000  H
  H231     1.0000 0.51693  0.84484  0.51948  Biso   1.000  H
  H232     1.0000 0.57015  0.85536  0.53333  Biso   1.000  H
  H233     1.0000 0.42454  0.85429  0.56922  Biso   1.000  H
  H234     1.0000 0.51610  0.87747  0.55520  Biso   1.000  H
  H235     1.0000 0.23247  0.87370  0.57579  Biso   1.000  H
  H236     1.0000 0.36520  0.86017  0.59601  Biso   1.000  H
  H237     1.0000 0.58178  0.88740  0.58754  Biso   1.000  H
  H238     1.0000 0.47117  0.90055  0.56559  Biso   1.000  H
  H239     1.0000 0.16535  0.89912  0.58186  Biso   1.000  H
  H240     1.0000 0.26596  0.88497  0.60407  Biso   1.000  H
  H241     1.0000 0.40988  0.92472  0.57500  Biso   1.000  H
  H242     1.0000 0.26050  0.91832  0.59545  Biso   1.000  H
  H243     1.0000 0.50034  0.91057  0.59775  Biso   1.000  H
  H244     1.0000 0.35945  0.69636  0.61805  Biso   1.000  H
  H245     1.0000 0.02500  0.38233  0.31382  Biso   1.000  H
  H246     1.0000 0.89597  0.40309  0.50966  Biso   1.000  H
  H247     1.0000 0.13807  0.40528  0.51518  Biso   1.000  H
  H248     1.0000 0.00968  0.42582  0.50116  Biso   1.000  H
  H249     1.0000 0.12417  0.39687  0.49030  Biso   1.000  H
  H250     1.0000 0.24729  0.41903  0.48237  Biso   1.000  H
  H251     1.0000 0.95792  0.43539  0.46756  Biso   1.000  H
  H252     1.0000 0.82527  0.41347  0.47621  Biso   1.000  H
  H253     1.0000 0.03375  0.40515  0.45736  Biso   1.000  H
  H254     1.0000 0.18663  0.42533  0.45081  Biso   1.000  H
  H255     1.0000 0.92371  0.44599  0.43403  Biso   1.000  H
  H256     1.0000 0.00165  0.43207  0.42476  Biso   1.000  H
  H257     1.0000 0.89178  0.46809  0.39007  Biso   1.000  H
  H258     1.0000 0.95890  0.48206  0.36573  Biso   1.000  H
  H259     1.0000 0.03285  0.48957  0.38155  Biso   1.000  H
  H260     1.0000 0.62252  0.48633  0.37117  Biso   1.000  H
  H261     1.0000 0.76237  0.50754  0.36349  Biso   1.000  H
  H262     1.0000 0.77427  0.50158  0.39569  Biso   1.000  H
  H263     1.0000 0.65528  0.47926  0.40442  Biso   1.000  H
  H264     1.0000 0.36952  0.49598  0.38499  Biso   1.000  H
  H265     1.0000 0.49477  0.51741  0.37870  Biso   1.000  H
  H266     1.0000 0.51052  0.50238  0.41611  Biso   1.000  H
  H267     1.0000 0.31626  0.51502  0.40328  Biso   1.000  H
  H268     1.0000 0.07166  0.52508  0.55071  Biso   1.000  H
  H269     1.0000 0.15824  0.50345  0.56853  Biso   1.000  H
  H270     1.0000 0.20554  0.52443  0.56899  Biso   1.000  H
  H271     1.0000 0.84274  0.52546  0.50165  Biso   1.000  H
  H272     1.0000 0.86969  0.54741  0.50056  Biso   1.000  H
  H273     1.0000 0.98499  0.52760  0.51810  Biso   1.000  H
  H274     1.0000 0.24423  0.50585  0.53637  Biso   1.000  H
  H275     1.0000 0.80659  0.54399  0.53449  Biso   1.000  H
  H276     1.0000 0.14639  0.50847  0.46960  Biso   1.000  H
  H277     1.0000 0.20681  0.53081  0.46683  Biso   1.000  H
  H278     1.0000 0.35654  0.52166  0.45576  Biso   1.000  H
  H279     1.0000 0.12814  0.48643  0.41099  Biso   1.000  H
  H280     1.0000 0.19317  0.48723  0.43096  Biso   1.000  H
  H281     1.0000 0.69028  0.41071  0.45209  Biso   1.000  H
  H282     1.0000 0.71498  0.41845  0.42797  Biso   1.000  H
  H283     1.0000 0.22790  0.39093  0.44284  Biso   1.000  H
  H284     1.0000 0.48253  0.39029  0.44070  Biso   1.000  H
  H285     1.0000 0.37555  0.40587  0.44701  Biso   1.000  H
  H286     1.0000 0.08719  0.44929  0.35903  Biso   1.000  H
  H287     1.0000 0.26647  0.46582  0.35738  Biso   1.000  H
  H288     1.0000 0.32736  0.44941  0.35042  Biso   1.000  H
  H289     1.0000 0.70741  0.39684  0.40720  Biso   1.000  H
  H290     1.0000 0.93531  0.39265  0.41714  Biso   1.000  H
  H291     1.0000 0.86594  0.41618  0.40203  Biso   1.000  H
  H292     1.0000 0.03187  0.40286  0.32880  Biso   1.000  H
  H293     1.0000 0.10575  0.42520  0.32516  Biso   1.000  H
  H294     1.0000 0.27326  0.40736  0.33261  Biso   1.000  H
  H295     1.0000 0.34288  0.56112  0.54325  Biso   1.000  H
  H296     1.0000 0.76924  0.53894  0.59532  Biso   1.000  H
  H297     1.0000 0.29222  0.61674  0.61237  Biso   1.000  H
  H298     1.0000 0.69244  0.58191  0.64561  Biso   1.000  H
  H299     1.0000 0.32774  0.52875  0.49369  Biso   1.000  H
  H300     1.0000 0.41445  0.45908  0.38427  Biso   1.000  H
  H301     1.0000 0.26644  0.39182  0.41262  Biso   1.000  H
  H302     1.0000 0.48749  0.60700  0.63944  Biso   1.000  H
  H303     1.0000 0.69458  0.62594  0.64635  Biso   1.000  H
  H304     1.0000 0.00317  0.63362  0.64575  Biso   1.000  H
  H305     1.0000 0.83732  0.37491  0.30958  Biso   1.000  H
  H306     1.0000 0.16212  0.62443  0.69131  Biso   1.000  H
  H307     1.0000 0.01701  0.36686  0.35619  Biso   1.000  H
  H308     1.0000 0.32889  0.37657  0.35036  Biso   1.000  H
  H309     1.0000 0.52831  0.39545  0.35817  Biso   1.000  H
  H310     1.0000 0.72847  0.60967  0.58835  Biso   1.000  H
  H311     1.0000 0.58091  0.54238  0.61703  Biso   1.000  H
  H312     1.0000 0.66650  0.47198  0.50811  Biso   1.000  H
  H313     1.0000 0.31532  0.41974  0.35546  Biso   1.000  H
  H314     1.0000 0.71129  0.38476  0.38729  Biso   1.000  H
  H315     1.0000 0.22577  0.46236  0.40609  Biso   1.000  H
  H316     1.0000 0.65214  0.43989  0.45817  Biso   1.000  H
  H317     1.0000 0.76945  0.58240  0.67247  Biso   1.000  H
  H318     1.0000 0.01999  0.58464  0.67498  Biso   1.000  H
  H319     1.0000 0.87394  0.60423  0.66772  Biso   1.000  H
  H320     1.0000 0.12473  0.58537  0.59804  Biso   1.000  H
  H321     1.0000 0.05779  0.60903  0.58312  Biso   1.000  H
  H322     1.0000 0.28755  0.60448  0.59267  Biso   1.000  H
  H323     1.0000 0.67208  0.55227  0.65068  Biso   1.000  H
  H324     1.0000 0.73096  0.53576  0.64380  Biso   1.000  H
  H325     1.0000 0.91133  0.55232  0.64191  Biso   1.000  H
  H326     1.0000 0.61936  0.59537  0.55416  Biso   1.000  H
  H327     1.0000 0.51190  0.61100  0.56037  Biso   1.000  H
  H328     1.0000 0.76658  0.61039  0.55823  Biso   1.000  H
  H329     1.0000 0.28051  0.58291  0.57311  Biso   1.000  H
  H330     1.0000 0.30499  0.59045  0.54903  Biso   1.000  H
  H331     1.0000 0.80187  0.51381  0.57073  Biso   1.000  H
  H332     1.0000 0.86690  0.51477  0.59062  Biso   1.000  H
  H333     1.0000 0.63764  0.47909  0.54603  Biso   1.000  H
  H334     1.0000 0.78730  0.46991  0.53499  Biso   1.000  H
  H335     1.0000 0.84781  0.49226  0.53220  Biso   1.000  H
  H336     1.0000 0.18841  0.45688  0.46712  Biso   1.000  H
  H337     1.0000 0.75043  0.49497  0.46543  Biso   1.000  H
  H338     1.0000 0.00973  0.47315  0.48363  Biso   1.000  H
  H339     1.0000 0.12499  0.45331  0.50111  Biso   1.000  H
  H340     1.0000 0.15182  0.47521  0.50012  Biso   1.000  H
  H341     1.0000 0.78959  0.47660  0.43263  Biso   1.000  H
  H342     1.0000 0.83669  0.49752  0.43321  Biso   1.000  H
  H343     1.0000 0.92334  0.47587  0.45095  Biso   1.000  H
  H344     1.0000 0.67877  0.48612  0.59851  Biso   1.000  H
  H345     1.0000 0.48449  0.49871  0.58563  Biso   1.000  H
  H346     1.0000 0.50031  0.48390  0.62302  Biso   1.000  H
  H347     1.0000 0.62559  0.50537  0.61659  Biso   1.000  H
  H348     1.0000 0.33980  0.52199  0.59712  Biso   1.000  H
  H349     1.0000 0.22077  0.49965  0.60598  Biso   1.000  H
  H350     1.0000 0.23271  0.49391  0.63810  Biso   1.000  H
  H351     1.0000 0.37268  0.51513  0.63031  Biso   1.000  H
  H352     1.0000 0.96229  0.51183  0.61996  Biso   1.000  H
  H353     1.0000 0.03641  0.51948  0.63568  Biso   1.000  H
  H354     1.0000 0.10348  0.53333  0.61131  Biso   1.000  H
  H355     1.0000 0.99376  0.56922  0.57649  Biso   1.000  H
  H356     1.0000 0.07130  0.55520  0.56733  Biso   1.000  H
  H357     1.0000 0.80826  0.57579  0.55051  Biso   1.000  H
  H358     1.0000 0.96121  0.59601  0.54382  Biso   1.000  H
  H359     1.0000 0.16932  0.58754  0.52506  Biso   1.000  H
  H360     1.0000 0.03676  0.56559  0.53386  Biso   1.000  H
  H361     1.0000 0.74721  0.58186  0.51902  Biso   1.000  H
  H362     1.0000 0.87003  0.60407  0.51096  Biso   1.000  H
  H363     1.0000 0.98488  0.57500  0.50028  Biso   1.000  H
  H364     1.0000 0.85595  0.59545  0.48623  Biso   1.000  H
  H365     1.0000 0.09809  0.59775  0.49168  Biso   1.000  H
  H366     1.0000 0.97750  0.61805  0.68559  Biso   1.000  H
  C1       1.0000 0.53674  0.50429  0.08428  Biso   1.000  C
  C2       1.0000 0.59291  0.48691  0.10167  Biso   1.000  C
  C3       1.0000 0.43918  0.47126  0.10807  Biso   1.000  C
  C4       1.0000 0.49152  0.45413  0.12607  Biso   1.000  C
  C5       1.0000 0.36061  0.43687  0.13167  Biso   1.000  C
  C6       1.0000 0.29424  0.37841  0.13906  Biso   1.000  C
  C7       1.0000 0.10967  0.37515  0.13169  Biso   1.000  C
  C8       1.0000 0.05926  0.39256  0.11382  Biso   1.000  C
  C9       1.0000 0.86371  0.38984  0.10747  Biso   1.000  C
  C10      1.0000 0.80111  0.40756  0.09030  Biso   1.000  C
  C11      1.0000 0.75149  0.55973  0.92171  Biso   1.000  C
  C12      1.0000 0.36451  0.51016  0.95761  Biso   1.000  C
  C13      1.0000 0.90369  0.53605  0.94984  Biso   1.000  C
  C14      1.0000 0.91515  0.54760  0.93055  Biso   1.000  C
  C15      1.0000 0.07704  0.54734  0.92027  Biso   1.000  C
  C16      1.0000 0.21990  0.53504  0.92948  Biso   1.000  C
  C17      1.0000 0.20773  0.52334  0.94877  Biso   1.000  C
  C18      1.0000 0.04856  0.52409  0.95906  Biso   1.000  C
  C19      1.0000 0.73520  0.46842  0.01364  Biso   1.000  C
  C20      1.0000 0.67064  0.41936  0.09496  Biso   1.000  C
  C21      1.0000 0.15899  0.43824  0.13859  Biso   1.000  C
  C22      1.0000 0.80126  0.43821  0.16223  Biso   1.000  C
  C23      1.0000 0.60138  0.36064  0.18810  Biso   1.000  C
  C24      1.0000 0.26386  0.40452  0.19370  Biso   1.000  C
  C25      1.0000 0.45671  0.33412  0.25581  Biso   1.000  C
  C26      1.0000 0.99160  0.56633  0.86945  Biso   1.000  C
  C27      1.0000 0.98582  0.55501  0.88885  Biso   1.000  C
  C28      1.0000 0.22760  0.57475  0.89134  Biso   1.000  C
  C29      1.0000 0.25460  0.58432  0.87202  Biso   1.000  C
  C30      1.0000 0.78208  0.61980  0.77127  Biso   1.000  C
  C31      1.0000 0.66679  0.61243  0.78754  Biso   1.000  C
  C32      1.0000 0.58859  0.64666  0.75643  Biso   1.000  C
  C33      1.0000 0.46293  0.63846  0.77220  Biso   1.000  C
  C34      1.0000 0.09866  0.55925  0.89987  Biso   1.000  C
  C35      1.0000 0.13941  0.58038  0.86067  Biso   1.000  C
  C36      1.0000 0.49873  0.62131  0.78772  Biso   1.000  C
  C37      1.0000 0.74356  0.63663  0.75552  Biso   1.000  C
  C38      1.0000 0.89826  0.49678  0.98686  Biso   1.000  C
  C39      1.0000 0.86971  0.48526  0.00609  Biso   1.000  C
  C40      1.0000 0.96995  0.48953  0.01804  Biso   1.000  C
  C41      1.0000 0.67389  0.38006  0.18232  Biso   1.000  C
  C42      1.0000 0.77044  0.39067  0.16497  Biso   1.000  C
  C43      1.0000 0.81202  0.40984  0.15726  Biso   1.000  C
  C44      1.0000 0.77822  0.41781  0.16868  Biso   1.000  C
  C45      1.0000 0.70319  0.40653  0.18686  Biso   1.000  C
  C46      1.0000 0.63500  0.38831  0.19321  Biso   1.000  C
  C47      1.0000 0.19112  0.64703  0.72542  Biso   1.000  C
  C48      1.0000 0.06815  0.64303  0.74041  Biso   1.000  C
  C49      1.0000 0.87144  0.64326  0.73869  Biso   1.000  C
  C50      1.0000 0.79966  0.64726  0.72160  Biso   1.000  C
  C51      1.0000 0.10499  0.34915  0.29238  Biso   1.000  C
  C52      1.0000 0.90304  0.34740  0.29153  Biso   1.000  C
  C53      1.0000 0.76249  0.34052  0.30769  Biso   1.000  C
  C54      1.0000 0.25620  0.65898  0.69255  Biso   1.000  C
  C55      1.0000 0.12315  0.65188  0.70792  Biso   1.000  C
  C56      1.0000 0.92154  0.65119  0.70633  Biso   1.000  C
  C57      1.0000 0.22221  0.35387  0.27658  Biso   1.000  C
  C58      1.0000 0.14583  0.35682  0.26000  Biso   1.000  C
  C59      1.0000 0.94892  0.35549  0.25915  Biso   1.000  C
  C60      1.0000 0.83031  0.35101  0.27456  Biso   1.000  C
  C61      1.0000 0.36305  0.61269  0.80424  Biso   1.000  C
  C62      1.0000 0.29288  0.59452  0.81061  Biso   1.000  C
  C63      1.0000 0.21752  0.58331  0.82880  Biso   1.000  C
  C64      1.0000 0.18409  0.59139  0.84012  Biso   1.000  C
  C65      1.0000 0.22623  0.61057  0.83233  Biso   1.000  C
  C66      1.0000 0.32404  0.62105  0.81503  Biso   1.000  C
  C67      1.0000 0.02610  0.51227  0.97943  Biso   1.000  C
  C68      1.0000 0.12628  0.51656  0.99137  Biso   1.000  C
  C69      1.0000 0.09773  0.50501  0.01060  Biso   1.000  C
  C70      1.0000 0.26810  0.36358  0.24285  Biso   1.000  C
  C71      1.0000 0.50321  0.37939  0.21000  Biso   1.000  C
  C72      1.0000 0.85684  0.42093  0.13673  Biso   1.000  C
  C73      1.0000 0.89788  0.44229  0.09755  Biso   1.000  C
  C74      1.0000 0.54493  0.36236  0.22537  Biso   1.000  C
  C75      1.0000 0.42423  0.35390  0.24148  Biso   1.000  C
  C76      1.0000 0.33359  0.38785  0.21063  Biso   1.000  C
  C77      1.0000 0.22277  0.38022  0.22721  Biso   1.000  C
  C78      1.0000 0.74179  0.41709  0.12533  Biso   1.000  C
  C79      1.0000 0.76895  0.42678  0.10598  Biso   1.000  C
  C80      1.0000 0.01063  0.44641  0.10866  Biso   1.000  C
  C81      1.0000 0.00477  0.43497  0.12806  Biso   1.000  C
  C82      1.0000 0.56486  0.66650  0.74165  Biso   1.000  C
  C83      1.0000 0.73062  0.59559  0.80466  Biso   1.000  C
  C84      1.0000 0.39785  0.64044  0.80922  Biso   1.000  C
  C85      1.0000 0.19444  0.56291  0.83534  Biso   1.000  C
  C86      1.0000 0.83742  0.56293  0.85900  Biso   1.000  C
  C87      1.0000 0.32603  0.58227  0.90228  Biso   1.000  C
  C88      1.0000 0.26077  0.53338  0.98383  Biso   1.000  C
  C89      1.0000 0.94784  0.47767  0.03840  Biso   1.000  C
  C90      1.0000 0.78875  0.47837  0.04873  Biso   1.000  C
  C91      1.0000 0.77671  0.46660  0.06801  Biso   1.000  C
  C92      1.0000 0.91960  0.45428  0.07717  Biso   1.000  C
  C93      1.0000 0.08148  0.45410  0.06685  Biso   1.000  C
  C94      1.0000 0.09284  0.46572  0.04757  Biso   1.000  C
  C95      1.0000 0.63188  0.49155  0.03995  Biso   1.000  C
  C96      1.0000 0.24520  0.44196  0.07565  Biso   1.000  C
  C97      1.0000 0.19563  0.59415  0.90684  Biso   1.000  C
  C98      1.0000 0.13301  0.61180  0.88960  Biso   1.000  C
  C99      1.0000 0.93742  0.60903  0.88329  Biso   1.000  C
  C100     1.0000 0.88700  0.62638  0.86536  Biso   1.000  C
  C101     1.0000 0.70243  0.62305  0.85804  Biso   1.000  C
  C102     1.0000 0.63579  0.56440  0.86584  Biso   1.000  C
  C103     1.0000 0.50465  0.54714  0.87153  Biso   1.000  C
  C104     1.0000 0.55678  0.53007  0.88959  Biso   1.000  C
  C105     1.0000 0.40282  0.51444  0.89607  Biso   1.000  C
  C106     1.0000 0.45889  0.49709  0.91352  Biso   1.000  C
  C107     1.0000 0.62102  0.08428  0.41143  Biso   1.000  C
  C108     1.0000 0.69458  0.10167  0.41142  Biso   1.000  C
  C109     1.0000 0.54725  0.10807  0.42067  Biso   1.000  C
  C110     1.0000 0.61759  0.12607  0.41980  Biso   1.000  C
  C111     1.0000 0.49228  0.13167  0.43146  Biso   1.000  C
  C112     1.0000 0.43330  0.13906  0.48253  Biso   1.000  C
  C113     1.0000 0.24136  0.13169  0.49316  Biso   1.000  C
  C114     1.0000 0.17308  0.11382  0.49362  Biso   1.000  C
  C115     1.0000 0.97118  0.10747  0.50269  Biso   1.000  C
  C116     1.0000 0.89141  0.09030  0.50214  Biso   1.000  C
  C117     1.0000 0.67320  0.92171  0.51856  Biso   1.000  C
  C118     1.0000 0.32212  0.95761  0.53223  Biso   1.000  C
  C119     1.0000 0.85353  0.94984  0.51411  Biso   1.000  C
  C120     1.0000 0.84570  0.93055  0.52185  Biso   1.000  C
  C121     1.0000 0.99731  0.92027  0.53239  Biso   1.000  C
  C122     1.0000 0.14938  0.92948  0.53548  Biso   1.000  C
  C123     1.0000 0.15650  0.94877  0.52789  Biso   1.000  C
  C124     1.0000 0.00762  0.95906  0.51685  Biso   1.000  C
  C125     1.0000 0.74884  0.01364  0.51794  Biso   1.000  C
  C126     1.0000 0.76560  0.09496  0.48568  Biso   1.000  C
  C127     1.0000 0.29758  0.13859  0.42317  Biso   1.000  C
  C128     1.0000 0.96349  0.16223  0.39956  Biso   1.000  C
  C129     1.0000 0.78948  0.18810  0.45126  Biso   1.000  C
  C130     1.0000 0.45756  0.19370  0.40178  Biso   1.000  C
  C131     1.0000 0.71252  0.25581  0.41007  Biso   1.000  C
  C132     1.0000 0.86105  0.86945  0.56422  Biso   1.000  C
  C133     1.0000 0.87467  0.88885  0.55614  Biso   1.000  C
  C134     1.0000 0.11894  0.89134  0.53391  Biso   1.000  C
  C135     1.0000 0.12662  0.87202  0.54366  Biso   1.000  C
  C136     1.0000 0.55335  0.77127  0.60893  Biso   1.000  C
  C137     1.0000 0.45433  0.78754  0.60003  Biso   1.000  C
  C138     1.0000 0.34502  0.75643  0.59691  Biso   1.000  C
  C139     1.0000 0.23513  0.77220  0.58934  Biso   1.000  C
  C140     1.0000 0.99853  0.89987  0.54088  Biso   1.000  C
  C141     1.0000 0.00008  0.86067  0.55895  Biso   1.000  C
  C142     1.0000 0.28645  0.78772  0.59097  Biso   1.000  C
  C143     1.0000 0.49908  0.75552  0.60785  Biso   1.000  C
  C144     1.0000 0.88512  0.98686  0.51636  Biso   1.000  C
  C145     1.0000 0.87580  0.00609  0.50865  Biso   1.000  C
  C146     1.0000 0.98799  0.01804  0.49243  Biso   1.000  C
  C147     1.0000 0.85621  0.18232  0.43762  Biso   1.000  C
  C148     1.0000 0.93541  0.16497  0.44436  Biso   1.000  C
  C149     1.0000 0.96928  0.15726  0.43290  Biso   1.000  C
  C150     1.0000 0.94690  0.16868  0.41351  Biso   1.000  C
  C151     1.0000 0.89005  0.18686  0.40661  Biso   1.000  C
  C152     1.0000 0.82821  0.19321  0.41848  Biso   1.000  C
  C153     1.0000 0.91654  0.72542  0.62755  Biso   1.000  C
  C154     1.0000 0.80856  0.74041  0.61656  Biso   1.000  C
  C155     1.0000 0.61013  0.73869  0.61805  Biso   1.000  C
  C156     1.0000 0.52126  0.72160  0.63114  Biso   1.000  C
  C157     1.0000 0.39737  0.29238  0.35847  Biso   1.000  C
  C158     1.0000 0.19457  0.29153  0.36107  Biso   1.000  C
  C159     1.0000 0.07018  0.30769  0.35179  Biso   1.000  C
  C160     1.0000 0.94875  0.69255  0.64847  Biso   1.000  C
  C161     1.0000 0.83107  0.70792  0.64020  Biso   1.000  C
  C162     1.0000 0.62787  0.70633  0.64248  Biso   1.000  C
  C163     1.0000 0.49879  0.27658  0.36955  Biso   1.000  C
  C164     1.0000 0.40583  0.26000  0.38318  Biso   1.000  C
  C165     1.0000 0.20807  0.25915  0.38536  Biso   1.000  C
  C166     1.0000 0.10487  0.27456  0.37443  Biso   1.000  C
  C167     1.0000 0.16729  0.80424  0.58307  Biso   1.000  C
  C168     1.0000 0.10349  0.81061  0.59487  Biso   1.000  C
  C169     1.0000 0.04632  0.82880  0.58789  Biso   1.000  C
  C170     1.0000 0.02421  0.84012  0.56849  Biso   1.000  C
  C171     1.0000 0.05856  0.83233  0.55710  Biso   1.000  C
  C172     1.0000 0.13907  0.81503  0.56392  Biso   1.000  C
  C173     1.0000 0.00553  0.97943  0.50830  Biso   1.000  C
  C174     1.0000 0.11765  0.99137  0.49207  Biso   1.000  C
  C175     1.0000 0.10833  0.01060  0.48439  Biso   1.000  C
  C176     1.0000 0.51095  0.24285  0.39357  Biso   1.000  C
  C177     1.0000 0.71321  0.21000  0.41061  Biso   1.000  C
  C178     1.0000 0.99357  0.13673  0.44234  Biso   1.000  C
  C179     1.0000 0.99543  0.09755  0.46016  Biso   1.000  C
  C180     1.0000 0.77030  0.22537  0.41227  Biso   1.000  C
  C181     1.0000 0.66571  0.24148  0.40462  Biso   1.000  C
  C182     1.0000 0.54422  0.21063  0.40152  Biso   1.000  C
  C183     1.0000 0.44998  0.22721  0.39257  Biso   1.000  C
  C184     1.0000 0.86712  0.12533  0.45758  Biso   1.000  C
  C185     1.0000 0.87493  0.10598  0.46724  Biso   1.000  C
  C186     1.0000 0.11929  0.10866  0.44493  Biso   1.000  C
  C187     1.0000 0.13283  0.12806  0.43697  Biso   1.000  C
  C188     1.0000 0.30651  0.74165  0.59185  Biso   1.000  C
  C189     1.0000 0.53528  0.80466  0.59975  Biso   1.000  C
  C190     1.0000 0.20707  0.80922  0.55034  Biso   1.000  C
  C191     1.0000 0.02978  0.83534  0.60175  Biso   1.000  C
  C192     1.0000 0.69642  0.85900  0.57807  Biso   1.000  C
  C193     1.0000 0.22831  0.90228  0.51545  Biso   1.000  C
  C194     1.0000 0.24460  0.98383  0.48279  Biso   1.000  C
  C195     1.0000 0.98624  0.03840  0.48393  Biso   1.000  C
  C196     1.0000 0.83748  0.04873  0.47290  Biso   1.000  C
  C197     1.0000 0.84472  0.06801  0.46539  Biso   1.000  C
  C198     1.0000 0.99677  0.07717  0.46855  Biso   1.000  C
  C199     1.0000 0.14833  0.06685  0.47905  Biso   1.000  C
  C200     1.0000 0.14041  0.04757  0.48671  Biso   1.000  C
  C201     1.0000 0.67183  0.03995  0.46850  Biso   1.000  C
  C202     1.0000 0.32085  0.07565  0.48239  Biso   1.000  C
  C203     1.0000 0.10247  0.90684  0.49901  Biso   1.000  C
  C204     1.0000 0.02261  0.88960  0.49860  Biso   1.000  C
  C205     1.0000 0.82071  0.88329  0.50768  Biso   1.000  C
  C206     1.0000 0.75236  0.86536  0.50826  Biso   1.000  C
  C207     1.0000 0.56047  0.85804  0.51891  Biso   1.000  C
  C208     1.0000 0.50163  0.86584  0.56976  Biso   1.000  C
  C209     1.0000 0.37618  0.87153  0.58133  Biso   1.000  C
  C210     1.0000 0.44637  0.88959  0.58034  Biso   1.000  C
  C211     1.0000 0.29889  0.89607  0.58949  Biso   1.000  C
  C212     1.0000 0.37241  0.91352  0.58939  Biso   1.000  C
  C213     1.0000 0.03245  0.41143  0.50429  Biso   1.000  C
  C214     1.0000 0.10600  0.41142  0.48691  Biso   1.000  C
  C215     1.0000 0.96792  0.42067  0.47126  Biso   1.000  C
  C216     1.0000 0.03739  0.41980  0.45413  Biso   1.000  C
  C217     1.0000 0.92374  0.43146  0.43687  Biso   1.000  C
  C218     1.0000 0.91583  0.48253  0.37841  Biso   1.000  C
  C219     1.0000 0.73452  0.49316  0.37515  Biso   1.000  C
  C220     1.0000 0.66670  0.49362  0.39256  Biso   1.000  C
  C221     1.0000 0.47387  0.50269  0.38984  Biso   1.000  C
  C222     1.0000 0.39355  0.50214  0.40756  Biso   1.000  C
  C223     1.0000 0.19176  0.51856  0.55973  Biso   1.000  C
  C224     1.0000 0.85435  0.53223  0.51016  Biso   1.000  C
  C225     1.0000 0.36764  0.51411  0.53605  Biso   1.000  C
  C226     1.0000 0.36755  0.52185  0.54760  Biso   1.000  C
  C227     1.0000 0.52970  0.53239  0.54734  Biso   1.000  C
  C228     1.0000 0.68486  0.53548  0.53504  Biso   1.000  C
  C229     1.0000 0.68439  0.52789  0.52334  Biso   1.000  C
  C230     1.0000 0.52447  0.51685  0.52409  Biso   1.000  C
  C231     1.0000 0.26678  0.51794  0.46842  Biso   1.000  C
  C232     1.0000 0.25128  0.48568  0.41936  Biso   1.000  C
  C233     1.0000 0.72075  0.42317  0.43824  Biso   1.000  C
  C234     1.0000 0.36305  0.39956  0.43821  Biso   1.000  C
  C235     1.0000 0.24074  0.45126  0.36064  Biso   1.000  C
  C236     1.0000 0.85934  0.40178  0.40452  Biso   1.000  C
  C237     1.0000 0.12259  0.41007  0.33412  Biso   1.000  C
  C238     1.0000 0.42527  0.56422  0.56633  Biso   1.000  C
  C239     1.0000 0.43081  0.55614  0.55501  Biso   1.000  C
  C240     1.0000 0.65285  0.53391  0.57475  Biso   1.000  C
  C241     1.0000 0.67028  0.54366  0.58432  Biso   1.000  C
  C242     1.0000 0.16228  0.60893  0.61980  Biso   1.000  C
  C243     1.0000 0.05436  0.60003  0.61243  Biso   1.000  C
  C244     1.0000 0.94193  0.59691  0.64666  Biso   1.000  C
  C245     1.0000 0.82447  0.58934  0.63846  Biso   1.000  C
  C246     1.0000 0.53941  0.54088  0.55925  Biso   1.000  C
  C247     1.0000 0.55903  0.55895  0.58038  Biso   1.000  C
  C248     1.0000 0.87742  0.59097  0.62131  Biso   1.000  C
  C249     1.0000 0.10693  0.60785  0.63663  Biso   1.000  C
  C250     1.0000 0.40148  0.51636  0.49678  Biso   1.000  C
  C251     1.0000 0.38445  0.50865  0.48526  Biso   1.000  C
  C252     1.0000 0.48042  0.49243  0.48953  Biso   1.000  C
  C253     1.0000 0.29383  0.43762  0.38006  Biso   1.000  C
  C254     1.0000 0.37977  0.44436  0.39067  Biso   1.000  C
  C255     1.0000 0.40218  0.43290  0.40984  Biso   1.000  C
  C256     1.0000 0.36041  0.41351  0.41781  Biso   1.000  C
  C257     1.0000 0.29666  0.40661  0.40653  Biso   1.000  C
  C258     1.0000 0.24669  0.41848  0.38831  Biso   1.000  C
  C259     1.0000 0.54409  0.62755  0.64703  Biso   1.000  C
  C260     1.0000 0.42512  0.61656  0.64303  Biso   1.000  C
  C261     1.0000 0.22818  0.61805  0.64326  Biso   1.000  C
  C262     1.0000 0.15240  0.63114  0.64726  Biso   1.000  C
  C263     1.0000 0.75584  0.35847  0.34915  Biso   1.000  C
  C264     1.0000 0.55564  0.36107  0.34740  Biso   1.000  C
  C265     1.0000 0.42197  0.35179  0.34052  Biso   1.000  C
  C266     1.0000 0.59722  0.64847  0.65898  Biso   1.000  C
  C267     1.0000 0.47127  0.64020  0.65188  Biso   1.000  C
  C268     1.0000 0.27035  0.64248  0.65119  Biso   1.000  C
  C269     1.0000 0.86834  0.36955  0.35387  Biso   1.000  C
  C270     1.0000 0.78901  0.38318  0.35682  Biso   1.000  C
  C271     1.0000 0.59343  0.38536  0.35549  Biso   1.000  C
  C272     1.0000 0.47930  0.37443  0.35101  Biso   1.000  C
  C273     1.0000 0.75036  0.58307  0.61269  Biso   1.000  C
  C274     1.0000 0.69836  0.59487  0.59452  Biso   1.000  C
  C275     1.0000 0.63421  0.58789  0.58331  Biso   1.000  C
  C276     1.0000 0.59270  0.56849  0.59139  Biso   1.000  C
  C277     1.0000 0.61566  0.55710  0.61057  Biso   1.000  C
  C278     1.0000 0.70299  0.56392  0.62105  Biso   1.000  C
  C279     1.0000 0.51383  0.50830  0.51227  Biso   1.000  C
  C280     1.0000 0.60972  0.49207  0.51656  Biso   1.000  C
  C281     1.0000 0.59272  0.48439  0.50501  Biso   1.000  C
  C282     1.0000 0.90452  0.39357  0.36358  Biso   1.000  C
  C283     1.0000 0.12382  0.41061  0.37939  Biso   1.000  C
  C284     1.0000 0.43591  0.44234  0.42093  Biso   1.000  C
  C285     1.0000 0.45559  0.46016  0.44229  Biso   1.000  C
  C286     1.0000 0.18257  0.41227  0.36236  Biso   1.000  C
  C287     1.0000 0.07033  0.40462  0.35390  Biso   1.000  C
  C288     1.0000 0.94574  0.40152  0.38785  Biso   1.000  C
  C289     1.0000 0.84255  0.39257  0.38022  Biso   1.000  C
  C290     1.0000 0.32470  0.45758  0.41709  Biso   1.000  C
  C291     1.0000 0.34217  0.46724  0.42678  Biso   1.000  C
  C292     1.0000 0.56422  0.44493  0.44641  Biso   1.000  C
  C293     1.0000 0.56980  0.43697  0.43497  Biso   1.000  C
  C294     1.0000 0.89836  0.59185  0.66650  Biso   1.000  C
  C295     1.0000 0.13503  0.59975  0.59559  Biso   1.000  C
  C296     1.0000 0.75741  0.55034  0.64044  Biso   1.000  C
  C297     1.0000 0.63153  0.60175  0.56291  Biso   1.000  C
  C298     1.0000 0.27449  0.57807  0.56293  Biso   1.000  C
  C299     1.0000 0.74376  0.51545  0.58227  Biso   1.000  C
  C300     1.0000 0.72739  0.48279  0.53338  Biso   1.000  C
  C301     1.0000 0.47017  0.48393  0.47767  Biso   1.000  C
  C302     1.0000 0.31038  0.47290  0.47837  Biso   1.000  C
  C303     1.0000 0.31011  0.46539  0.46660  Biso   1.000  C
  C304     1.0000 0.46532  0.46855  0.45428  Biso   1.000  C
  C305     1.0000 0.62738  0.47905  0.45410  Biso   1.000  C
  C306     1.0000 0.62712  0.48671  0.46572  Biso   1.000  C
  C307     1.0000 0.14033  0.46850  0.49155  Biso   1.000  C
  C308     1.0000 0.80324  0.48239  0.44196  Biso   1.000  C
  C309     1.0000 0.60148  0.49901  0.59415  Biso   1.000  C
  C310     1.0000 0.52121  0.49860  0.61180  Biso   1.000  C
  C311     1.0000 0.32839  0.50768  0.60903  Biso   1.000  C
  C312     1.0000 0.26062  0.50826  0.62638  Biso   1.000  C
  C313     1.0000 0.07938  0.51891  0.62305  Biso   1.000  C
  C314     1.0000 0.07139  0.56976  0.56440  Biso   1.000  C
  C315     1.0000 0.95751  0.58133  0.54714  Biso   1.000  C
  C316     1.0000 0.02671  0.58034  0.53007  Biso   1.000  C
  C317     1.0000 0.88838  0.58949  0.51444  Biso   1.000  C
  C318     1.0000 0.96180  0.58939  0.49709  Biso   1.000  C
  O1       1.0000 0.28639  0.30881  0.31669  Biso   1.000  O
  O2       1.0000 0.19402  0.34866  0.30746  Biso   1.000  O
  O3       1.0000 0.81617  0.33709  0.32352  Biso   1.000  O
  O4       1.0000 0.58700  0.33783  0.30539  Biso   1.000  O
  O5       1.0000 0.43369  0.66077  0.69488  Biso   1.000  O
  O6       1.0000 0.19908  0.66398  0.67643  Biso   1.000  O
  O7       1.0000 0.84772  0.65324  0.69158  Biso   1.000  O
  O8       1.0000 0.71347  0.69097  0.68341  Biso   1.000  O
  O9       1.0000 0.60308  0.31669  0.37450  Biso   1.000  O
  O10      1.0000 0.50148  0.30746  0.34388  Biso   1.000  O
  O11      1.0000 0.13969  0.32352  0.33939  Biso   1.000  O
  O12      1.0000 0.89239  0.30539  0.35678  Biso   1.000  O
  O13      1.0000 0.12857  0.69488  0.64435  Biso   1.000  O
  O14      1.0000 0.87551  0.67643  0.65959  Biso   1.000  O
  O15      1.0000 0.53930  0.69158  0.65518  Biso   1.000  O
  O16      1.0000 0.39688  0.68341  0.62562  Biso   1.000  O
  O17      1.0000 0.97758  0.37450  0.30881  Biso   1.000  O
  O18      1.0000 0.84536  0.34388  0.34866  Biso   1.000  O
  O19      1.0000 0.47908  0.33939  0.33709  Biso   1.000  O
  O20      1.0000 0.24917  0.35678  0.33783  Biso   1.000  O
  O21      1.0000 0.77292  0.64435  0.66077  Biso   1.000  O
  O22      1.0000 0.53510  0.65959  0.66398  Biso   1.000  O
  O23      1.0000 0.19448  0.65518  0.65324  Biso   1.000  O
  O24      1.0000 0.02250  0.62562  0.69097  Biso   1.000  O
