data_image0
_cell_length_a       14.853
_cell_length_b       32.866
_cell_length_c       34.85
_cell_angle_alpha    105.848
_cell_angle_beta     90
_cell_angle_gamma    90

_symmetry_space_group_name_H-M    P 1
_symmetry_int_tables_number       1

loop_
  _symmetry_equiv_pos_as_xyz
  'x, y, z'

loop_
  _atom_site_label
  _atom_site_occupancy
  _atom_site_fract_x
  _atom_site_fract_y
  _atom_site_fract_z
  _atom_site_thermal_displace_type
  _atom_site_B_iso_or_equiv
  _atom_site_type_symbol
  Zn1      1.0000 0.73272  0.30605  0.86924  Biso   1.000  Zn
  Zn2      1.0000 0.70601  0.67147  0.15099  Biso   1.000  Zn
  Zn3      1.0000 0.18580  0.98118  0.08118  Biso   1.000  Zn
  Zn4      1.0000 0.94604  0.17484  0.11958  Biso   1.000  Zn
  Zn5      1.0000 0.45961  0.49034  0.08398  Biso   1.000  Zn
  Zn6      1.0000 0.25978  0.30770  0.36809  Biso   1.000  Zn
  Zn7      1.0000 0.91576  0.80109  0.87047  Biso   1.000  Zn
  Zn8      1.0000 0.23119  0.67743  0.61952  Biso   1.000  Zn
  Zn9      1.0000 0.99467  0.48131  0.58713  Biso   1.000  Zn
  Zn10     1.0000 0.72407  0.98952  0.58771  Biso   1.000  Zn
  Zn11     1.0000 0.44824  0.81983  0.36254  Biso   1.000  Zn
  Zn12     1.0000 0.46500  0.17517  0.65575  Biso   1.000  Zn
  H1       1.0000 0.91410  0.33110  0.90000  Biso   1.000  H
  H2       1.0000 0.98890  0.37870  0.95300  Biso   1.000  H
  H3       1.0000 0.75490  0.43860  0.98500  Biso   1.000  H
  H4       1.0000 0.68110  0.37980  0.93760  Biso   1.000  H
  H5       1.0000 0.28490  0.53280  0.10650  Biso   1.000  H
  H6       1.0000 0.13760  0.53130  0.09200  Biso   1.000  H
  H7       1.0000 0.17750  0.42310  0.00910  Biso   1.000  H
  H8       1.0000 0.33510  0.43220  0.02590  Biso   1.000  H
  H9       1.0000 0.65850  0.58980  0.09080  Biso   1.000  H
  H10      1.0000 0.73350  0.52380  0.05910  Biso   1.000  H
  H11      1.0000 0.96890  0.57960  0.09810  Biso   1.000  H
  H12      1.0000 0.89040  0.63980  0.13120  Biso   1.000  H
  H13      1.0000 0.81370  0.72860  0.11480  Biso   1.000  H
  H14      1.0000 0.93680  0.77300  0.12790  Biso   1.000  H
  H15      1.0000 0.96710  0.74790  0.23450  Biso   1.000  H
  H16      1.0000 0.84410  0.70140  0.21830  Biso   1.000  H
  H17      1.0000 0.29460  0.93050  0.12670  Biso   1.000  H
  H18      1.0000 0.26500  0.88650  0.16620  Biso   1.000  H
  H19      1.0000 0.99920  0.88710  0.14220  Biso   1.000  H
  H20      1.0000 0.03020  0.93560  0.10680  Biso   1.000  H
  H21      1.0000 0.28950  0.76680  0.32350  Biso   1.000  H
  H22      1.0000 0.18380  0.76350  0.27230  Biso   1.000  H
  H23      1.0000 0.32110  0.86270  0.24820  Biso   1.000  H
  H24      1.0000 0.41410  0.86170  0.29980  Biso   1.000  H
  H25      1.0000 0.31300  0.93010  0.01650  Biso   1.000  H
  H26      1.0000 0.46610  0.92650  0.00100  Biso   1.000  H
  H27      1.0000 0.51500  0.01240  0.10530  Biso   1.000  H
  H28      1.0000 0.35780  0.00870  0.11860  Biso   1.000  H
  H29      1.0000 0.96130  0.88330  0.93050  Biso   1.000  H
  H30      1.0000 0.89540  0.93750  0.97590  Biso   1.000  H
  H31      1.0000 0.65950  0.87350  0.95140  Biso   1.000  H
  H32      1.0000 0.73170  0.82470  0.90580  Biso   1.000  H
  H33      1.0000 0.75650  0.14350  0.11570  Biso   1.000  H
  H34      1.0000 0.67500  0.08090  0.09130  Biso   1.000  H
  H35      1.0000 0.91550  0.01920  0.06410  Biso   1.000  H
  H36      1.0000 0.98300  0.08230  0.09540  Biso   1.000  H
  H37      1.0000 0.83630  0.23990  0.09570  Biso   1.000  H
  H38      1.0000 0.71890  0.28750  0.11880  Biso   1.000  H
  H39      1.0000 0.71430  0.25040  0.21940  Biso   1.000  H
  H40      1.0000 0.84080  0.20550  0.19530  Biso   1.000  H
  H41      1.0000 0.37670  0.45810  0.15080  Biso   1.000  H
  H42      1.0000 0.39620  0.40420  0.18010  Biso   1.000  H
  H43      1.0000 0.62940  0.37900  0.12120  Biso   1.000  H
  H44      1.0000 0.59380  0.42280  0.08600  Biso   1.000  H
  H45      1.0000 0.39250  0.25140  0.30600  Biso   1.000  H
  H46      1.0000 0.47260  0.25460  0.25190  Biso   1.000  H
  H47      1.0000 0.39180  0.37690  0.27060  Biso   1.000  H
  H48      1.0000 0.31930  0.37110  0.32820  Biso   1.000  H
  H49      1.0000 0.79330  0.74590  0.80850  Biso   1.000  H
  H50      1.0000 0.70280  0.75160  0.75440  Biso   1.000  H
  H51      1.0000 0.79200  0.87020  0.77130  Biso   1.000  H
  H52      1.0000 0.88700  0.86030  0.82210  Biso   1.000  H
  H53      1.0000 0.34420  0.73970  0.59520  Biso   1.000  H
  H54      1.0000 0.47000  0.78260  0.61740  Biso   1.000  H
  H55      1.0000 0.46400  0.74920  0.72060  Biso   1.000  H
  H56      1.0000 0.34070  0.70650  0.69600  Biso   1.000  H
  H57      1.0000 0.83280  0.93710  0.63420  Biso   1.000  H
  H58      1.0000 0.80320  0.88770  0.66760  Biso   1.000  H
  H59      1.0000 0.54360  0.88870  0.63940  Biso   1.000  H
  H60      1.0000 0.57170  0.94080  0.60730  Biso   1.000  H
  H61      1.0000 0.19670  0.58220  0.58860  Biso   1.000  H
  H62      1.0000 0.27490  0.52070  0.56140  Biso   1.000  H
  H63      1.0000 0.50340  0.58780  0.57670  Biso   1.000  H
  H64      1.0000 0.42310  0.64760  0.60410  Biso   1.000  H
  H65      1.0000 0.44920  0.33340  0.39140  Biso   1.000  H
  H66      1.0000 0.53040  0.38500  0.44350  Biso   1.000  H
  H67      1.0000 0.28870  0.43070  0.48930  Biso   1.000  H
  H68      1.0000 0.21840  0.38100  0.43700  Biso   1.000  H
  H69      1.0000 0.83460  0.53340  0.60390  Biso   1.000  H
  H70      1.0000 0.67840  0.53310  0.58570  Biso   1.000  H
  H71      1.0000 0.71780  0.42120  0.50640  Biso   1.000  H
  H72      1.0000 0.86930  0.42640  0.52300  Biso   1.000  H
  H73      1.0000 0.84880  0.93580  0.52270  Biso   1.000  H
  H74      1.0000 0.99770  0.93120  0.50780  Biso   1.000  H
  H75      1.0000 0.05040  0.02480  0.60720  Biso   1.000  H
  H76      1.0000 0.89820  0.02710  0.62110  Biso   1.000  H
  H77      1.0000 0.49200  0.89530  0.42860  Biso   1.000  H
  H78      1.0000 0.43100  0.94220  0.48260  Biso   1.000  H
  H79      1.0000 0.18670  0.88650  0.44770  Biso   1.000  H
  H80      1.0000 0.26050  0.83880  0.39790  Biso   1.000  H
  H81      1.0000 0.28760  0.15320  0.61640  Biso   1.000  H
  H82      1.0000 0.20960  0.09060  0.58440  Biso   1.000  H
  H83      1.0000 0.44640  0.02940  0.56310  Biso   1.000  H
  H84      1.0000 0.51660  0.09150  0.59920  Biso   1.000  H
  H85      1.0000 0.31270  0.19610  0.71650  Biso   1.000  H
  H86      1.0000 0.18700  0.23860  0.73040  Biso   1.000  H
  H87      1.0000 0.24490  0.28280  0.63600  Biso   1.000  H
  H88      1.0000 0.37400  0.24160  0.62690  Biso   1.000  H
  H89      1.0000 0.76860  0.35650  0.81740  Biso   1.000  H
  H90      1.0000 0.85550  0.36020  0.76060  Biso   1.000  H
  H91      1.0000 0.97490  0.25300  0.76710  Biso   1.000  H
  H92      1.0000 0.88370  0.25320  0.82000  Biso   1.000  H
  H93      1.0000 0.13660  0.43970  0.62280  Biso   1.000  H
  H94      1.0000 0.15660  0.38860  0.65440  Biso   1.000  H
  H95      1.0000 0.88620  0.38000  0.66300  Biso   1.000  H
  H96      1.0000 0.87360  0.43370  0.63260  Biso   1.000  H
  C1       1.0000 0.87920  0.35200  0.91820  Biso   1.000  C
  C2       1.0000 0.92580  0.38110  0.94980  Biso   1.000  C
  C3       1.0000 0.87810  0.41200  0.97490  Biso   1.000  C
  C4       1.0000 0.78840  0.41530  0.96960  Biso   1.000  C
  C5       1.0000 0.74500  0.38130  0.93890  Biso   1.000  C
  C6       1.0000 0.92080  0.44370  0.00710  Biso   1.000  C
  C7       1.0000 0.04190  0.47260  0.04470  Biso   1.000  C
  C8       1.0000 0.91050  0.50690  0.05520  Biso   1.000  C
  C9       1.0000 0.26360  0.50920  0.08610  Biso   1.000  C
  C10      1.0000 0.17490  0.50820  0.07880  Biso   1.000  C
  C11      1.0000 0.13930  0.47440  0.05270  Biso   1.000  C
  C12      1.0000 0.19750  0.44600  0.03050  Biso   1.000  C
  C13      1.0000 0.29320  0.45210  0.04100  Biso   1.000  C
  C14      1.0000 0.72200  0.58740  0.09280  Biso   1.000  C
  C15      1.0000 0.76760  0.54790  0.07280  Biso   1.000  C
  C16      1.0000 0.85520  0.54570  0.07390  Biso   1.000  C
  C17      1.0000 0.90520  0.58070  0.09640  Biso   1.000  C
  C18      1.0000 0.85790  0.61620  0.11550  Biso   1.000  C
  C19      1.0000 0.84510  0.73260  0.13930  Biso   1.000  C
  C20      1.0000 0.91740  0.75900  0.14700  Biso   1.000  C
  C21      1.0000 0.96160  0.76500  0.18220  Biso   1.000  C
  C22      1.0000 0.93590  0.74390  0.21000  Biso   1.000  C
  C23      1.0000 0.86280  0.71690  0.20040  Biso   1.000  C
  C24      1.0000 0.04370  0.79350  0.19000  Biso   1.000  C
  C25      1.0000 0.11930  0.84790  0.17920  Biso   1.000  C
  C26      1.0000 0.17400  0.81510  0.22250  Biso   1.000  C
  C27      1.0000 0.23420  0.92310  0.13070  Biso   1.000  C
  C28      1.0000 0.21610  0.89560  0.15300  Biso   1.000  C
  C29      1.0000 0.13330  0.88080  0.15750  Biso   1.000  C
  C30      1.0000 0.05910  0.89620  0.13980  Biso   1.000  C
  C31      1.0000 0.07910  0.92510  0.11880  Biso   1.000  C
  C32      1.0000 0.29520  0.78610  0.30780  Biso   1.000  C
  C33      1.0000 0.23090  0.78380  0.27720  Biso   1.000  C
  C34      1.0000 0.23990  0.81300  0.25430  Biso   1.000  C
  C35      1.0000 0.31220  0.84280  0.26310  Biso   1.000  C
  C36      1.0000 0.36720  0.84130  0.29350  Biso   1.000  C
  C37      1.0000 0.35390  0.94750  0.03480  Biso   1.000  C
  C38      1.0000 0.44550  0.94490  0.02550  Biso   1.000  C
  C39      1.0000 0.50520  0.96900  0.05210  Biso   1.000  C
  C40      1.0000 0.47560  0.99460  0.08660  Biso   1.000  C
  C41      1.0000 0.38000  0.99330  0.09320  Biso   1.000  C
  C42      1.0000 0.60340  0.96880  0.04160  Biso   1.000  C
  C43      1.0000 0.72370  0.94510  0.00370  Biso   1.000  C
  C44      1.0000 0.73450  0.00520  0.05160  Biso   1.000  C
  C45      1.0000 0.89820  0.88190  0.93460  Biso   1.000  C
  C46      1.0000 0.86030  0.91370  0.96250  Biso   1.000  C
  C47      1.0000 0.76870  0.91180  0.97170  Biso   1.000  C
  C48      1.0000 0.72230  0.87650  0.94790  Biso   1.000  C
  C49      1.0000 0.76560  0.84810  0.92090  Biso   1.000  C
  C50      1.0000 0.78770  0.11750  0.10550  Biso   1.000  C
  C51      1.0000 0.73890  0.08060  0.09030  Biso   1.000  C
  C52      1.0000 0.78580  0.04320  0.07340  Biso   1.000  C
  C53      1.0000 0.88060  0.04390  0.07490  Biso   1.000  C
  C54      1.0000 0.91940  0.08180  0.09270  Biso   1.000  C
  C55      1.0000 0.81120  0.24220  0.12130  Biso   1.000  C
  C56      1.0000 0.74050  0.27010  0.13450  Biso   1.000  C
  C57      1.0000 0.70290  0.27200  0.17040  Biso   1.000  C
  C58      1.0000 0.73890  0.24860  0.19380  Biso   1.000  C
  C59      1.0000 0.81420  0.22130  0.17910  Biso   1.000  C
  C60      1.0000 0.62370  0.30050  0.18440  Biso   1.000  C
  C61      1.0000 0.53860  0.35510  0.17730  Biso   1.000  C
  C62      1.0000 0.50470  0.32110  0.22400  Biso   1.000  C
  C63      1.0000 0.42730  0.44000  0.14320  Biso   1.000  C
  C64      1.0000 0.44010  0.40930  0.16210  Biso   1.000  C
  C65      1.0000 0.51910  0.38560  0.15460  Biso   1.000  C
  C66      1.0000 0.57390  0.39380  0.12670  Biso   1.000  C
  C67      1.0000 0.55470  0.42070  0.10700  Biso   1.000  C
  C68      1.0000 0.39050  0.27690  0.29830  Biso   1.000  C
  C69      1.0000 0.44040  0.27870  0.26690  Biso   1.000  C
  C70      1.0000 0.44380  0.31620  0.25710  Biso   1.000  C
  C71      1.0000 0.39340  0.35140  0.27840  Biso   1.000  C
  C72      1.0000 0.34670  0.34680  0.31100  Biso   1.000  C
  C73      1.0000 0.79170  0.77160  0.80110  Biso   1.000  C
  C74      1.0000 0.73820  0.77500  0.76870  Biso   1.000  C
  C75      1.0000 0.73740  0.81190  0.75780  Biso   1.000  C
  C76      1.0000 0.79130  0.84420  0.77820  Biso   1.000  C
  C77      1.0000 0.84550  0.83890  0.80930  Biso   1.000  C
  C78      1.0000 0.68110  0.81590  0.72350  Biso   1.000  C
  C79      1.0000 0.56170  0.79810  0.68490  Biso   1.000  C
  C80      1.0000 0.64900  0.85200  0.67830  Biso   1.000  C
  C81      1.0000 0.36950  0.74110  0.62050  Biso   1.000  C
  C82      1.0000 0.44380  0.76710  0.63390  Biso   1.000  C
  C83      1.0000 0.47950  0.77040  0.67170  Biso   1.000  C
  C84      1.0000 0.44090  0.74750  0.69480  Biso   1.000  C
  C85      1.0000 0.36850  0.72220  0.68010  Biso   1.000  C
  C86      1.0000 0.77270  0.92760  0.63510  Biso   1.000  C
  C87      1.0000 0.75490  0.89830  0.65520  Biso   1.000  C
  C88      1.0000 0.66930  0.88360  0.65810  Biso   1.000  C
  C89      1.0000 0.60320  0.89910  0.63910  Biso   1.000  C
  C90      1.0000 0.62010  0.92960  0.61910  Biso   1.000  C
  C91      1.0000 0.26050  0.58350  0.58690  Biso   1.000  C
  C92      1.0000 0.30630  0.54680  0.57040  Biso   1.000  C
  C93      1.0000 0.40040  0.54800  0.56710  Biso   1.000  C
  C94      1.0000 0.44010  0.58570  0.57940  Biso   1.000  C
  C95      1.0000 0.39140  0.62160  0.59590  Biso   1.000  C
  C96      1.0000 0.45060  0.50960  0.54730  Biso   1.000  C
  C97      1.0000 0.46230  0.44670  0.50080  Biso   1.000  C
  C98      1.0000 0.58700  0.47660  0.53580  Biso   1.000  C
  C99      1.0000 0.41740  0.35340  0.41170  Biso   1.000  C
  C100     1.0000 0.46650  0.38480  0.44250  Biso   1.000  C
  C101     1.0000 0.41730  0.41380  0.46960  Biso   1.000  C
  C102     1.0000 0.32340  0.41180  0.46920  Biso   1.000  C
  C103     1.0000 0.28220  0.38130  0.43870  Biso   1.000  C
  C104     1.0000 0.81110  0.50990  0.58410  Biso   1.000  C
  C105     1.0000 0.71620  0.51000  0.57310  Biso   1.000  C
  C106     1.0000 0.68280  0.47630  0.54460  Biso   1.000  C
  C107     1.0000 0.73920  0.44490  0.52650  Biso   1.000  C
  C108     1.0000 0.82980  0.44780  0.53770  Biso   1.000  C
  C109     1.0000 0.89010  0.95430  0.53970  Biso   1.000  C
  C110     1.0000 0.97830  0.95200  0.53100  Biso   1.000  C
  C111     1.0000 0.04330  0.97830  0.55430  Biso   1.000  C
  C112     1.0000 0.01030  0.00660  0.58920  Biso   1.000  C
  C113     1.0000 0.91930  0.00790  0.59720  Biso   1.000  C
  C114     1.0000 0.14000  0.97860  0.54380  Biso   1.000  C
  C115     1.0000 0.25630  0.95260  0.50560  Biso   1.000  C
  C116     1.0000 0.26930  0.01400  0.55210  Biso   1.000  C
  C117     1.0000 0.42920  0.89350  0.43320  Biso   1.000  C
  C118     1.0000 0.39370  0.92170  0.46530  Biso   1.000  C
  C119     1.0000 0.29790  0.92020  0.47290  Biso   1.000  C
  C120     1.0000 0.25010  0.88860  0.44520  Biso   1.000  C
  C121     1.0000 0.29340  0.86120  0.41520  Biso   1.000  C
  C122     1.0000 0.31960  0.12730  0.60700  Biso   1.000  C
  C123     1.0000 0.27320  0.09010  0.58700  Biso   1.000  C
  C124     1.0000 0.31810  0.05390  0.57180  Biso   1.000  C
  C125     1.0000 0.41210  0.05400  0.57500  Biso   1.000  C
  C126     1.0000 0.45300  0.09100  0.59620  Biso   1.000  C
  C127     1.0000 0.29950  0.21480  0.70070  Biso   1.000  C
  C128     1.0000 0.22440  0.23960  0.70850  Biso   1.000  C
  C129     1.0000 0.20120  0.26600  0.68520  Biso   1.000  C
  C130     1.0000 0.25810  0.26600  0.65360  Biso   1.000  C
  C131     1.0000 0.33460  0.24100  0.64820  Biso   1.000  C
  C132     1.0000 0.11940  0.29270  0.69310  Biso   1.000  C
  C133     1.0000 0.99010  0.31080  0.72650  Biso   1.000  C
  C134     1.0000 0.03800  0.34680  0.68400  Biso   1.000  C
  C135     1.0000 0.80970  0.33440  0.80590  Biso   1.000  C
  C136     1.0000 0.86340  0.33750  0.77220  Biso   1.000  C
  C137     1.0000 0.92610  0.30650  0.75780  Biso   1.000  C
  C138     1.0000 0.93220  0.27500  0.77600  Biso   1.000  C
  C139     1.0000 0.87700  0.27510  0.80710  Biso   1.000  C
  C140     1.0000 0.08450  0.42670  0.63000  Biso   1.000  C
  C141     1.0000 0.09720  0.39690  0.64980  Biso   1.000  C
  C142     1.0000 0.02430  0.37850  0.66340  Biso   1.000  C
  C143     1.0000 0.93890  0.39200  0.65510  Biso   1.000  C
  C144     1.0000 0.93210  0.42310  0.63530  Biso   1.000  C
  I1       1.0000 0.58630  0.33910  0.85571  Biso   1.000  I
  I2       1.0000 0.74806  0.23719  0.88806  Biso   1.000  I
  I3       1.0000 0.67458  0.64236  0.20970  Biso   1.000  I
  I4       1.0000 0.60061  0.70693  0.11302  Biso   1.000  I
  I5       1.0000 0.09412  0.95631  0.01768  Biso   1.000  I
  I6       1.0000 0.17161  0.05593  0.12678  Biso   1.000  I
  I7       1.0000 0.98281  0.18027  0.04949  Biso   1.000  I
  I8       1.0000 0.06467  0.17869  0.17026  Biso   1.000  I
  I9       1.0000 0.47840  0.56262  0.13259  Biso   1.000  I
  I10      1.0000 0.55284  0.46401  0.02081  Biso   1.000  I
  I11      1.0000 0.11262  0.34107  0.35544  Biso   1.000  I
  I12      1.0000 0.26962  0.23797  0.38498  Biso   1.000  I
  I13      1.0000 0.89054  0.73033  0.88434  Biso   1.000  I
  I14      1.0000 0.06703  0.82885  0.85800  Biso   1.000  I
  I15      1.0000 0.17411  0.69164  0.55526  Biso   1.000  I
  I16      1.0000 0.12375  0.67526  0.67367  Biso   1.000  I
  I17      1.0000 0.02382  0.55405  0.63449  Biso   1.000  I
  I18      1.0000 0.10093  0.45215  0.52805  Biso   1.000  I
  I19      1.0000 0.62165  0.96424  0.52732  Biso   1.000  I
  I20      1.0000 0.69418  0.05933  0.63961  Biso   1.000  I
  I21      1.0000 0.58714  0.85678  0.34561  Biso   1.000  I
  I22      1.0000 0.45414  0.75334  0.38501  Biso   1.000  I
  I23      1.0000 0.48745  0.13946  0.71112  Biso   1.000  I
  I24      1.0000 0.58447  0.21167  0.62477  Biso   1.000  I
  N1       1.0000 0.79540  0.35180  0.91240  Biso   1.000  N
  N2       1.0000 0.00920  0.44050  0.01350  Biso   1.000  N
  N3       1.0000 0.99570  0.50600  0.06640  Biso   1.000  N
  N4       1.0000 0.86750  0.47710  0.02630  Biso   1.000  N
  N5       1.0000 0.32330  0.48190  0.06880  Biso   1.000  N
  N6       1.0000 0.76940  0.61950  0.11340  Biso   1.000  N
  N7       1.0000 0.81750  0.71230  0.16530  Biso   1.000  N
  N8       1.0000 0.04720  0.82440  0.17150  Biso   1.000  N
  N9       1.0000 0.18410  0.84680  0.20590  Biso   1.000  N
  N10      1.0000 0.10540  0.78720  0.21620  Biso   1.000  N
  N11      1.0000 0.16290  0.93980  0.11390  Biso   1.000  N
  N12      1.0000 0.36200  0.81340  0.31580  Biso   1.000  N
  N13      1.0000 0.32210  0.97300  0.06750  Biso   1.000  N
  N14      1.0000 0.63640  0.93940  0.01200  Biso   1.000  N
  N15      1.0000 0.77500  0.97650  0.02350  Biso   1.000  N
  N16      1.0000 0.64660  0.00260  0.06380  Biso   1.000  N
  N17      1.0000 0.85440  0.84850  0.91230  Biso   1.000  N
  N18      1.0000 0.87640  0.11740  0.10630  Biso   1.000  N
  N19      1.0000 0.84560  0.21820  0.14370  Biso   1.000  N
  N20      1.0000 0.60840  0.32910  0.16450  Biso   1.000  N
  N21      1.0000 0.48600  0.35200  0.20670  Biso   1.000  N
  N22      1.0000 0.57160  0.29410  0.21340  Biso   1.000  N
  N23      1.0000 0.48110  0.44600  0.11490  Biso   1.000  N
  N24      1.0000 0.33780  0.30810  0.32000  Biso   1.000  N
  N25      1.0000 0.83870  0.80390  0.82080  Biso   1.000  N
  N26      1.0000 0.61040  0.79050  0.71400  Biso   1.000  N
  N27      1.0000 0.57520  0.82880  0.66700  Biso   1.000  N
  N28      1.0000 0.70340  0.84750  0.70850  Biso   1.000  N
  N29      1.0000 0.33530  0.71930  0.64200  Biso   1.000  N
  N30      1.0000 0.70650  0.94370  0.61630  Biso   1.000  N
  N31      1.0000 0.30240  0.62240  0.60130  Biso   1.000  N
  N32      1.0000 0.40980  0.47990  0.52050  Biso   1.000  N
  N33      1.0000 0.55130  0.44440  0.50620  Biso   1.000  N
  N34      1.0000 0.53960  0.51030  0.55650  Biso   1.000  N
  N35      1.0000 0.32810  0.35310  0.41240  Biso   1.000  N
  N36      1.0000 0.86500  0.47820  0.56740  Biso   1.000  N
  N37      1.0000 0.85990  0.98350  0.57320  Biso   1.000  N
  N38      1.0000 0.17090  0.94730  0.51420  Biso   1.000  N
  N39      1.0000 0.31020  0.98540  0.52300  Biso   1.000  N
  N40      1.0000 0.18290  0.01240  0.56400  Biso   1.000  N
  N41      1.0000 0.38570  0.86490  0.40880  Biso   1.000  N
  N42      1.0000 0.40620  0.12630  0.61270  Biso   1.000  N
  N43      1.0000 0.35530  0.21680  0.67050  Biso   1.000  N
  N44      1.0000 0.05850  0.28270  0.71750  Biso   1.000  N
  N45      1.0000 0.97470  0.34140  0.70840  Biso   1.000  N
  N46      1.0000 0.11360  0.32400  0.67620  Biso   1.000  N
  N47      1.0000 0.81560  0.30370  0.82030  Biso   1.000  N
  N48      1.0000 0.00200  0.43970  0.61950  Biso   1.000  N
  Zn13     1.0000 0.23272  0.69395  0.13076  Biso   1.000  Zn
  Zn14     1.0000 0.20601  0.32853  0.84901  Biso   1.000  Zn
  Zn15     1.0000 0.68580  0.01882  0.91882  Biso   1.000  Zn
  Zn16     1.0000 0.44604  0.82516  0.88042  Biso   1.000  Zn
  Zn17     1.0000 0.95961  0.50966  0.91602  Biso   1.000  Zn
  Zn18     1.0000 0.75978  0.69230  0.63191  Biso   1.000  Zn
  Zn19     1.0000 0.41576  0.19891  0.12953  Biso   1.000  Zn
  Zn20     1.0000 0.73119  0.32257  0.38048  Biso   1.000  Zn
  Zn21     1.0000 0.49467  0.51869  0.41287  Biso   1.000  Zn
  Zn22     1.0000 0.22407  0.01048  0.41229  Biso   1.000  Zn
  Zn23     1.0000 0.94824  0.18017  0.63746  Biso   1.000  Zn
  Zn24     1.0000 0.96500  0.82483  0.34425  Biso   1.000  Zn
  H97      1.0000 0.41410  0.66890  0.10000  Biso   1.000  H
  H98      1.0000 0.48890  0.62130  0.04700  Biso   1.000  H
  H99      1.0000 0.25490  0.56140  0.01500  Biso   1.000  H
  H100     1.0000 0.18110  0.62020  0.06240  Biso   1.000  H
  H101     1.0000 0.78490  0.46720  0.89350  Biso   1.000  H
  H102     1.0000 0.63760  0.46870  0.90800  Biso   1.000  H
  H103     1.0000 0.67750  0.57690  0.99090  Biso   1.000  H
  H104     1.0000 0.83510  0.56780  0.97410  Biso   1.000  H
  H105     1.0000 0.15850  0.41020  0.90920  Biso   1.000  H
  H106     1.0000 0.23350  0.47620  0.94090  Biso   1.000  H
  H107     1.0000 0.46890  0.42040  0.90190  Biso   1.000  H
  H108     1.0000 0.39040  0.36020  0.86880  Biso   1.000  H
  H109     1.0000 0.31370  0.27140  0.88520  Biso   1.000  H
  H110     1.0000 0.43680  0.22700  0.87210  Biso   1.000  H
  H111     1.0000 0.46710  0.25210  0.76550  Biso   1.000  H
  H112     1.0000 0.34410  0.29860  0.78170  Biso   1.000  H
  H113     1.0000 0.79460  0.06950  0.87330  Biso   1.000  H
  H114     1.0000 0.76500  0.11350  0.83380  Biso   1.000  H
  H115     1.0000 0.49920  0.11290  0.85780  Biso   1.000  H
  H116     1.0000 0.53020  0.06440  0.89320  Biso   1.000  H
  H117     1.0000 0.78950  0.23320  0.67650  Biso   1.000  H
  H118     1.0000 0.68380  0.23650  0.72770  Biso   1.000  H
  H119     1.0000 0.82110  0.13730  0.75180  Biso   1.000  H
  H120     1.0000 0.91410  0.13830  0.70020  Biso   1.000  H
  H121     1.0000 0.81300  0.06990  0.98350  Biso   1.000  H
  H122     1.0000 0.96610  0.07350  0.99900  Biso   1.000  H
  H123     1.0000 0.01500  0.98760  0.89470  Biso   1.000  H
  H124     1.0000 0.85780  0.99130  0.88140  Biso   1.000  H
  H125     1.0000 0.46130  0.11670  0.06950  Biso   1.000  H
  H126     1.0000 0.39540  0.06250  0.02410  Biso   1.000  H
  H127     1.0000 0.15950  0.12650  0.04860  Biso   1.000  H
  H128     1.0000 0.23170  0.17530  0.09420  Biso   1.000  H
  H129     1.0000 0.25650  0.85650  0.88430  Biso   1.000  H
  H130     1.0000 0.17500  0.91910  0.90870  Biso   1.000  H
  H131     1.0000 0.41550  0.98080  0.93590  Biso   1.000  H
  H132     1.0000 0.48300  0.91770  0.90460  Biso   1.000  H
  H133     1.0000 0.33630  0.76010  0.90430  Biso   1.000  H
  H134     1.0000 0.21890  0.71250  0.88120  Biso   1.000  H
  H135     1.0000 0.21430  0.74960  0.78060  Biso   1.000  H
  H136     1.0000 0.34080  0.79450  0.80470  Biso   1.000  H
  H137     1.0000 0.87670  0.54190  0.84920  Biso   1.000  H
  H138     1.0000 0.89620  0.59580  0.81990  Biso   1.000  H
  H139     1.0000 0.12940  0.62100  0.87880  Biso   1.000  H
  H140     1.0000 0.09380  0.57720  0.91400  Biso   1.000  H
  H141     1.0000 0.89250  0.74860  0.69400  Biso   1.000  H
  H142     1.0000 0.97260  0.74540  0.74810  Biso   1.000  H
  H143     1.0000 0.89180  0.62310  0.72940  Biso   1.000  H
  H144     1.0000 0.81930  0.62890  0.67180  Biso   1.000  H
  H145     1.0000 0.29330  0.25410  0.19150  Biso   1.000  H
  H146     1.0000 0.20280  0.24840  0.24560  Biso   1.000  H
  H147     1.0000 0.29200  0.12980  0.22870  Biso   1.000  H
  H148     1.0000 0.38700  0.13970  0.17790  Biso   1.000  H
  H149     1.0000 0.84420  0.26030  0.40480  Biso   1.000  H
  H150     1.0000 0.97000  0.21740  0.38260  Biso   1.000  H
  H151     1.0000 0.96400  0.25080  0.27940  Biso   1.000  H
  H152     1.0000 0.84070  0.29350  0.30400  Biso   1.000  H
  H153     1.0000 0.33280  0.06290  0.36580  Biso   1.000  H
  H154     1.0000 0.30320  0.11230  0.33240  Biso   1.000  H
  H155     1.0000 0.04360  0.11130  0.36060  Biso   1.000  H
  H156     1.0000 0.07170  0.05920  0.39270  Biso   1.000  H
  H157     1.0000 0.69670  0.41780  0.41140  Biso   1.000  H
  H158     1.0000 0.77490  0.47930  0.43860  Biso   1.000  H
  H159     1.0000 0.00340  0.41220  0.42330  Biso   1.000  H
  H160     1.0000 0.92310  0.35240  0.39590  Biso   1.000  H
  H161     1.0000 0.94920  0.66660  0.60860  Biso   1.000  H
  H162     1.0000 0.03040  0.61500  0.55650  Biso   1.000  H
  H163     1.0000 0.78870  0.56930  0.51070  Biso   1.000  H
  H164     1.0000 0.71840  0.61900  0.56300  Biso   1.000  H
  H165     1.0000 0.33460  0.46660  0.39610  Biso   1.000  H
  H166     1.0000 0.17840  0.46690  0.41430  Biso   1.000  H
  H167     1.0000 0.21780  0.57880  0.49360  Biso   1.000  H
  H168     1.0000 0.36930  0.57360  0.47700  Biso   1.000  H
  H169     1.0000 0.34880  0.06420  0.47730  Biso   1.000  H
  H170     1.0000 0.49770  0.06880  0.49220  Biso   1.000  H
  H171     1.0000 0.55040  0.97520  0.39280  Biso   1.000  H
  H172     1.0000 0.39820  0.97290  0.37890  Biso   1.000  H
  H173     1.0000 0.99200  0.10470  0.57140  Biso   1.000  H
  H174     1.0000 0.93100  0.05780  0.51740  Biso   1.000  H
  H175     1.0000 0.68670  0.11350  0.55230  Biso   1.000  H
  H176     1.0000 0.76050  0.16120  0.60210  Biso   1.000  H
  H177     1.0000 0.78760  0.84680  0.38360  Biso   1.000  H
  H178     1.0000 0.70960  0.90940  0.41560  Biso   1.000  H
  H179     1.0000 0.94640  0.97060  0.43690  Biso   1.000  H
  H180     1.0000 0.01660  0.90850  0.40080  Biso   1.000  H
  H181     1.0000 0.81270  0.80390  0.28350  Biso   1.000  H
  H182     1.0000 0.68700  0.76140  0.26960  Biso   1.000  H
  H183     1.0000 0.74490  0.71720  0.36400  Biso   1.000  H
  H184     1.0000 0.87400  0.75840  0.37310  Biso   1.000  H
  H185     1.0000 0.26860  0.64350  0.18260  Biso   1.000  H
  H186     1.0000 0.35550  0.63980  0.23940  Biso   1.000  H
  H187     1.0000 0.47490  0.74700  0.23290  Biso   1.000  H
  H188     1.0000 0.38370  0.74680  0.18000  Biso   1.000  H
  H189     1.0000 0.63660  0.56030  0.37720  Biso   1.000  H
  H190     1.0000 0.65660  0.61140  0.34560  Biso   1.000  H
  H191     1.0000 0.38620  0.62000  0.33700  Biso   1.000  H
  H192     1.0000 0.37360  0.56630  0.36740  Biso   1.000  H
  C145     1.0000 0.37920  0.64800  0.08180  Biso   1.000  C
  C146     1.0000 0.42580  0.61890  0.05020  Biso   1.000  C
  C147     1.0000 0.37810  0.58800  0.02510  Biso   1.000  C
  C148     1.0000 0.28840  0.58470  0.03040  Biso   1.000  C
  C149     1.0000 0.24500  0.61870  0.06110  Biso   1.000  C
  C150     1.0000 0.42080  0.55630  0.99290  Biso   1.000  C
  C151     1.0000 0.54190  0.52740  0.95530  Biso   1.000  C
  C152     1.0000 0.41050  0.49310  0.94480  Biso   1.000  C
  C153     1.0000 0.76360  0.49080  0.91390  Biso   1.000  C
  C154     1.0000 0.67490  0.49180  0.92120  Biso   1.000  C
  C155     1.0000 0.63930  0.52560  0.94730  Biso   1.000  C
  C156     1.0000 0.69750  0.55400  0.96950  Biso   1.000  C
  C157     1.0000 0.79320  0.54790  0.95900  Biso   1.000  C
  C158     1.0000 0.22200  0.41260  0.90720  Biso   1.000  C
  C159     1.0000 0.26760  0.45210  0.92720  Biso   1.000  C
  C160     1.0000 0.35520  0.45430  0.92610  Biso   1.000  C
  C161     1.0000 0.40520  0.41930  0.90360  Biso   1.000  C
  C162     1.0000 0.35790  0.38380  0.88450  Biso   1.000  C
  C163     1.0000 0.34510  0.26740  0.86070  Biso   1.000  C
  C164     1.0000 0.41740  0.24100  0.85300  Biso   1.000  C
  C165     1.0000 0.46160  0.23500  0.81780  Biso   1.000  C
  C166     1.0000 0.43590  0.25610  0.79000  Biso   1.000  C
  C167     1.0000 0.36280  0.28310  0.79960  Biso   1.000  C
  C168     1.0000 0.54370  0.20650  0.81000  Biso   1.000  C
  C169     1.0000 0.61930  0.15210  0.82080  Biso   1.000  C
  C170     1.0000 0.67400  0.18490  0.77750  Biso   1.000  C
  C171     1.0000 0.73420  0.07690  0.86930  Biso   1.000  C
  C172     1.0000 0.71610  0.10440  0.84700  Biso   1.000  C
  C173     1.0000 0.63330  0.11920  0.84250  Biso   1.000  C
  C174     1.0000 0.55910  0.10380  0.86020  Biso   1.000  C
  C175     1.0000 0.57910  0.07490  0.88120  Biso   1.000  C
  C176     1.0000 0.79520  0.21390  0.69220  Biso   1.000  C
  C177     1.0000 0.73090  0.21620  0.72280  Biso   1.000  C
  C178     1.0000 0.73990  0.18700  0.74570  Biso   1.000  C
  C179     1.0000 0.81220  0.15720  0.73690  Biso   1.000  C
  C180     1.0000 0.86720  0.15870  0.70650  Biso   1.000  C
  C181     1.0000 0.85390  0.05250  0.96520  Biso   1.000  C
  C182     1.0000 0.94550  0.05510  0.97450  Biso   1.000  C
  C183     1.0000 0.00520  0.03100  0.94790  Biso   1.000  C
  C184     1.0000 0.97560  0.00540  0.91340  Biso   1.000  C
  C185     1.0000 0.88000  0.00670  0.90680  Biso   1.000  C
  C186     1.0000 0.10340  0.03120  0.95840  Biso   1.000  C
  C187     1.0000 0.22370  0.05490  0.99630  Biso   1.000  C
  C188     1.0000 0.23450  0.99480  0.94840  Biso   1.000  C
  C189     1.0000 0.39820  0.11810  0.06540  Biso   1.000  C
  C190     1.0000 0.36030  0.08630  0.03750  Biso   1.000  C
  C191     1.0000 0.26870  0.08820  0.02830  Biso   1.000  C
  C192     1.0000 0.22230  0.12350  0.05210  Biso   1.000  C
  C193     1.0000 0.26560  0.15190  0.07910  Biso   1.000  C
  C194     1.0000 0.28770  0.88250  0.89450  Biso   1.000  C
  C195     1.0000 0.23890  0.91940  0.90970  Biso   1.000  C
  C196     1.0000 0.28580  0.95680  0.92660  Biso   1.000  C
  C197     1.0000 0.38060  0.95610  0.92510  Biso   1.000  C
  C198     1.0000 0.41940  0.91820  0.90730  Biso   1.000  C
  C199     1.0000 0.31120  0.75780  0.87870  Biso   1.000  C
  C200     1.0000 0.24050  0.72990  0.86550  Biso   1.000  C
  C201     1.0000 0.20290  0.72800  0.82960  Biso   1.000  C
  C202     1.0000 0.23890  0.75140  0.80620  Biso   1.000  C
  C203     1.0000 0.31420  0.77870  0.82090  Biso   1.000  C
  C204     1.0000 0.12370  0.69950  0.81560  Biso   1.000  C
  C205     1.0000 0.03860  0.64490  0.82270  Biso   1.000  C
  C206     1.0000 0.00470  0.67890  0.77600  Biso   1.000  C
  C207     1.0000 0.92730  0.56000  0.85680  Biso   1.000  C
  C208     1.0000 0.94010  0.59070  0.83790  Biso   1.000  C
  C209     1.0000 0.01910  0.61440  0.84540  Biso   1.000  C
  C210     1.0000 0.07390  0.60620  0.87330  Biso   1.000  C
  C211     1.0000 0.05470  0.57930  0.89300  Biso   1.000  C
  C212     1.0000 0.89050  0.72310  0.70170  Biso   1.000  C
  C213     1.0000 0.94040  0.72130  0.73310  Biso   1.000  C
  C214     1.0000 0.94380  0.68380  0.74290  Biso   1.000  C
  C215     1.0000 0.89340  0.64860  0.72160  Biso   1.000  C
  C216     1.0000 0.84670  0.65320  0.68900  Biso   1.000  C
  C217     1.0000 0.29170  0.22840  0.19890  Biso   1.000  C
  C218     1.0000 0.23820  0.22500  0.23130  Biso   1.000  C
  C219     1.0000 0.23740  0.18810  0.24220  Biso   1.000  C
  C220     1.0000 0.29130  0.15580  0.22180  Biso   1.000  C
  C221     1.0000 0.34550  0.16110  0.19070  Biso   1.000  C
  C222     1.0000 0.18110  0.18410  0.27650  Biso   1.000  C
  C223     1.0000 0.06170  0.20190  0.31510  Biso   1.000  C
  C224     1.0000 0.14900  0.14800  0.32170  Biso   1.000  C
  C225     1.0000 0.86950  0.25890  0.37950  Biso   1.000  C
  C226     1.0000 0.94380  0.23290  0.36610  Biso   1.000  C
  C227     1.0000 0.97950  0.22960  0.32830  Biso   1.000  C
  C228     1.0000 0.94090  0.25250  0.30520  Biso   1.000  C
  C229     1.0000 0.86850  0.27780  0.31990  Biso   1.000  C
  C230     1.0000 0.27270  0.07240  0.36490  Biso   1.000  C
  C231     1.0000 0.25490  0.10170  0.34480  Biso   1.000  C
  C232     1.0000 0.16930  0.11640  0.34190  Biso   1.000  C
  C233     1.0000 0.10320  0.10090  0.36090  Biso   1.000  C
  C234     1.0000 0.12010  0.07040  0.38090  Biso   1.000  C
  C235     1.0000 0.76050  0.41650  0.41310  Biso   1.000  C
  C236     1.0000 0.80630  0.45320  0.42960  Biso   1.000  C
  C237     1.0000 0.90040  0.45200  0.43290  Biso   1.000  C
  C238     1.0000 0.94010  0.41430  0.42060  Biso   1.000  C
  C239     1.0000 0.89140  0.37840  0.40410  Biso   1.000  C
  C240     1.0000 0.95060  0.49040  0.45270  Biso   1.000  C
  C241     1.0000 0.96230  0.55330  0.49920  Biso   1.000  C
  C242     1.0000 0.08700  0.52340  0.46420  Biso   1.000  C
  C243     1.0000 0.91740  0.64660  0.58830  Biso   1.000  C
  C244     1.0000 0.96650  0.61520  0.55750  Biso   1.000  C
  C245     1.0000 0.91730  0.58620  0.53040  Biso   1.000  C
  C246     1.0000 0.82340  0.58820  0.53080  Biso   1.000  C
  C247     1.0000 0.78220  0.61870  0.56130  Biso   1.000  C
  C248     1.0000 0.31110  0.49010  0.41590  Biso   1.000  C
  C249     1.0000 0.21620  0.49000  0.42690  Biso   1.000  C
  C250     1.0000 0.18280  0.52370  0.45540  Biso   1.000  C
  C251     1.0000 0.23920  0.55510  0.47350  Biso   1.000  C
  C252     1.0000 0.32980  0.55220  0.46230  Biso   1.000  C
  C253     1.0000 0.39010  0.04570  0.46030  Biso   1.000  C
  C254     1.0000 0.47830  0.04800  0.46900  Biso   1.000  C
  C255     1.0000 0.54330  0.02170  0.44570  Biso   1.000  C
  C256     1.0000 0.51030  0.99340  0.41080  Biso   1.000  C
  C257     1.0000 0.41930  0.99210  0.40280  Biso   1.000  C
  C258     1.0000 0.64000  0.02140  0.45620  Biso   1.000  C
  C259     1.0000 0.75630  0.04740  0.49440  Biso   1.000  C
  C260     1.0000 0.76930  0.98600  0.44790  Biso   1.000  C
  C261     1.0000 0.92920  0.10650  0.56680  Biso   1.000  C
  C262     1.0000 0.89370  0.07830  0.53470  Biso   1.000  C
  C263     1.0000 0.79790  0.07980  0.52710  Biso   1.000  C
  C264     1.0000 0.75010  0.11140  0.55480  Biso   1.000  C
  C265     1.0000 0.79340  0.13880  0.58480  Biso   1.000  C
  C266     1.0000 0.81960  0.87270  0.39300  Biso   1.000  C
  C267     1.0000 0.77320  0.90990  0.41300  Biso   1.000  C
  C268     1.0000 0.81810  0.94610  0.42820  Biso   1.000  C
  C269     1.0000 0.91210  0.94600  0.42500  Biso   1.000  C
  C270     1.0000 0.95300  0.90900  0.40380  Biso   1.000  C
  C271     1.0000 0.79950  0.78520  0.29930  Biso   1.000  C
  C272     1.0000 0.72440  0.76040  0.29150  Biso   1.000  C
  C273     1.0000 0.70120  0.73400  0.31480  Biso   1.000  C
  C274     1.0000 0.75810  0.73400  0.34640  Biso   1.000  C
  C275     1.0000 0.83460  0.75900  0.35180  Biso   1.000  C
  C276     1.0000 0.61940  0.70730  0.30690  Biso   1.000  C
  C277     1.0000 0.49010  0.68920  0.27350  Biso   1.000  C
  C278     1.0000 0.53800  0.65320  0.31600  Biso   1.000  C
  C279     1.0000 0.30970  0.66560  0.19410  Biso   1.000  C
  C280     1.0000 0.36340  0.66250  0.22780  Biso   1.000  C
  C281     1.0000 0.42610  0.69350  0.24220  Biso   1.000  C
  C282     1.0000 0.43220  0.72500  0.22400  Biso   1.000  C
  C283     1.0000 0.37700  0.72490  0.19290  Biso   1.000  C
  C284     1.0000 0.58450  0.57330  0.37000  Biso   1.000  C
  C285     1.0000 0.59720  0.60310  0.35020  Biso   1.000  C
  C286     1.0000 0.52430  0.62150  0.33660  Biso   1.000  C
  C287     1.0000 0.43890  0.60800  0.34490  Biso   1.000  C
  C288     1.0000 0.43210  0.57690  0.36470  Biso   1.000  C
  I25      1.0000 0.08630  0.66090  0.14429  Biso   1.000  I
  I26      1.0000 0.24806  0.76281  0.11194  Biso   1.000  I
  I27      1.0000 0.17458  0.35764  0.79030  Biso   1.000  I
  I28      1.0000 0.10061  0.29307  0.88698  Biso   1.000  I
  I29      1.0000 0.59412  0.04369  0.98232  Biso   1.000  I
  I30      1.0000 0.67161  0.94407  0.87322  Biso   1.000  I
  I31      1.0000 0.48281  0.81973  0.95051  Biso   1.000  I
  I32      1.0000 0.56467  0.82131  0.82974  Biso   1.000  I
  I33      1.0000 0.97840  0.43738  0.86741  Biso   1.000  I
  I34      1.0000 0.05284  0.53599  0.97919  Biso   1.000  I
  I35      1.0000 0.61262  0.65893  0.64456  Biso   1.000  I
  I36      1.0000 0.76962  0.76203  0.61502  Biso   1.000  I
  I37      1.0000 0.39054  0.26967  0.11566  Biso   1.000  I
  I38      1.0000 0.56703  0.17115  0.14200  Biso   1.000  I
  I39      1.0000 0.67411  0.30836  0.44474  Biso   1.000  I
  I40      1.0000 0.62375  0.32474  0.32633  Biso   1.000  I
  I41      1.0000 0.52382  0.44595  0.36551  Biso   1.000  I
  I42      1.0000 0.60093  0.54785  0.47195  Biso   1.000  I
  I43      1.0000 0.12165  0.03576  0.47268  Biso   1.000  I
  I44      1.0000 0.19418  0.94067  0.36039  Biso   1.000  I
  I45      1.0000 0.08714  0.14322  0.65439  Biso   1.000  I
  I46      1.0000 0.95414  0.24666  0.61499  Biso   1.000  I
  I47      1.0000 0.98745  0.86054  0.28888  Biso   1.000  I
  I48      1.0000 0.08447  0.78833  0.37523  Biso   1.000  I
  N49      1.0000 0.29540  0.64820  0.08760  Biso   1.000  N
  N50      1.0000 0.50920  0.55950  0.98650  Biso   1.000  N
  N51      1.0000 0.49570  0.49400  0.93360  Biso   1.000  N
  N52      1.0000 0.36750  0.52290  0.97370  Biso   1.000  N
  N53      1.0000 0.82330  0.51810  0.93120  Biso   1.000  N
  N54      1.0000 0.26940  0.38050  0.88660  Biso   1.000  N
  N55      1.0000 0.31750  0.28770  0.83470  Biso   1.000  N
  N56      1.0000 0.54720  0.17560  0.82850  Biso   1.000  N
  N57      1.0000 0.68410  0.15320  0.79410  Biso   1.000  N
  N58      1.0000 0.60540  0.21280  0.78380  Biso   1.000  N
  N59      1.0000 0.66290  0.06020  0.88610  Biso   1.000  N
  N60      1.0000 0.86200  0.18660  0.68420  Biso   1.000  N
  N61      1.0000 0.82210  0.02700  0.93250  Biso   1.000  N
  N62      1.0000 0.13640  0.06060  0.98800  Biso   1.000  N
  N63      1.0000 0.27500  0.02350  0.97650  Biso   1.000  N
  N64      1.0000 0.14660  0.99740  0.93620  Biso   1.000  N
  N65      1.0000 0.35440  0.15150  0.08770  Biso   1.000  N
  N66      1.0000 0.37640  0.88260  0.89370  Biso   1.000  N
  N67      1.0000 0.34560  0.78180  0.85630  Biso   1.000  N
  N68      1.0000 0.10840  0.67090  0.83550  Biso   1.000  N
  N69      1.0000 0.98600  0.64800  0.79330  Biso   1.000  N
  N70      1.0000 0.07160  0.70590  0.78660  Biso   1.000  N
  N71      1.0000 0.98110  0.55400  0.88510  Biso   1.000  N
  N72      1.0000 0.83780  0.69190  0.68000  Biso   1.000  N
  N73      1.0000 0.33870  0.19610  0.17920  Biso   1.000  N
  N74      1.0000 0.11040  0.20950  0.28600  Biso   1.000  N
  N75      1.0000 0.07520  0.17120  0.33300  Biso   1.000  N
  N76      1.0000 0.20340  0.15250  0.29150  Biso   1.000  N
  N77      1.0000 0.83530  0.28070  0.35800  Biso   1.000  N
  N78      1.0000 0.20650  0.05630  0.38370  Biso   1.000  N
  N79      1.0000 0.80240  0.37760  0.39870  Biso   1.000  N
  N80      1.0000 0.90980  0.52010  0.47950  Biso   1.000  N
  N81      1.0000 0.05130  0.55560  0.49380  Biso   1.000  N
  N82      1.0000 0.03960  0.48970  0.44350  Biso   1.000  N
  N83      1.0000 0.82810  0.64690  0.58760  Biso   1.000  N
  N84      1.0000 0.36500  0.52180  0.43260  Biso   1.000  N
  N85      1.0000 0.35990  0.01650  0.42680  Biso   1.000  N
  N86      1.0000 0.67090  0.05270  0.48580  Biso   1.000  N
  N87      1.0000 0.81020  0.01460  0.47700  Biso   1.000  N
  N88      1.0000 0.68290  0.98760  0.43600  Biso   1.000  N
  N89      1.0000 0.88570  0.13510  0.59120  Biso   1.000  N
  N90      1.0000 0.90620  0.87370  0.38730  Biso   1.000  N
  N91      1.0000 0.85530  0.78320  0.32950  Biso   1.000  N
  N92      1.0000 0.55850  0.71730  0.28250  Biso   1.000  N
  N93      1.0000 0.47470  0.65860  0.29160  Biso   1.000  N
  N94      1.0000 0.61360  0.67600  0.32380  Biso   1.000  N
  N95      1.0000 0.31560  0.69630  0.17970  Biso   1.000  N
  N96      1.0000 0.50200  0.56030  0.38050  Biso   1.000  N
