data_image0
_cell_length_a       45.3067
_cell_length_b       45.3067
_cell_length_c       45.3067
_cell_angle_alpha    60
_cell_angle_beta     60
_cell_angle_gamma    60

_symmetry_space_group_name_H-M    P 1
_symmetry_int_tables_number       1

loop_
  _symmetry_equiv_pos_as_xyz
  'x, y, z'

loop_
  _atom_site_label
  _atom_site_occupancy
  _atom_site_fract_x
  _atom_site_fract_y
  _atom_site_fract_z
  _atom_site_thermal_displace_type
  _atom_site_B_iso_or_equiv
  _atom_site_type_symbol
  Co1      1.0000 0.00644  0.75000  0.99356  Biso   1.000  Co
  Co2      1.0000 0.25000  0.50644  0.25000  Biso   1.000  Co
  Co3      1.0000 0.49356  0.25000  0.50644  Biso   1.000  Co
  Co4      1.0000 0.75000  0.99356  0.75000  Biso   1.000  Co
  Co5      1.0000 0.00644  0.99356  0.25000  Biso   1.000  Co
  Co6      1.0000 0.25000  0.25000  0.99356  Biso   1.000  Co
  Co7      1.0000 0.49356  0.50644  0.75000  Biso   1.000  Co
  Co8      1.0000 0.75000  0.75000  0.50644  Biso   1.000  Co
  Co9      1.0000 0.00644  0.25000  0.75000  Biso   1.000  Co
  Co10     1.0000 0.25000  0.99356  0.50644  Biso   1.000  Co
  Co11     1.0000 0.49356  0.75000  0.25000  Biso   1.000  Co
  Co12     1.0000 0.75000  0.50644  0.99356  Biso   1.000  Co
  Co13     1.0000 0.99356  0.25000  0.00644  Biso   1.000  Co
  Co14     1.0000 0.75000  0.49356  0.75000  Biso   1.000  Co
  Co15     1.0000 0.50644  0.75000  0.49356  Biso   1.000  Co
  Co16     1.0000 0.25000  0.00644  0.25000  Biso   1.000  Co
  Co17     1.0000 0.99356  0.00644  0.75000  Biso   1.000  Co
  Co18     1.0000 0.75000  0.75000  0.00644  Biso   1.000  Co
  Co19     1.0000 0.50644  0.49356  0.25000  Biso   1.000  Co
  Co20     1.0000 0.25000  0.25000  0.49356  Biso   1.000  Co
  Co21     1.0000 0.99356  0.75000  0.25000  Biso   1.000  Co
  Co22     1.0000 0.75000  0.00644  0.49356  Biso   1.000  Co
  Co23     1.0000 0.50644  0.25000  0.75000  Biso   1.000  Co
  Co24     1.0000 0.25000  0.49356  0.00644  Biso   1.000  Co
  Co25     1.0000 0.00212  0.50212  0.24788  Biso   1.000  Co
  Co26     1.0000 0.74788  0.24788  0.50212  Biso   1.000  Co
  Co27     1.0000 0.00212  0.24788  0.24788  Biso   1.000  Co
  Co28     1.0000 0.74788  0.50212  0.50212  Biso   1.000  Co
  Co29     1.0000 0.00212  0.24788  0.50212  Biso   1.000  Co
  Co30     1.0000 0.74788  0.50212  0.24788  Biso   1.000  Co
  Co31     1.0000 0.49788  0.99788  0.25212  Biso   1.000  Co
  Co32     1.0000 0.75212  0.25212  0.99788  Biso   1.000  Co
  Co33     1.0000 0.75212  0.99788  0.25212  Biso   1.000  Co
  Co34     1.0000 0.49788  0.25212  0.99788  Biso   1.000  Co
  Co35     1.0000 0.75212  0.99788  0.99788  Biso   1.000  Co
  Co36     1.0000 0.49788  0.25212  0.25212  Biso   1.000  Co
  Co37     1.0000 0.99788  0.49788  0.75212  Biso   1.000  Co
  Co38     1.0000 0.25212  0.75212  0.49788  Biso   1.000  Co
  Co39     1.0000 0.99788  0.75212  0.75212  Biso   1.000  Co
  Co40     1.0000 0.25212  0.49788  0.49788  Biso   1.000  Co
  Co41     1.0000 0.99788  0.75212  0.49788  Biso   1.000  Co
  Co42     1.0000 0.25212  0.49788  0.75212  Biso   1.000  Co
  Co43     1.0000 0.50212  0.00212  0.74788  Biso   1.000  Co
  Co44     1.0000 0.24788  0.74788  0.00212  Biso   1.000  Co
  Co45     1.0000 0.24788  0.00212  0.74788  Biso   1.000  Co
  Co46     1.0000 0.50212  0.74788  0.00212  Biso   1.000  Co
  Co47     1.0000 0.24788  0.00212  0.00212  Biso   1.000  Co
  Co48     1.0000 0.50212  0.74788  0.74788  Biso   1.000  Co
  H1       1.0000 0.95830  0.68770  0.31430  Biso   1.000  H
  H2       1.0000 0.94020  0.64460  0.32160  Biso   1.000  H
  H3       1.0000 0.94390  0.63950  0.27010  Biso   1.000  H
  H4       1.0000 0.98080  0.72460  0.20920  Biso   1.000  H
  H5       1.0000 0.98720  0.71240  0.07520  Biso   1.000  H
  H6       1.0000 0.96920  0.77380  0.12760  Biso   1.000  H
  H7       1.0000 0.97350  0.82190  0.07230  Biso   1.000  H
  H8       1.0000 0.98570  0.81290  0.02070  Biso   1.000  H
  H9       1.0000 0.99670  0.62790  0.11310  Biso   1.000  H
  H10      1.0000 0.01220  0.57000  0.11360  Biso   1.000  H
  H11      1.0000 0.01640  0.52060  0.16660  Biso   1.000  H
  H12      1.0000 0.99080  0.58300  0.21800  Biso   1.000  H
  H13      1.0000 0.92780  0.55800  0.24020  Biso   1.000  H
  H14      1.0000 0.88040  0.56720  0.22740  Biso   1.000  H
  H15      1.0000 0.87760  0.51900  0.22240  Biso   1.000  H
  H16      1.0000 0.97110  0.45610  0.24430  Biso   1.000  H
  H17      1.0000 0.18770  0.45830  0.03970  Biso   1.000  H
  H18      1.0000 0.14460  0.44020  0.09360  Biso   1.000  H
  H19      1.0000 0.13950  0.44390  0.14650  Biso   1.000  H
  H20      1.0000 0.22460  0.48080  0.08540  Biso   1.000  H
  H21      1.0000 0.21240  0.48720  0.22520  Biso   1.000  H
  H22      1.0000 0.27380  0.46920  0.12940  Biso   1.000  H
  H23      1.0000 0.32190  0.47350  0.13230  Biso   1.000  H
  H24      1.0000 0.31290  0.48570  0.18070  Biso   1.000  H
  H25      1.0000 0.12790  0.49670  0.26230  Biso   1.000  H
  H26      1.0000 0.07000  0.51220  0.30420  Biso   1.000  H
  H27      1.0000 0.02060  0.51640  0.29640  Biso   1.000  H
  H28      1.0000 0.08300  0.49080  0.20820  Biso   1.000  H
  H29      1.0000 0.05800  0.42780  0.27400  Biso   1.000  H
  H30      1.0000 0.06720  0.38040  0.32500  Biso   1.000  H
  H31      1.0000 0.01900  0.37760  0.38100  Biso   1.000  H
  H32      1.0000 0.95610  0.47110  0.32850  Biso   1.000  H
  H33      1.0000 0.81430  0.03970  0.45830  Biso   1.000  H
  H34      1.0000 0.82160  0.09360  0.44020  Biso   1.000  H
  H35      1.0000 0.77010  0.14650  0.44390  Biso   1.000  H
  H36      1.0000 0.70920  0.08540  0.48080  Biso   1.000  H
  H37      1.0000 0.57520  0.22520  0.48720  Biso   1.000  H
  H38      1.0000 0.62760  0.12940  0.46920  Biso   1.000  H
  H39      1.0000 0.57230  0.13230  0.47350  Biso   1.000  H
  H40      1.0000 0.52070  0.18070  0.48570  Biso   1.000  H
  H41      1.0000 0.61310  0.26230  0.49670  Biso   1.000  H
  H42      1.0000 0.61360  0.30420  0.51220  Biso   1.000  H
  H43      1.0000 0.66660  0.29640  0.51640  Biso   1.000  H
  H44      1.0000 0.71800  0.20820  0.49080  Biso   1.000  H
  H45      1.0000 0.74020  0.27400  0.42780  Biso   1.000  H
  H46      1.0000 0.72740  0.32500  0.38040  Biso   1.000  H
  H47      1.0000 0.72240  0.38100  0.37760  Biso   1.000  H
  H48      1.0000 0.74430  0.32850  0.47110  Biso   1.000  H
  H49      1.0000 0.53970  0.31430  0.68770  Biso   1.000  H
  H50      1.0000 0.59360  0.32160  0.64460  Biso   1.000  H
  H51      1.0000 0.64650  0.27010  0.63950  Biso   1.000  H
  H52      1.0000 0.58540  0.20920  0.72460  Biso   1.000  H
  H53      1.0000 0.72520  0.07520  0.71240  Biso   1.000  H
  H54      1.0000 0.62940  0.12760  0.77380  Biso   1.000  H
  H55      1.0000 0.63230  0.07230  0.82190  Biso   1.000  H
  H56      1.0000 0.68070  0.02070  0.81290  Biso   1.000  H
  H57      1.0000 0.76230  0.11310  0.62790  Biso   1.000  H
  H58      1.0000 0.80420  0.11360  0.57000  Biso   1.000  H
  H59      1.0000 0.79640  0.16660  0.52060  Biso   1.000  H
  H60      1.0000 0.70820  0.21800  0.58300  Biso   1.000  H
  H61      1.0000 0.77400  0.24020  0.55800  Biso   1.000  H
  H62      1.0000 0.82500  0.22740  0.56720  Biso   1.000  H
  H63      1.0000 0.88100  0.22240  0.51900  Biso   1.000  H
  H64      1.0000 0.82850  0.24430  0.45610  Biso   1.000  H
  H65      1.0000 0.95830  0.31430  0.03970  Biso   1.000  H
  H66      1.0000 0.94020  0.32160  0.09360  Biso   1.000  H
  H67      1.0000 0.94390  0.27010  0.14650  Biso   1.000  H
  H68      1.0000 0.98080  0.20920  0.08540  Biso   1.000  H
  H69      1.0000 0.98720  0.07520  0.22520  Biso   1.000  H
  H70      1.0000 0.96920  0.12760  0.12940  Biso   1.000  H
  H71      1.0000 0.97350  0.07230  0.13230  Biso   1.000  H
  H72      1.0000 0.98570  0.02070  0.18070  Biso   1.000  H
  H73      1.0000 0.99670  0.11310  0.26230  Biso   1.000  H
  H74      1.0000 0.01220  0.11360  0.30420  Biso   1.000  H
  H75      1.0000 0.01640  0.16660  0.29640  Biso   1.000  H
  H76      1.0000 0.99080  0.21800  0.20820  Biso   1.000  H
  H77      1.0000 0.92780  0.24020  0.27400  Biso   1.000  H
  H78      1.0000 0.88040  0.22740  0.32500  Biso   1.000  H
  H79      1.0000 0.87760  0.22240  0.38100  Biso   1.000  H
  H80      1.0000 0.97110  0.24430  0.32850  Biso   1.000  H
  H81      1.0000 0.18770  0.03970  0.31430  Biso   1.000  H
  H82      1.0000 0.14460  0.09360  0.32160  Biso   1.000  H
  H83      1.0000 0.13950  0.14650  0.27010  Biso   1.000  H
  H84      1.0000 0.22460  0.08540  0.20920  Biso   1.000  H
  H85      1.0000 0.21240  0.22520  0.07520  Biso   1.000  H
  H86      1.0000 0.27380  0.12940  0.12760  Biso   1.000  H
  H87      1.0000 0.32190  0.13230  0.07230  Biso   1.000  H
  H88      1.0000 0.31290  0.18070  0.02070  Biso   1.000  H
  H89      1.0000 0.12790  0.26230  0.11310  Biso   1.000  H
  H90      1.0000 0.07000  0.30420  0.11360  Biso   1.000  H
  H91      1.0000 0.02060  0.29640  0.16660  Biso   1.000  H
  H92      1.0000 0.08300  0.20820  0.21800  Biso   1.000  H
  H93      1.0000 0.05800  0.27400  0.24020  Biso   1.000  H
  H94      1.0000 0.06720  0.32500  0.22740  Biso   1.000  H
  H95      1.0000 0.01900  0.38100  0.22240  Biso   1.000  H
  H96      1.0000 0.95610  0.32850  0.24430  Biso   1.000  H
  H97      1.0000 0.81430  0.45830  0.68770  Biso   1.000  H
  H98      1.0000 0.82160  0.44020  0.64460  Biso   1.000  H
  H99      1.0000 0.77010  0.44390  0.63950  Biso   1.000  H
  H100     1.0000 0.70920  0.48080  0.72460  Biso   1.000  H
  H101     1.0000 0.57520  0.48720  0.71240  Biso   1.000  H
  H102     1.0000 0.62760  0.46920  0.77380  Biso   1.000  H
  H103     1.0000 0.57230  0.47350  0.82190  Biso   1.000  H
  H104     1.0000 0.52070  0.48570  0.81290  Biso   1.000  H
  H105     1.0000 0.61310  0.49670  0.62790  Biso   1.000  H
  H106     1.0000 0.61360  0.51220  0.57000  Biso   1.000  H
  H107     1.0000 0.66660  0.51640  0.52060  Biso   1.000  H
  H108     1.0000 0.71800  0.49080  0.58300  Biso   1.000  H
  H109     1.0000 0.74020  0.42780  0.55800  Biso   1.000  H
  H110     1.0000 0.72740  0.38040  0.56720  Biso   1.000  H
  H111     1.0000 0.72240  0.37760  0.51900  Biso   1.000  H
  H112     1.0000 0.74430  0.47110  0.45610  Biso   1.000  H
  H113     1.0000 0.53970  0.68770  0.45830  Biso   1.000  H
  H114     1.0000 0.59360  0.64460  0.44020  Biso   1.000  H
  H115     1.0000 0.64650  0.63950  0.44390  Biso   1.000  H
  H116     1.0000 0.58540  0.72460  0.48080  Biso   1.000  H
  H117     1.0000 0.72520  0.71240  0.48720  Biso   1.000  H
  H118     1.0000 0.62940  0.77380  0.46920  Biso   1.000  H
  H119     1.0000 0.63230  0.82190  0.47350  Biso   1.000  H
  H120     1.0000 0.68070  0.81290  0.48570  Biso   1.000  H
  H121     1.0000 0.76230  0.62790  0.49670  Biso   1.000  H
  H122     1.0000 0.80420  0.57000  0.51220  Biso   1.000  H
  H123     1.0000 0.79640  0.52060  0.51640  Biso   1.000  H
  H124     1.0000 0.70820  0.58300  0.49080  Biso   1.000  H
  H125     1.0000 0.77400  0.55800  0.42780  Biso   1.000  H
  H126     1.0000 0.82500  0.56720  0.38040  Biso   1.000  H
  H127     1.0000 0.88100  0.51900  0.37760  Biso   1.000  H
  H128     1.0000 0.82850  0.45610  0.47110  Biso   1.000  H
  H129     1.0000 0.95830  0.03970  0.68770  Biso   1.000  H
  H130     1.0000 0.94020  0.09360  0.64460  Biso   1.000  H
  H131     1.0000 0.94390  0.14650  0.63950  Biso   1.000  H
  H132     1.0000 0.98080  0.08540  0.72460  Biso   1.000  H
  H133     1.0000 0.98720  0.22520  0.71240  Biso   1.000  H
  H134     1.0000 0.96920  0.12940  0.77380  Biso   1.000  H
  H135     1.0000 0.97350  0.13230  0.82190  Biso   1.000  H
  H136     1.0000 0.98570  0.18070  0.81290  Biso   1.000  H
  H137     1.0000 0.99670  0.26230  0.62790  Biso   1.000  H
  H138     1.0000 0.01220  0.30420  0.57000  Biso   1.000  H
  H139     1.0000 0.01640  0.29640  0.52060  Biso   1.000  H
  H140     1.0000 0.99080  0.20820  0.58300  Biso   1.000  H
  H141     1.0000 0.92780  0.27400  0.55800  Biso   1.000  H
  H142     1.0000 0.88040  0.32500  0.56720  Biso   1.000  H
  H143     1.0000 0.87760  0.38100  0.51900  Biso   1.000  H
  H144     1.0000 0.97110  0.32850  0.45610  Biso   1.000  H
  H145     1.0000 0.18770  0.31430  0.45830  Biso   1.000  H
  H146     1.0000 0.14460  0.32160  0.44020  Biso   1.000  H
  H147     1.0000 0.13950  0.27010  0.44390  Biso   1.000  H
  H148     1.0000 0.22460  0.20920  0.48080  Biso   1.000  H
  H149     1.0000 0.21240  0.07520  0.48720  Biso   1.000  H
  H150     1.0000 0.27380  0.12760  0.46920  Biso   1.000  H
  H151     1.0000 0.32190  0.07230  0.47350  Biso   1.000  H
  H152     1.0000 0.31290  0.02070  0.48570  Biso   1.000  H
  H153     1.0000 0.12790  0.11310  0.49670  Biso   1.000  H
  H154     1.0000 0.07000  0.11360  0.51220  Biso   1.000  H
  H155     1.0000 0.02060  0.16660  0.51640  Biso   1.000  H
  H156     1.0000 0.08300  0.21800  0.49080  Biso   1.000  H
  H157     1.0000 0.05800  0.24020  0.42780  Biso   1.000  H
  H158     1.0000 0.06720  0.22740  0.38040  Biso   1.000  H
  H159     1.0000 0.01900  0.22240  0.37760  Biso   1.000  H
  H160     1.0000 0.95610  0.24430  0.47110  Biso   1.000  H
  H161     1.0000 0.81430  0.68770  0.03970  Biso   1.000  H
  H162     1.0000 0.82160  0.64460  0.09360  Biso   1.000  H
  H163     1.0000 0.77010  0.63950  0.14650  Biso   1.000  H
  H164     1.0000 0.70920  0.72460  0.08540  Biso   1.000  H
  H165     1.0000 0.57520  0.71240  0.22520  Biso   1.000  H
  H166     1.0000 0.62760  0.77380  0.12940  Biso   1.000  H
  H167     1.0000 0.57230  0.82190  0.13230  Biso   1.000  H
  H168     1.0000 0.52070  0.81290  0.18070  Biso   1.000  H
  H169     1.0000 0.61310  0.62790  0.26230  Biso   1.000  H
  H170     1.0000 0.61360  0.57000  0.30420  Biso   1.000  H
  H171     1.0000 0.66660  0.52060  0.29640  Biso   1.000  H
  H172     1.0000 0.71800  0.58300  0.20820  Biso   1.000  H
  H173     1.0000 0.74020  0.55800  0.27400  Biso   1.000  H
  H174     1.0000 0.72740  0.56720  0.32500  Biso   1.000  H
  H175     1.0000 0.72240  0.51900  0.38100  Biso   1.000  H
  H176     1.0000 0.74430  0.45610  0.32850  Biso   1.000  H
  H177     1.0000 0.53970  0.45830  0.31430  Biso   1.000  H
  H178     1.0000 0.59360  0.44020  0.32160  Biso   1.000  H
  H179     1.0000 0.64650  0.44390  0.27010  Biso   1.000  H
  H180     1.0000 0.58540  0.48080  0.20920  Biso   1.000  H
  H181     1.0000 0.72520  0.48720  0.07520  Biso   1.000  H
  H182     1.0000 0.62940  0.46920  0.12760  Biso   1.000  H
  H183     1.0000 0.63230  0.47350  0.07230  Biso   1.000  H
  H184     1.0000 0.68070  0.48570  0.02070  Biso   1.000  H
  H185     1.0000 0.76230  0.49670  0.11310  Biso   1.000  H
  H186     1.0000 0.80420  0.51220  0.11360  Biso   1.000  H
  H187     1.0000 0.79640  0.51640  0.16660  Biso   1.000  H
  H188     1.0000 0.70820  0.49080  0.21800  Biso   1.000  H
  H189     1.0000 0.77400  0.42780  0.24020  Biso   1.000  H
  H190     1.0000 0.82500  0.38040  0.22740  Biso   1.000  H
  H191     1.0000 0.88100  0.37760  0.22240  Biso   1.000  H
  H192     1.0000 0.82850  0.47110  0.24430  Biso   1.000  H
  H193     1.0000 0.31230  0.04170  0.18570  Biso   1.000  H
  H194     1.0000 0.35540  0.05980  0.17840  Biso   1.000  H
  H195     1.0000 0.36050  0.05610  0.22990  Biso   1.000  H
  H196     1.0000 0.27540  0.01920  0.29080  Biso   1.000  H
  H197     1.0000 0.28760  0.01280  0.42480  Biso   1.000  H
  H198     1.0000 0.22620  0.03080  0.37240  Biso   1.000  H
  H199     1.0000 0.17810  0.02650  0.42770  Biso   1.000  H
  H200     1.0000 0.18710  0.01430  0.47930  Biso   1.000  H
  H201     1.0000 0.37210  0.00330  0.38690  Biso   1.000  H
  H202     1.0000 0.43000  0.98780  0.38640  Biso   1.000  H
  H203     1.0000 0.47940  0.98360  0.33340  Biso   1.000  H
  H204     1.0000 0.41700  0.00920  0.28200  Biso   1.000  H
  H205     1.0000 0.44200  0.07220  0.25980  Biso   1.000  H
  H206     1.0000 0.43280  0.11960  0.27260  Biso   1.000  H
  H207     1.0000 0.48100  0.12240  0.27760  Biso   1.000  H
  H208     1.0000 0.54390  0.02890  0.25570  Biso   1.000  H
  H209     1.0000 0.54170  0.81230  0.46030  Biso   1.000  H
  H210     1.0000 0.55980  0.85540  0.40640  Biso   1.000  H
  H211     1.0000 0.55610  0.86050  0.35350  Biso   1.000  H
  H212     1.0000 0.51920  0.77540  0.41460  Biso   1.000  H
  H213     1.0000 0.51280  0.78760  0.27480  Biso   1.000  H
  H214     1.0000 0.53080  0.72620  0.37060  Biso   1.000  H
  H215     1.0000 0.52650  0.67810  0.36770  Biso   1.000  H
  H216     1.0000 0.51430  0.68710  0.31930  Biso   1.000  H
  H217     1.0000 0.50330  0.87210  0.23770  Biso   1.000  H
  H218     1.0000 0.48780  0.93000  0.19580  Biso   1.000  H
  H219     1.0000 0.48360  0.97940  0.20360  Biso   1.000  H
  H220     1.0000 0.50920  0.91700  0.29180  Biso   1.000  H
  H221     1.0000 0.57220  0.94200  0.22600  Biso   1.000  H
  H222     1.0000 0.61960  0.93280  0.17500  Biso   1.000  H
  H223     1.0000 0.62240  0.98100  0.11900  Biso   1.000  H
  H224     1.0000 0.52890  0.04390  0.17150  Biso   1.000  H
  H225     1.0000 0.96030  0.18570  0.04170  Biso   1.000  H
  H226     1.0000 0.90640  0.17840  0.05980  Biso   1.000  H
  H227     1.0000 0.85350  0.22990  0.05610  Biso   1.000  H
  H228     1.0000 0.91460  0.29080  0.01920  Biso   1.000  H
  H229     1.0000 0.77480  0.42480  0.01280  Biso   1.000  H
  H230     1.0000 0.87060  0.37240  0.03080  Biso   1.000  H
  H231     1.0000 0.86770  0.42770  0.02650  Biso   1.000  H
  H232     1.0000 0.81930  0.47930  0.01430  Biso   1.000  H
  H233     1.0000 0.73770  0.38690  0.00330  Biso   1.000  H
  H234     1.0000 0.69580  0.38640  0.98780  Biso   1.000  H
  H235     1.0000 0.70360  0.33340  0.98360  Biso   1.000  H
  H236     1.0000 0.79180  0.28200  0.00920  Biso   1.000  H
  H237     1.0000 0.72600  0.25980  0.07220  Biso   1.000  H
  H238     1.0000 0.67500  0.27260  0.11960  Biso   1.000  H
  H239     1.0000 0.61900  0.27760  0.12240  Biso   1.000  H
  H240     1.0000 0.67150  0.25570  0.02890  Biso   1.000  H
  H241     1.0000 0.68570  0.46030  0.81230  Biso   1.000  H
  H242     1.0000 0.67840  0.40640  0.85540  Biso   1.000  H
  H243     1.0000 0.72990  0.35350  0.86050  Biso   1.000  H
  H244     1.0000 0.79080  0.41460  0.77540  Biso   1.000  H
  H245     1.0000 0.92480  0.27480  0.78760  Biso   1.000  H
  H246     1.0000 0.87240  0.37060  0.72620  Biso   1.000  H
  H247     1.0000 0.92770  0.36770  0.67810  Biso   1.000  H
  H248     1.0000 0.97930  0.31930  0.68710  Biso   1.000  H
  H249     1.0000 0.88690  0.23770  0.87210  Biso   1.000  H
  H250     1.0000 0.88640  0.19580  0.93000  Biso   1.000  H
  H251     1.0000 0.83340  0.20360  0.97940  Biso   1.000  H
  H252     1.0000 0.78200  0.29180  0.91700  Biso   1.000  H
  H253     1.0000 0.75980  0.22600  0.94200  Biso   1.000  H
  H254     1.0000 0.77260  0.17500  0.93280  Biso   1.000  H
  H255     1.0000 0.77760  0.11900  0.98100  Biso   1.000  H
  H256     1.0000 0.75570  0.17150  0.04390  Biso   1.000  H
  H257     1.0000 0.68570  0.04170  0.46030  Biso   1.000  H
  H258     1.0000 0.67840  0.05980  0.40640  Biso   1.000  H
  H259     1.0000 0.72990  0.05610  0.35350  Biso   1.000  H
  H260     1.0000 0.79080  0.01920  0.41460  Biso   1.000  H
  H261     1.0000 0.92480  0.01280  0.27480  Biso   1.000  H
  H262     1.0000 0.87240  0.03080  0.37060  Biso   1.000  H
  H263     1.0000 0.92770  0.02650  0.36770  Biso   1.000  H
  H264     1.0000 0.97930  0.01430  0.31930  Biso   1.000  H
  H265     1.0000 0.88690  0.00330  0.23770  Biso   1.000  H
  H266     1.0000 0.88640  0.98780  0.19580  Biso   1.000  H
  H267     1.0000 0.83340  0.98360  0.20360  Biso   1.000  H
  H268     1.0000 0.78200  0.00920  0.29180  Biso   1.000  H
  H269     1.0000 0.75980  0.07220  0.22600  Biso   1.000  H
  H270     1.0000 0.77260  0.11960  0.17500  Biso   1.000  H
  H271     1.0000 0.77760  0.12240  0.11900  Biso   1.000  H
  H272     1.0000 0.75570  0.02890  0.17150  Biso   1.000  H
  H273     1.0000 0.96030  0.81230  0.18570  Biso   1.000  H
  H274     1.0000 0.90640  0.85540  0.17840  Biso   1.000  H
  H275     1.0000 0.85350  0.86050  0.22990  Biso   1.000  H
  H276     1.0000 0.91460  0.77540  0.29080  Biso   1.000  H
  H277     1.0000 0.77480  0.78760  0.42480  Biso   1.000  H
  H278     1.0000 0.87060  0.72620  0.37240  Biso   1.000  H
  H279     1.0000 0.86770  0.67810  0.42770  Biso   1.000  H
  H280     1.0000 0.81930  0.68710  0.47930  Biso   1.000  H
  H281     1.0000 0.73770  0.87210  0.38690  Biso   1.000  H
  H282     1.0000 0.69580  0.93000  0.38640  Biso   1.000  H
  H283     1.0000 0.70360  0.97940  0.33340  Biso   1.000  H
  H284     1.0000 0.79180  0.91700  0.28200  Biso   1.000  H
  H285     1.0000 0.72600  0.94200  0.25980  Biso   1.000  H
  H286     1.0000 0.67500  0.93280  0.27260  Biso   1.000  H
  H287     1.0000 0.61900  0.98100  0.27760  Biso   1.000  H
  H288     1.0000 0.67150  0.04390  0.25570  Biso   1.000  H
  H289     1.0000 0.54170  0.18570  0.81230  Biso   1.000  H
  H290     1.0000 0.55980  0.17840  0.85540  Biso   1.000  H
  H291     1.0000 0.55610  0.22990  0.86050  Biso   1.000  H
  H292     1.0000 0.51920  0.29080  0.77540  Biso   1.000  H
  H293     1.0000 0.51280  0.42480  0.78760  Biso   1.000  H
  H294     1.0000 0.53080  0.37240  0.72620  Biso   1.000  H
  H295     1.0000 0.52650  0.42770  0.67810  Biso   1.000  H
  H296     1.0000 0.51430  0.47930  0.68710  Biso   1.000  H
  H297     1.0000 0.50330  0.38690  0.87210  Biso   1.000  H
  H298     1.0000 0.48780  0.38640  0.93000  Biso   1.000  H
  H299     1.0000 0.48360  0.33340  0.97940  Biso   1.000  H
  H300     1.0000 0.50920  0.28200  0.91700  Biso   1.000  H
  H301     1.0000 0.57220  0.25980  0.94200  Biso   1.000  H
  H302     1.0000 0.61960  0.27260  0.93280  Biso   1.000  H
  H303     1.0000 0.62240  0.27760  0.98100  Biso   1.000  H
  H304     1.0000 0.52890  0.25570  0.04390  Biso   1.000  H
  H305     1.0000 0.31230  0.46030  0.04170  Biso   1.000  H
  H306     1.0000 0.35540  0.40640  0.05980  Biso   1.000  H
  H307     1.0000 0.36050  0.35350  0.05610  Biso   1.000  H
  H308     1.0000 0.27540  0.41460  0.01920  Biso   1.000  H
  H309     1.0000 0.28760  0.27480  0.01280  Biso   1.000  H
  H310     1.0000 0.22620  0.37060  0.03080  Biso   1.000  H
  H311     1.0000 0.17810  0.36770  0.02650  Biso   1.000  H
  H312     1.0000 0.18710  0.31930  0.01430  Biso   1.000  H
  H313     1.0000 0.37210  0.23770  0.00330  Biso   1.000  H
  H314     1.0000 0.43000  0.19580  0.98780  Biso   1.000  H
  H315     1.0000 0.47940  0.20360  0.98360  Biso   1.000  H
  H316     1.0000 0.41700  0.29180  0.00920  Biso   1.000  H
  H317     1.0000 0.44200  0.22600  0.07220  Biso   1.000  H
  H318     1.0000 0.43280  0.17500  0.11960  Biso   1.000  H
  H319     1.0000 0.48100  0.11900  0.12240  Biso   1.000  H
  H320     1.0000 0.54390  0.17150  0.02890  Biso   1.000  H
  H321     1.0000 0.96030  0.04170  0.81230  Biso   1.000  H
  H322     1.0000 0.90640  0.05980  0.85540  Biso   1.000  H
  H323     1.0000 0.85350  0.05610  0.86050  Biso   1.000  H
  H324     1.0000 0.91460  0.01920  0.77540  Biso   1.000  H
  H325     1.0000 0.77480  0.01280  0.78760  Biso   1.000  H
  H326     1.0000 0.87060  0.03080  0.72620  Biso   1.000  H
  H327     1.0000 0.86770  0.02650  0.67810  Biso   1.000  H
  H328     1.0000 0.81930  0.01430  0.68710  Biso   1.000  H
  H329     1.0000 0.73770  0.00330  0.87210  Biso   1.000  H
  H330     1.0000 0.69580  0.98780  0.93000  Biso   1.000  H
  H331     1.0000 0.70360  0.98360  0.97940  Biso   1.000  H
  H332     1.0000 0.79180  0.00920  0.91700  Biso   1.000  H
  H333     1.0000 0.72600  0.07220  0.94200  Biso   1.000  H
  H334     1.0000 0.67500  0.11960  0.93280  Biso   1.000  H
  H335     1.0000 0.61900  0.12240  0.98100  Biso   1.000  H
  H336     1.0000 0.67150  0.02890  0.04390  Biso   1.000  H
  H337     1.0000 0.68570  0.81230  0.04170  Biso   1.000  H
  H338     1.0000 0.67840  0.85540  0.05980  Biso   1.000  H
  H339     1.0000 0.72990  0.86050  0.05610  Biso   1.000  H
  H340     1.0000 0.79080  0.77540  0.01920  Biso   1.000  H
  H341     1.0000 0.92480  0.78760  0.01280  Biso   1.000  H
  H342     1.0000 0.87240  0.72620  0.03080  Biso   1.000  H
  H343     1.0000 0.92770  0.67810  0.02650  Biso   1.000  H
  H344     1.0000 0.97930  0.68710  0.01430  Biso   1.000  H
  H345     1.0000 0.88690  0.87210  0.00330  Biso   1.000  H
  H346     1.0000 0.88640  0.93000  0.98780  Biso   1.000  H
  H347     1.0000 0.83340  0.97940  0.98360  Biso   1.000  H
  H348     1.0000 0.78200  0.91700  0.00920  Biso   1.000  H
  H349     1.0000 0.75980  0.94200  0.07220  Biso   1.000  H
  H350     1.0000 0.77260  0.93280  0.11960  Biso   1.000  H
  H351     1.0000 0.77760  0.98100  0.12240  Biso   1.000  H
  H352     1.0000 0.75570  0.04390  0.02890  Biso   1.000  H
  H353     1.0000 0.31230  0.18570  0.46030  Biso   1.000  H
  H354     1.0000 0.35540  0.17840  0.40640  Biso   1.000  H
  H355     1.0000 0.36050  0.22990  0.35350  Biso   1.000  H
  H356     1.0000 0.27540  0.29080  0.41460  Biso   1.000  H
  H357     1.0000 0.28760  0.42480  0.27480  Biso   1.000  H
  H358     1.0000 0.22620  0.37240  0.37060  Biso   1.000  H
  H359     1.0000 0.17810  0.42770  0.36770  Biso   1.000  H
  H360     1.0000 0.18710  0.47930  0.31930  Biso   1.000  H
  H361     1.0000 0.37210  0.38690  0.23770  Biso   1.000  H
  H362     1.0000 0.43000  0.38640  0.19580  Biso   1.000  H
  H363     1.0000 0.47940  0.33340  0.20360  Biso   1.000  H
  H364     1.0000 0.41700  0.28200  0.29180  Biso   1.000  H
  H365     1.0000 0.44200  0.25980  0.22600  Biso   1.000  H
  H366     1.0000 0.43280  0.27260  0.17500  Biso   1.000  H
  H367     1.0000 0.48100  0.27760  0.11900  Biso   1.000  H
  H368     1.0000 0.54390  0.25570  0.17150  Biso   1.000  H
  H369     1.0000 0.54170  0.46030  0.18570  Biso   1.000  H
  H370     1.0000 0.55980  0.40640  0.17840  Biso   1.000  H
  H371     1.0000 0.55610  0.35350  0.22990  Biso   1.000  H
  H372     1.0000 0.51920  0.41460  0.29080  Biso   1.000  H
  H373     1.0000 0.51280  0.27480  0.42480  Biso   1.000  H
  H374     1.0000 0.53080  0.37060  0.37240  Biso   1.000  H
  H375     1.0000 0.52650  0.36770  0.42770  Biso   1.000  H
  H376     1.0000 0.51430  0.31930  0.47930  Biso   1.000  H
  H377     1.0000 0.50330  0.23770  0.38690  Biso   1.000  H
  H378     1.0000 0.48780  0.19580  0.38640  Biso   1.000  H
  H379     1.0000 0.48360  0.20360  0.33340  Biso   1.000  H
  H380     1.0000 0.50920  0.29180  0.28200  Biso   1.000  H
  H381     1.0000 0.57220  0.22600  0.25980  Biso   1.000  H
  H382     1.0000 0.61960  0.17500  0.27260  Biso   1.000  H
  H383     1.0000 0.62240  0.11900  0.27760  Biso   1.000  H
  H384     1.0000 0.52890  0.17150  0.25570  Biso   1.000  H
  H385     1.0000 0.04170  0.31230  0.68570  Biso   1.000  H
  H386     1.0000 0.05980  0.35540  0.67840  Biso   1.000  H
  H387     1.0000 0.05610  0.36050  0.72990  Biso   1.000  H
  H388     1.0000 0.01920  0.27540  0.79080  Biso   1.000  H
  H389     1.0000 0.01280  0.28760  0.92480  Biso   1.000  H
  H390     1.0000 0.03080  0.22620  0.87240  Biso   1.000  H
  H391     1.0000 0.02650  0.17810  0.92770  Biso   1.000  H
  H392     1.0000 0.01430  0.18710  0.97930  Biso   1.000  H
  H393     1.0000 0.00330  0.37210  0.88690  Biso   1.000  H
  H394     1.0000 0.98780  0.43000  0.88640  Biso   1.000  H
  H395     1.0000 0.98360  0.47940  0.83340  Biso   1.000  H
  H396     1.0000 0.00920  0.41700  0.78200  Biso   1.000  H
  H397     1.0000 0.07220  0.44200  0.75980  Biso   1.000  H
  H398     1.0000 0.11960  0.43280  0.77260  Biso   1.000  H
  H399     1.0000 0.12240  0.48100  0.77760  Biso   1.000  H
  H400     1.0000 0.02890  0.54390  0.75570  Biso   1.000  H
  H401     1.0000 0.81230  0.54170  0.96030  Biso   1.000  H
  H402     1.0000 0.85540  0.55980  0.90640  Biso   1.000  H
  H403     1.0000 0.86050  0.55610  0.85350  Biso   1.000  H
  H404     1.0000 0.77540  0.51920  0.91460  Biso   1.000  H
  H405     1.0000 0.78760  0.51280  0.77480  Biso   1.000  H
  H406     1.0000 0.72620  0.53080  0.87060  Biso   1.000  H
  H407     1.0000 0.67810  0.52650  0.86770  Biso   1.000  H
  H408     1.0000 0.68710  0.51430  0.81930  Biso   1.000  H
  H409     1.0000 0.87210  0.50330  0.73770  Biso   1.000  H
  H410     1.0000 0.93000  0.48780  0.69580  Biso   1.000  H
  H411     1.0000 0.97940  0.48360  0.70360  Biso   1.000  H
  H412     1.0000 0.91700  0.50920  0.79180  Biso   1.000  H
  H413     1.0000 0.94200  0.57220  0.72600  Biso   1.000  H
  H414     1.0000 0.93280  0.61960  0.67500  Biso   1.000  H
  H415     1.0000 0.98100  0.62240  0.61900  Biso   1.000  H
  H416     1.0000 0.04390  0.52890  0.67150  Biso   1.000  H
  H417     1.0000 0.18570  0.96030  0.54170  Biso   1.000  H
  H418     1.0000 0.17840  0.90640  0.55980  Biso   1.000  H
  H419     1.0000 0.22990  0.85350  0.55610  Biso   1.000  H
  H420     1.0000 0.29080  0.91460  0.51920  Biso   1.000  H
  H421     1.0000 0.42480  0.77480  0.51280  Biso   1.000  H
  H422     1.0000 0.37240  0.87060  0.53080  Biso   1.000  H
  H423     1.0000 0.42770  0.86770  0.52650  Biso   1.000  H
  H424     1.0000 0.47930  0.81930  0.51430  Biso   1.000  H
  H425     1.0000 0.38690  0.73770  0.50330  Biso   1.000  H
  H426     1.0000 0.38640  0.69580  0.48780  Biso   1.000  H
  H427     1.0000 0.33340  0.70360  0.48360  Biso   1.000  H
  H428     1.0000 0.28200  0.79180  0.50920  Biso   1.000  H
  H429     1.0000 0.25980  0.72600  0.57220  Biso   1.000  H
  H430     1.0000 0.27260  0.67500  0.61960  Biso   1.000  H
  H431     1.0000 0.27760  0.61900  0.62240  Biso   1.000  H
  H432     1.0000 0.25570  0.67150  0.52890  Biso   1.000  H
  H433     1.0000 0.46030  0.68570  0.31230  Biso   1.000  H
  H434     1.0000 0.40640  0.67840  0.35540  Biso   1.000  H
  H435     1.0000 0.35350  0.72990  0.36050  Biso   1.000  H
  H436     1.0000 0.41460  0.79080  0.27540  Biso   1.000  H
  H437     1.0000 0.27480  0.92480  0.28760  Biso   1.000  H
  H438     1.0000 0.37060  0.87240  0.22620  Biso   1.000  H
  H439     1.0000 0.36770  0.92770  0.17810  Biso   1.000  H
  H440     1.0000 0.31930  0.97930  0.18710  Biso   1.000  H
  H441     1.0000 0.23770  0.88690  0.37210  Biso   1.000  H
  H442     1.0000 0.19580  0.88640  0.43000  Biso   1.000  H
  H443     1.0000 0.20360  0.83340  0.47940  Biso   1.000  H
  H444     1.0000 0.29180  0.78200  0.41700  Biso   1.000  H
  H445     1.0000 0.22600  0.75980  0.44200  Biso   1.000  H
  H446     1.0000 0.17500  0.77260  0.43280  Biso   1.000  H
  H447     1.0000 0.11900  0.77760  0.48100  Biso   1.000  H
  H448     1.0000 0.17150  0.75570  0.54390  Biso   1.000  H
  H449     1.0000 0.04170  0.68570  0.96030  Biso   1.000  H
  H450     1.0000 0.05980  0.67840  0.90640  Biso   1.000  H
  H451     1.0000 0.05610  0.72990  0.85350  Biso   1.000  H
  H452     1.0000 0.01920  0.79080  0.91460  Biso   1.000  H
  H453     1.0000 0.01280  0.92480  0.77480  Biso   1.000  H
  H454     1.0000 0.03080  0.87240  0.87060  Biso   1.000  H
  H455     1.0000 0.02650  0.92770  0.86770  Biso   1.000  H
  H456     1.0000 0.01430  0.97930  0.81930  Biso   1.000  H
  H457     1.0000 0.00330  0.88690  0.73770  Biso   1.000  H
  H458     1.0000 0.98780  0.88640  0.69580  Biso   1.000  H
  H459     1.0000 0.98360  0.83340  0.70360  Biso   1.000  H
  H460     1.0000 0.00920  0.78200  0.79180  Biso   1.000  H
  H461     1.0000 0.07220  0.75980  0.72600  Biso   1.000  H
  H462     1.0000 0.11960  0.77260  0.67500  Biso   1.000  H
  H463     1.0000 0.12240  0.77760  0.61900  Biso   1.000  H
  H464     1.0000 0.02890  0.75570  0.67150  Biso   1.000  H
  H465     1.0000 0.81230  0.96030  0.68570  Biso   1.000  H
  H466     1.0000 0.85540  0.90640  0.67840  Biso   1.000  H
  H467     1.0000 0.86050  0.85350  0.72990  Biso   1.000  H
  H468     1.0000 0.77540  0.91460  0.79080  Biso   1.000  H
  H469     1.0000 0.78760  0.77480  0.92480  Biso   1.000  H
  H470     1.0000 0.72620  0.87060  0.87240  Biso   1.000  H
  H471     1.0000 0.67810  0.86770  0.92770  Biso   1.000  H
  H472     1.0000 0.68710  0.81930  0.97930  Biso   1.000  H
  H473     1.0000 0.87210  0.73770  0.88690  Biso   1.000  H
  H474     1.0000 0.93000  0.69580  0.88640  Biso   1.000  H
  H475     1.0000 0.97940  0.70360  0.83340  Biso   1.000  H
  H476     1.0000 0.91700  0.79180  0.78200  Biso   1.000  H
  H477     1.0000 0.94200  0.72600  0.75980  Biso   1.000  H
  H478     1.0000 0.93280  0.67500  0.77260  Biso   1.000  H
  H479     1.0000 0.98100  0.61900  0.77760  Biso   1.000  H
  H480     1.0000 0.04390  0.67150  0.75570  Biso   1.000  H
  H481     1.0000 0.18570  0.54170  0.31230  Biso   1.000  H
  H482     1.0000 0.17840  0.55980  0.35540  Biso   1.000  H
  H483     1.0000 0.22990  0.55610  0.36050  Biso   1.000  H
  H484     1.0000 0.29080  0.51920  0.27540  Biso   1.000  H
  H485     1.0000 0.42480  0.51280  0.28760  Biso   1.000  H
  H486     1.0000 0.37240  0.53080  0.22620  Biso   1.000  H
  H487     1.0000 0.42770  0.52650  0.17810  Biso   1.000  H
  H488     1.0000 0.47930  0.51430  0.18710  Biso   1.000  H
  H489     1.0000 0.38690  0.50330  0.37210  Biso   1.000  H
  H490     1.0000 0.38640  0.48780  0.43000  Biso   1.000  H
  H491     1.0000 0.33340  0.48360  0.47940  Biso   1.000  H
  H492     1.0000 0.28200  0.50920  0.41700  Biso   1.000  H
  H493     1.0000 0.25980  0.57220  0.44200  Biso   1.000  H
  H494     1.0000 0.27260  0.61960  0.43280  Biso   1.000  H
  H495     1.0000 0.27760  0.62240  0.48100  Biso   1.000  H
  H496     1.0000 0.25570  0.52890  0.54390  Biso   1.000  H
  H497     1.0000 0.46030  0.31230  0.54170  Biso   1.000  H
  H498     1.0000 0.40640  0.35540  0.55980  Biso   1.000  H
  H499     1.0000 0.35350  0.36050  0.55610  Biso   1.000  H
  H500     1.0000 0.41460  0.27540  0.51920  Biso   1.000  H
  H501     1.0000 0.27480  0.28760  0.51280  Biso   1.000  H
  H502     1.0000 0.37060  0.22620  0.53080  Biso   1.000  H
  H503     1.0000 0.36770  0.17810  0.52650  Biso   1.000  H
  H504     1.0000 0.31930  0.18710  0.51430  Biso   1.000  H
  H505     1.0000 0.23770  0.37210  0.50330  Biso   1.000  H
  H506     1.0000 0.19580  0.43000  0.48780  Biso   1.000  H
  H507     1.0000 0.20360  0.47940  0.48360  Biso   1.000  H
  H508     1.0000 0.29180  0.41700  0.50920  Biso   1.000  H
  H509     1.0000 0.22600  0.44200  0.57220  Biso   1.000  H
  H510     1.0000 0.17500  0.43280  0.61960  Biso   1.000  H
  H511     1.0000 0.11900  0.48100  0.62240  Biso   1.000  H
  H512     1.0000 0.17150  0.54390  0.52890  Biso   1.000  H
  H513     1.0000 0.04170  0.96030  0.31230  Biso   1.000  H
  H514     1.0000 0.05980  0.90640  0.35540  Biso   1.000  H
  H515     1.0000 0.05610  0.85350  0.36050  Biso   1.000  H
  H516     1.0000 0.01920  0.91460  0.27540  Biso   1.000  H
  H517     1.0000 0.01280  0.77480  0.28760  Biso   1.000  H
  H518     1.0000 0.03080  0.87060  0.22620  Biso   1.000  H
  H519     1.0000 0.02650  0.86770  0.17810  Biso   1.000  H
  H520     1.0000 0.01430  0.81930  0.18710  Biso   1.000  H
  H521     1.0000 0.00330  0.73770  0.37210  Biso   1.000  H
  H522     1.0000 0.98780  0.69580  0.43000  Biso   1.000  H
  H523     1.0000 0.98360  0.70360  0.47940  Biso   1.000  H
  H524     1.0000 0.00920  0.79180  0.41700  Biso   1.000  H
  H525     1.0000 0.07220  0.72600  0.44200  Biso   1.000  H
  H526     1.0000 0.11960  0.67500  0.43280  Biso   1.000  H
  H527     1.0000 0.12240  0.61900  0.48100  Biso   1.000  H
  H528     1.0000 0.02890  0.67150  0.54390  Biso   1.000  H
  H529     1.0000 0.81230  0.68570  0.54170  Biso   1.000  H
  H530     1.0000 0.85540  0.67840  0.55980  Biso   1.000  H
  H531     1.0000 0.86050  0.72990  0.55610  Biso   1.000  H
  H532     1.0000 0.77540  0.79080  0.51920  Biso   1.000  H
  H533     1.0000 0.78760  0.92480  0.51280  Biso   1.000  H
  H534     1.0000 0.72620  0.87240  0.53080  Biso   1.000  H
  H535     1.0000 0.67810  0.92770  0.52650  Biso   1.000  H
  H536     1.0000 0.68710  0.97930  0.51430  Biso   1.000  H
  H537     1.0000 0.87210  0.88690  0.50330  Biso   1.000  H
  H538     1.0000 0.93000  0.88640  0.48780  Biso   1.000  H
  H539     1.0000 0.97940  0.83340  0.48360  Biso   1.000  H
  H540     1.0000 0.91700  0.78200  0.50920  Biso   1.000  H
  H541     1.0000 0.94200  0.75980  0.57220  Biso   1.000  H
  H542     1.0000 0.93280  0.77260  0.61960  Biso   1.000  H
  H543     1.0000 0.98100  0.77760  0.62240  Biso   1.000  H
  H544     1.0000 0.04390  0.75570  0.52890  Biso   1.000  H
  H545     1.0000 0.18570  0.31230  0.96030  Biso   1.000  H
  H546     1.0000 0.17840  0.35540  0.90640  Biso   1.000  H
  H547     1.0000 0.22990  0.36050  0.85350  Biso   1.000  H
  H548     1.0000 0.29080  0.27540  0.91460  Biso   1.000  H
  H549     1.0000 0.42480  0.28760  0.77480  Biso   1.000  H
  H550     1.0000 0.37240  0.22620  0.87060  Biso   1.000  H
  H551     1.0000 0.42770  0.17810  0.86770  Biso   1.000  H
  H552     1.0000 0.47930  0.18710  0.81930  Biso   1.000  H
  H553     1.0000 0.38690  0.37210  0.73770  Biso   1.000  H
  H554     1.0000 0.38640  0.43000  0.69580  Biso   1.000  H
  H555     1.0000 0.33340  0.47940  0.70360  Biso   1.000  H
  H556     1.0000 0.28200  0.41700  0.79180  Biso   1.000  H
  H557     1.0000 0.25980  0.44200  0.72600  Biso   1.000  H
  H558     1.0000 0.27260  0.43280  0.67500  Biso   1.000  H
  H559     1.0000 0.27760  0.48100  0.61900  Biso   1.000  H
  H560     1.0000 0.25570  0.54390  0.67150  Biso   1.000  H
  H561     1.0000 0.46030  0.54170  0.68570  Biso   1.000  H
  H562     1.0000 0.40640  0.55980  0.67840  Biso   1.000  H
  H563     1.0000 0.35350  0.55610  0.72990  Biso   1.000  H
  H564     1.0000 0.41460  0.51920  0.79080  Biso   1.000  H
  H565     1.0000 0.27480  0.51280  0.92480  Biso   1.000  H
  H566     1.0000 0.37060  0.53080  0.87240  Biso   1.000  H
  H567     1.0000 0.36770  0.52650  0.92770  Biso   1.000  H
  H568     1.0000 0.31930  0.51430  0.97930  Biso   1.000  H
  H569     1.0000 0.23770  0.50330  0.88690  Biso   1.000  H
  H570     1.0000 0.19580  0.48780  0.88640  Biso   1.000  H
  H571     1.0000 0.20360  0.48360  0.83340  Biso   1.000  H
  H572     1.0000 0.29180  0.50920  0.78200  Biso   1.000  H
  H573     1.0000 0.22600  0.57220  0.75980  Biso   1.000  H
  H574     1.0000 0.17500  0.61960  0.77260  Biso   1.000  H
  H575     1.0000 0.11900  0.62240  0.77760  Biso   1.000  H
  H576     1.0000 0.17150  0.52890  0.75570  Biso   1.000  H
  H577     1.0000 0.68770  0.95830  0.81430  Biso   1.000  H
  H578     1.0000 0.64460  0.94020  0.82160  Biso   1.000  H
  H579     1.0000 0.63950  0.94390  0.77010  Biso   1.000  H
  H580     1.0000 0.72460  0.98080  0.70920  Biso   1.000  H
  H581     1.0000 0.71240  0.98720  0.57520  Biso   1.000  H
  H582     1.0000 0.77380  0.96920  0.62760  Biso   1.000  H
  H583     1.0000 0.82190  0.97350  0.57230  Biso   1.000  H
  H584     1.0000 0.81290  0.98570  0.52070  Biso   1.000  H
  H585     1.0000 0.62790  0.99670  0.61310  Biso   1.000  H
  H586     1.0000 0.57000  0.01220  0.61360  Biso   1.000  H
  H587     1.0000 0.52060  0.01640  0.66660  Biso   1.000  H
  H588     1.0000 0.58300  0.99080  0.71800  Biso   1.000  H
  H589     1.0000 0.55800  0.92780  0.74020  Biso   1.000  H
  H590     1.0000 0.56720  0.88040  0.72740  Biso   1.000  H
  H591     1.0000 0.51900  0.87760  0.72240  Biso   1.000  H
  H592     1.0000 0.45610  0.97110  0.74430  Biso   1.000  H
  H593     1.0000 0.45830  0.18770  0.53970  Biso   1.000  H
  H594     1.0000 0.44020  0.14460  0.59360  Biso   1.000  H
  H595     1.0000 0.44390  0.13950  0.64650  Biso   1.000  H
  H596     1.0000 0.48080  0.22460  0.58540  Biso   1.000  H
  H597     1.0000 0.48720  0.21240  0.72520  Biso   1.000  H
  H598     1.0000 0.46920  0.27380  0.62940  Biso   1.000  H
  H599     1.0000 0.47350  0.32190  0.63230  Biso   1.000  H
  H600     1.0000 0.48570  0.31290  0.68070  Biso   1.000  H
  H601     1.0000 0.49670  0.12790  0.76230  Biso   1.000  H
  H602     1.0000 0.51220  0.07000  0.80420  Biso   1.000  H
  H603     1.0000 0.51640  0.02060  0.79640  Biso   1.000  H
  H604     1.0000 0.49080  0.08300  0.70820  Biso   1.000  H
  H605     1.0000 0.42780  0.05800  0.77400  Biso   1.000  H
  H606     1.0000 0.38040  0.06720  0.82500  Biso   1.000  H
  H607     1.0000 0.37760  0.01900  0.88100  Biso   1.000  H
  H608     1.0000 0.47110  0.95610  0.82850  Biso   1.000  H
  H609     1.0000 0.03970  0.81430  0.95830  Biso   1.000  H
  H610     1.0000 0.09360  0.82160  0.94020  Biso   1.000  H
  H611     1.0000 0.14650  0.77010  0.94390  Biso   1.000  H
  H612     1.0000 0.08540  0.70920  0.98080  Biso   1.000  H
  H613     1.0000 0.22520  0.57520  0.98720  Biso   1.000  H
  H614     1.0000 0.12940  0.62760  0.96920  Biso   1.000  H
  H615     1.0000 0.13230  0.57230  0.97350  Biso   1.000  H
  H616     1.0000 0.18070  0.52070  0.98570  Biso   1.000  H
  H617     1.0000 0.26230  0.61310  0.99670  Biso   1.000  H
  H618     1.0000 0.30420  0.61360  0.01220  Biso   1.000  H
  H619     1.0000 0.29640  0.66660  0.01640  Biso   1.000  H
  H620     1.0000 0.20820  0.71800  0.99080  Biso   1.000  H
  H621     1.0000 0.27400  0.74020  0.92780  Biso   1.000  H
  H622     1.0000 0.32500  0.72740  0.88040  Biso   1.000  H
  H623     1.0000 0.38100  0.72240  0.87760  Biso   1.000  H
  H624     1.0000 0.32850  0.74430  0.97110  Biso   1.000  H
  H625     1.0000 0.31430  0.53970  0.18770  Biso   1.000  H
  H626     1.0000 0.32160  0.59360  0.14460  Biso   1.000  H
  H627     1.0000 0.27010  0.64650  0.13950  Biso   1.000  H
  H628     1.0000 0.20920  0.58540  0.22460  Biso   1.000  H
  H629     1.0000 0.07520  0.72520  0.21240  Biso   1.000  H
  H630     1.0000 0.12760  0.62940  0.27380  Biso   1.000  H
  H631     1.0000 0.07230  0.63230  0.32190  Biso   1.000  H
  H632     1.0000 0.02070  0.68070  0.31290  Biso   1.000  H
  H633     1.0000 0.11310  0.76230  0.12790  Biso   1.000  H
  H634     1.0000 0.11360  0.80420  0.07000  Biso   1.000  H
  H635     1.0000 0.16660  0.79640  0.02060  Biso   1.000  H
  H636     1.0000 0.21800  0.70820  0.08300  Biso   1.000  H
  H637     1.0000 0.24020  0.77400  0.05800  Biso   1.000  H
  H638     1.0000 0.22740  0.82500  0.06720  Biso   1.000  H
  H639     1.0000 0.22240  0.88100  0.01900  Biso   1.000  H
  H640     1.0000 0.24430  0.82850  0.95610  Biso   1.000  H
  H641     1.0000 0.31430  0.95830  0.53970  Biso   1.000  H
  H642     1.0000 0.32160  0.94020  0.59360  Biso   1.000  H
  H643     1.0000 0.27010  0.94390  0.64650  Biso   1.000  H
  H644     1.0000 0.20920  0.98080  0.58540  Biso   1.000  H
  H645     1.0000 0.07520  0.98720  0.72520  Biso   1.000  H
  H646     1.0000 0.12760  0.96920  0.62940  Biso   1.000  H
  H647     1.0000 0.07230  0.97350  0.63230  Biso   1.000  H
  H648     1.0000 0.02070  0.98570  0.68070  Biso   1.000  H
  H649     1.0000 0.11310  0.99670  0.76230  Biso   1.000  H
  H650     1.0000 0.11360  0.01220  0.80420  Biso   1.000  H
  H651     1.0000 0.16660  0.01640  0.79640  Biso   1.000  H
  H652     1.0000 0.21800  0.99080  0.70820  Biso   1.000  H
  H653     1.0000 0.24020  0.92780  0.77400  Biso   1.000  H
  H654     1.0000 0.22740  0.88040  0.82500  Biso   1.000  H
  H655     1.0000 0.22240  0.87760  0.88100  Biso   1.000  H
  H656     1.0000 0.24430  0.97110  0.82850  Biso   1.000  H
  H657     1.0000 0.03970  0.18770  0.81430  Biso   1.000  H
  H658     1.0000 0.09360  0.14460  0.82160  Biso   1.000  H
  H659     1.0000 0.14650  0.13950  0.77010  Biso   1.000  H
  H660     1.0000 0.08540  0.22460  0.70920  Biso   1.000  H
  H661     1.0000 0.22520  0.21240  0.57520  Biso   1.000  H
  H662     1.0000 0.12940  0.27380  0.62760  Biso   1.000  H
  H663     1.0000 0.13230  0.32190  0.57230  Biso   1.000  H
  H664     1.0000 0.18070  0.31290  0.52070  Biso   1.000  H
  H665     1.0000 0.26230  0.12790  0.61310  Biso   1.000  H
  H666     1.0000 0.30420  0.07000  0.61360  Biso   1.000  H
  H667     1.0000 0.29640  0.02060  0.66660  Biso   1.000  H
  H668     1.0000 0.20820  0.08300  0.71800  Biso   1.000  H
  H669     1.0000 0.27400  0.05800  0.74020  Biso   1.000  H
  H670     1.0000 0.32500  0.06720  0.72740  Biso   1.000  H
  H671     1.0000 0.38100  0.01900  0.72240  Biso   1.000  H
  H672     1.0000 0.32850  0.95610  0.74430  Biso   1.000  H
  H673     1.0000 0.45830  0.81430  0.18770  Biso   1.000  H
  H674     1.0000 0.44020  0.82160  0.14460  Biso   1.000  H
  H675     1.0000 0.44390  0.77010  0.13950  Biso   1.000  H
  H676     1.0000 0.48080  0.70920  0.22460  Biso   1.000  H
  H677     1.0000 0.48720  0.57520  0.21240  Biso   1.000  H
  H678     1.0000 0.46920  0.62760  0.27380  Biso   1.000  H
  H679     1.0000 0.47350  0.57230  0.32190  Biso   1.000  H
  H680     1.0000 0.48570  0.52070  0.31290  Biso   1.000  H
  H681     1.0000 0.49670  0.61310  0.12790  Biso   1.000  H
  H682     1.0000 0.51220  0.61360  0.07000  Biso   1.000  H
  H683     1.0000 0.51640  0.66660  0.02060  Biso   1.000  H
  H684     1.0000 0.49080  0.71800  0.08300  Biso   1.000  H
  H685     1.0000 0.42780  0.74020  0.05800  Biso   1.000  H
  H686     1.0000 0.38040  0.72740  0.06720  Biso   1.000  H
  H687     1.0000 0.37760  0.72240  0.01900  Biso   1.000  H
  H688     1.0000 0.47110  0.74430  0.95610  Biso   1.000  H
  H689     1.0000 0.68770  0.53970  0.95830  Biso   1.000  H
  H690     1.0000 0.64460  0.59360  0.94020  Biso   1.000  H
  H691     1.0000 0.63950  0.64650  0.94390  Biso   1.000  H
  H692     1.0000 0.72460  0.58540  0.98080  Biso   1.000  H
  H693     1.0000 0.71240  0.72520  0.98720  Biso   1.000  H
  H694     1.0000 0.77380  0.62940  0.96920  Biso   1.000  H
  H695     1.0000 0.82190  0.63230  0.97350  Biso   1.000  H
  H696     1.0000 0.81290  0.68070  0.98570  Biso   1.000  H
  H697     1.0000 0.62790  0.76230  0.99670  Biso   1.000  H
  H698     1.0000 0.57000  0.80420  0.01220  Biso   1.000  H
  H699     1.0000 0.52060  0.79640  0.01640  Biso   1.000  H
  H700     1.0000 0.58300  0.70820  0.99080  Biso   1.000  H
  H701     1.0000 0.55800  0.77400  0.92780  Biso   1.000  H
  H702     1.0000 0.56720  0.82500  0.88040  Biso   1.000  H
  H703     1.0000 0.51900  0.88100  0.87760  Biso   1.000  H
  H704     1.0000 0.45610  0.82850  0.97110  Biso   1.000  H
  H705     1.0000 0.03970  0.95830  0.18770  Biso   1.000  H
  H706     1.0000 0.09360  0.94020  0.14460  Biso   1.000  H
  H707     1.0000 0.14650  0.94390  0.13950  Biso   1.000  H
  H708     1.0000 0.08540  0.98080  0.22460  Biso   1.000  H
  H709     1.0000 0.22520  0.98720  0.21240  Biso   1.000  H
  H710     1.0000 0.12940  0.96920  0.27380  Biso   1.000  H
  H711     1.0000 0.13230  0.97350  0.32190  Biso   1.000  H
  H712     1.0000 0.18070  0.98570  0.31290  Biso   1.000  H
  H713     1.0000 0.26230  0.99670  0.12790  Biso   1.000  H
  H714     1.0000 0.30420  0.01220  0.07000  Biso   1.000  H
  H715     1.0000 0.29640  0.01640  0.02060  Biso   1.000  H
  H716     1.0000 0.20820  0.99080  0.08300  Biso   1.000  H
  H717     1.0000 0.27400  0.92780  0.05800  Biso   1.000  H
  H718     1.0000 0.32500  0.88040  0.06720  Biso   1.000  H
  H719     1.0000 0.38100  0.87760  0.01900  Biso   1.000  H
  H720     1.0000 0.32850  0.97110  0.95610  Biso   1.000  H
  H721     1.0000 0.31430  0.18770  0.95830  Biso   1.000  H
  H722     1.0000 0.32160  0.14460  0.94020  Biso   1.000  H
  H723     1.0000 0.27010  0.13950  0.94390  Biso   1.000  H
  H724     1.0000 0.20920  0.22460  0.98080  Biso   1.000  H
  H725     1.0000 0.07520  0.21240  0.98720  Biso   1.000  H
  H726     1.0000 0.12760  0.27380  0.96920  Biso   1.000  H
  H727     1.0000 0.07230  0.32190  0.97350  Biso   1.000  H
  H728     1.0000 0.02070  0.31290  0.98570  Biso   1.000  H
  H729     1.0000 0.11310  0.12790  0.99670  Biso   1.000  H
  H730     1.0000 0.11360  0.07000  0.01220  Biso   1.000  H
  H731     1.0000 0.16660  0.02060  0.01640  Biso   1.000  H
  H732     1.0000 0.21800  0.08300  0.99080  Biso   1.000  H
  H733     1.0000 0.24020  0.05800  0.92780  Biso   1.000  H
  H734     1.0000 0.22740  0.06720  0.88040  Biso   1.000  H
  H735     1.0000 0.22240  0.01900  0.87760  Biso   1.000  H
  H736     1.0000 0.24430  0.95610  0.97110  Biso   1.000  H
  H737     1.0000 0.68770  0.81430  0.53970  Biso   1.000  H
  H738     1.0000 0.64460  0.82160  0.59360  Biso   1.000  H
  H739     1.0000 0.63950  0.77010  0.64650  Biso   1.000  H
  H740     1.0000 0.72460  0.70920  0.58540  Biso   1.000  H
  H741     1.0000 0.71240  0.57520  0.72520  Biso   1.000  H
  H742     1.0000 0.77380  0.62760  0.62940  Biso   1.000  H
  H743     1.0000 0.82190  0.57230  0.63230  Biso   1.000  H
  H744     1.0000 0.81290  0.52070  0.68070  Biso   1.000  H
  H745     1.0000 0.62790  0.61310  0.76230  Biso   1.000  H
  H746     1.0000 0.57000  0.61360  0.80420  Biso   1.000  H
  H747     1.0000 0.52060  0.66660  0.79640  Biso   1.000  H
  H748     1.0000 0.58300  0.71800  0.70820  Biso   1.000  H
  H749     1.0000 0.55800  0.74020  0.77400  Biso   1.000  H
  H750     1.0000 0.56720  0.72740  0.82500  Biso   1.000  H
  H751     1.0000 0.51900  0.72240  0.88100  Biso   1.000  H
  H752     1.0000 0.45610  0.74430  0.82850  Biso   1.000  H
  H753     1.0000 0.45830  0.53970  0.81430  Biso   1.000  H
  H754     1.0000 0.44020  0.59360  0.82160  Biso   1.000  H
  H755     1.0000 0.44390  0.64650  0.77010  Biso   1.000  H
  H756     1.0000 0.48080  0.58540  0.70920  Biso   1.000  H
  H757     1.0000 0.48720  0.72520  0.57520  Biso   1.000  H
  H758     1.0000 0.46920  0.62940  0.62760  Biso   1.000  H
  H759     1.0000 0.47350  0.63230  0.57230  Biso   1.000  H
  H760     1.0000 0.48570  0.68070  0.52070  Biso   1.000  H
  H761     1.0000 0.49670  0.76230  0.61310  Biso   1.000  H
  H762     1.0000 0.51220  0.80420  0.61360  Biso   1.000  H
  H763     1.0000 0.51640  0.79640  0.66660  Biso   1.000  H
  H764     1.0000 0.49080  0.70820  0.71800  Biso   1.000  H
  H765     1.0000 0.42780  0.77400  0.74020  Biso   1.000  H
  H766     1.0000 0.38040  0.82500  0.72740  Biso   1.000  H
  H767     1.0000 0.37760  0.88100  0.72240  Biso   1.000  H
  H768     1.0000 0.47110  0.82850  0.74430  Biso   1.000  H
  C1       1.0000 0.95968  0.68630  0.29344  Biso   1.000  C
  C2       1.0000 0.94890  0.66044  0.29806  Biso   1.000  C
  C3       1.0000 0.95070  0.65752  0.26774  Biso   1.000  C
  C4       1.0000 0.96278  0.68226  0.23410  Biso   1.000  C
  C5       1.0000 0.97287  0.70773  0.23221  Biso   1.000  C
  C6       1.0000 0.97358  0.83598  0.96166  Biso   1.000  C
  C7       1.0000 0.98460  0.73466  0.07476  Biso   1.000  C
  C8       1.0000 0.97735  0.73785  0.10685  Biso   1.000  C
  C9       1.0000 0.97361  0.77093  0.10615  Biso   1.000  C
  C10      1.0000 0.97643  0.79901  0.07371  Biso   1.000  C
  C11      1.0000 0.98372  0.79336  0.04286  Biso   1.000  C
  C12      1.0000 0.97611  0.70609  0.14029  Biso   1.000  C
  C13      1.0000 0.98249  0.64671  0.16815  Biso   1.000  C
  C14      1.0000 0.96846  0.68024  0.20000  Biso   1.000  C
  C15      1.0000 0.99182  0.61142  0.16620  Biso   1.000  C
  C16      1.0000 0.99848  0.60752  0.13442  Biso   1.000  C
  C17      1.0000 0.00763  0.57351  0.13469  Biso   1.000  C
  C18      1.0000 0.01009  0.54395  0.16669  Biso   1.000  C
  C19      1.0000 0.99512  0.58036  0.19660  Biso   1.000  C
  C20      1.0000 0.94588  0.55284  0.29754  Biso   1.000  C
  C21      1.0000 0.92700  0.53848  0.23834  Biso   1.000  C
  C22      1.0000 0.89873  0.54423  0.23073  Biso   1.000  C
  C23      1.0000 0.89688  0.51574  0.22790  Biso   1.000  C
  C24      1.0000 0.92434  0.48240  0.23356  Biso   1.000  C
  C25      1.0000 0.95238  0.47880  0.24094  Biso   1.000  C
  C26      1.0000 0.92319  0.45083  0.23249  Biso   1.000  C
  C27      1.0000 0.18630  0.45968  0.06058  Biso   1.000  C
  C28      1.0000 0.16044  0.44890  0.09260  Biso   1.000  C
  C29      1.0000 0.15752  0.45070  0.12404  Biso   1.000  C
  C30      1.0000 0.18226  0.46278  0.12086  Biso   1.000  C
  C31      1.0000 0.20773  0.47287  0.08719  Biso   1.000  C
  C32      1.0000 0.33598  0.47358  0.22878  Biso   1.000  C
  C33      1.0000 0.23466  0.48460  0.20598  Biso   1.000  C
  C34      1.0000 0.23785  0.47735  0.17795  Biso   1.000  C
  C35      1.0000 0.27093  0.47361  0.14931  Biso   1.000  C
  C36      1.0000 0.29901  0.47643  0.15085  Biso   1.000  C
  C37      1.0000 0.29336  0.48372  0.18006  Biso   1.000  C
  C38      1.0000 0.20609  0.47611  0.17751  Biso   1.000  C
  C39      1.0000 0.14671  0.48249  0.20265  Biso   1.000  C
  C40      1.0000 0.18024  0.46846  0.15130  Biso   1.000  C
  C41      1.0000 0.11142  0.49182  0.23056  Biso   1.000  C
  C42      1.0000 0.10752  0.49848  0.25958  Biso   1.000  C
  C43      1.0000 0.07351  0.50763  0.28417  Biso   1.000  C
  C44      1.0000 0.04395  0.51009  0.27927  Biso   1.000  C
  C45      1.0000 0.08036  0.49512  0.22792  Biso   1.000  C
  C46      1.0000 0.05284  0.44588  0.20374  Biso   1.000  C
  C47      1.0000 0.03848  0.42700  0.29618  Biso   1.000  C
  C48      1.0000 0.04423  0.39873  0.32631  Biso   1.000  C
  C49      1.0000 0.01574  0.39688  0.35948  Biso   1.000  C
  C50      1.0000 0.98240  0.42434  0.35970  Biso   1.000  C
  C51      1.0000 0.97880  0.45238  0.32788  Biso   1.000  C
  C52      1.0000 0.95083  0.42319  0.39349  Biso   1.000  C
  C53      1.0000 0.79344  0.06058  0.45968  Biso   1.000  C
  C54      1.0000 0.79806  0.09260  0.44890  Biso   1.000  C
  C55      1.0000 0.76774  0.12404  0.45070  Biso   1.000  C
  C56      1.0000 0.73410  0.12086  0.46278  Biso   1.000  C
  C57      1.0000 0.73221  0.08719  0.47287  Biso   1.000  C
  C58      1.0000 0.46166  0.22878  0.47358  Biso   1.000  C
  C59      1.0000 0.57476  0.20598  0.48460  Biso   1.000  C
  C60      1.0000 0.60685  0.17795  0.47735  Biso   1.000  C
  C61      1.0000 0.60615  0.14931  0.47361  Biso   1.000  C
  C62      1.0000 0.57371  0.15085  0.47643  Biso   1.000  C
  C63      1.0000 0.54286  0.18006  0.48372  Biso   1.000  C
  C64      1.0000 0.64029  0.17751  0.47611  Biso   1.000  C
  C65      1.0000 0.66815  0.20265  0.48249  Biso   1.000  C
  C66      1.0000 0.70000  0.15130  0.46846  Biso   1.000  C
  C67      1.0000 0.66620  0.23056  0.49182  Biso   1.000  C
  C68      1.0000 0.63442  0.25958  0.49848  Biso   1.000  C
  C69      1.0000 0.63469  0.28417  0.50763  Biso   1.000  C
  C70      1.0000 0.66669  0.27927  0.51009  Biso   1.000  C
  C71      1.0000 0.69660  0.22792  0.49512  Biso   1.000  C
  C72      1.0000 0.79754  0.20374  0.44588  Biso   1.000  C
  C73      1.0000 0.73834  0.29618  0.42700  Biso   1.000  C
  C74      1.0000 0.73073  0.32631  0.39873  Biso   1.000  C
  C75      1.0000 0.72790  0.35948  0.39688  Biso   1.000  C
  C76      1.0000 0.73356  0.35970  0.42434  Biso   1.000  C
  C77      1.0000 0.74094  0.32788  0.45238  Biso   1.000  C
  C78      1.0000 0.73249  0.39349  0.42319  Biso   1.000  C
  C79      1.0000 0.56058  0.29344  0.68630  Biso   1.000  C
  C80      1.0000 0.59260  0.29806  0.66044  Biso   1.000  C
  C81      1.0000 0.62404  0.26774  0.65752  Biso   1.000  C
  C82      1.0000 0.62086  0.23410  0.68226  Biso   1.000  C
  C83      1.0000 0.58719  0.23221  0.70773  Biso   1.000  C
  C84      1.0000 0.72878  0.96166  0.83598  Biso   1.000  C
  C85      1.0000 0.70598  0.07476  0.73466  Biso   1.000  C
  C86      1.0000 0.67795  0.10685  0.73785  Biso   1.000  C
  C87      1.0000 0.64931  0.10615  0.77093  Biso   1.000  C
  C88      1.0000 0.65085  0.07371  0.79901  Biso   1.000  C
  C89      1.0000 0.68006  0.04286  0.79336  Biso   1.000  C
  C90      1.0000 0.67751  0.14029  0.70609  Biso   1.000  C
  C91      1.0000 0.70265  0.16815  0.64671  Biso   1.000  C
  C92      1.0000 0.65130  0.20000  0.68024  Biso   1.000  C
  C93      1.0000 0.73056  0.16620  0.61142  Biso   1.000  C
  C94      1.0000 0.75958  0.13442  0.60752  Biso   1.000  C
  C95      1.0000 0.78417  0.13469  0.57351  Biso   1.000  C
  C96      1.0000 0.77927  0.16669  0.54395  Biso   1.000  C
  C97      1.0000 0.72792  0.19660  0.58036  Biso   1.000  C
  C98      1.0000 0.70374  0.29754  0.55284  Biso   1.000  C
  C99      1.0000 0.79618  0.23834  0.53848  Biso   1.000  C
  C100     1.0000 0.82631  0.23073  0.54423  Biso   1.000  C
  C101     1.0000 0.85948  0.22790  0.51574  Biso   1.000  C
  C102     1.0000 0.85970  0.23356  0.48240  Biso   1.000  C
  C103     1.0000 0.82788  0.24094  0.47880  Biso   1.000  C
  C104     1.0000 0.89349  0.23249  0.45083  Biso   1.000  C
  C105     1.0000 0.95968  0.29344  0.06058  Biso   1.000  C
  C106     1.0000 0.94890  0.29806  0.09260  Biso   1.000  C
  C107     1.0000 0.95070  0.26774  0.12404  Biso   1.000  C
  C108     1.0000 0.96278  0.23410  0.12086  Biso   1.000  C
  C109     1.0000 0.97287  0.23221  0.08719  Biso   1.000  C
  C110     1.0000 0.97358  0.96166  0.22878  Biso   1.000  C
  C111     1.0000 0.98460  0.07476  0.20598  Biso   1.000  C
  C112     1.0000 0.97735  0.10685  0.17795  Biso   1.000  C
  C113     1.0000 0.97361  0.10615  0.14931  Biso   1.000  C
  C114     1.0000 0.97643  0.07371  0.15085  Biso   1.000  C
  C115     1.0000 0.98372  0.04286  0.18006  Biso   1.000  C
  C116     1.0000 0.97611  0.14029  0.17751  Biso   1.000  C
  C117     1.0000 0.98249  0.16815  0.20265  Biso   1.000  C
  C118     1.0000 0.96846  0.20000  0.15130  Biso   1.000  C
  C119     1.0000 0.99182  0.16620  0.23056  Biso   1.000  C
  C120     1.0000 0.99848  0.13442  0.25958  Biso   1.000  C
  C121     1.0000 0.00763  0.13469  0.28417  Biso   1.000  C
  C122     1.0000 0.01009  0.16669  0.27927  Biso   1.000  C
  C123     1.0000 0.99512  0.19660  0.22792  Biso   1.000  C
  C124     1.0000 0.94588  0.29754  0.20374  Biso   1.000  C
  C125     1.0000 0.92700  0.23834  0.29618  Biso   1.000  C
  C126     1.0000 0.89873  0.23073  0.32631  Biso   1.000  C
  C127     1.0000 0.89688  0.22790  0.35948  Biso   1.000  C
  C128     1.0000 0.92434  0.23356  0.35970  Biso   1.000  C
  C129     1.0000 0.95238  0.24094  0.32788  Biso   1.000  C
  C130     1.0000 0.92319  0.23249  0.39349  Biso   1.000  C
  C131     1.0000 0.18630  0.06058  0.29344  Biso   1.000  C
  C132     1.0000 0.16044  0.09260  0.29806  Biso   1.000  C
  C133     1.0000 0.15752  0.12404  0.26774  Biso   1.000  C
  C134     1.0000 0.18226  0.12086  0.23410  Biso   1.000  C
  C135     1.0000 0.20773  0.08719  0.23221  Biso   1.000  C
  C136     1.0000 0.33598  0.22878  0.96166  Biso   1.000  C
  C137     1.0000 0.23466  0.20598  0.07476  Biso   1.000  C
  C138     1.0000 0.23785  0.17795  0.10685  Biso   1.000  C
  C139     1.0000 0.27093  0.14931  0.10615  Biso   1.000  C
  C140     1.0000 0.29901  0.15085  0.07371  Biso   1.000  C
  C141     1.0000 0.29336  0.18006  0.04286  Biso   1.000  C
  C142     1.0000 0.20609  0.17751  0.14029  Biso   1.000  C
  C143     1.0000 0.14671  0.20265  0.16815  Biso   1.000  C
  C144     1.0000 0.18024  0.15130  0.20000  Biso   1.000  C
  C145     1.0000 0.11142  0.23056  0.16620  Biso   1.000  C
  C146     1.0000 0.10752  0.25958  0.13442  Biso   1.000  C
  C147     1.0000 0.07351  0.28417  0.13469  Biso   1.000  C
  C148     1.0000 0.04395  0.27927  0.16669  Biso   1.000  C
  C149     1.0000 0.08036  0.22792  0.19660  Biso   1.000  C
  C150     1.0000 0.05284  0.20374  0.29754  Biso   1.000  C
  C151     1.0000 0.03848  0.29618  0.23834  Biso   1.000  C
  C152     1.0000 0.04423  0.32631  0.23073  Biso   1.000  C
  C153     1.0000 0.01574  0.35948  0.22790  Biso   1.000  C
  C154     1.0000 0.98240  0.35970  0.23356  Biso   1.000  C
  C155     1.0000 0.97880  0.32788  0.24094  Biso   1.000  C
  C156     1.0000 0.95083  0.39349  0.23249  Biso   1.000  C
  C157     1.0000 0.79344  0.45968  0.68630  Biso   1.000  C
  C158     1.0000 0.79806  0.44890  0.66044  Biso   1.000  C
  C159     1.0000 0.76774  0.45070  0.65752  Biso   1.000  C
  C160     1.0000 0.73410  0.46278  0.68226  Biso   1.000  C
  C161     1.0000 0.73221  0.47287  0.70773  Biso   1.000  C
  C162     1.0000 0.46166  0.47358  0.83598  Biso   1.000  C
  C163     1.0000 0.57476  0.48460  0.73466  Biso   1.000  C
  C164     1.0000 0.60685  0.47735  0.73785  Biso   1.000  C
  C165     1.0000 0.60615  0.47361  0.77093  Biso   1.000  C
  C166     1.0000 0.57371  0.47643  0.79901  Biso   1.000  C
  C167     1.0000 0.54286  0.48372  0.79336  Biso   1.000  C
  C168     1.0000 0.64029  0.47611  0.70609  Biso   1.000  C
  C169     1.0000 0.66815  0.48249  0.64671  Biso   1.000  C
  C170     1.0000 0.70000  0.46846  0.68024  Biso   1.000  C
  C171     1.0000 0.66620  0.49182  0.61142  Biso   1.000  C
  C172     1.0000 0.63442  0.49848  0.60752  Biso   1.000  C
  C173     1.0000 0.63469  0.50763  0.57351  Biso   1.000  C
  C174     1.0000 0.66669  0.51009  0.54395  Biso   1.000  C
  C175     1.0000 0.69660  0.49512  0.58036  Biso   1.000  C
  C176     1.0000 0.79754  0.44588  0.55284  Biso   1.000  C
  C177     1.0000 0.73834  0.42700  0.53848  Biso   1.000  C
  C178     1.0000 0.73073  0.39873  0.54423  Biso   1.000  C
  C179     1.0000 0.72790  0.39688  0.51574  Biso   1.000  C
  C180     1.0000 0.73356  0.42434  0.48240  Biso   1.000  C
  C181     1.0000 0.74094  0.45238  0.47880  Biso   1.000  C
  C182     1.0000 0.73249  0.42319  0.45083  Biso   1.000  C
  C183     1.0000 0.56058  0.68630  0.45968  Biso   1.000  C
  C184     1.0000 0.59260  0.66044  0.44890  Biso   1.000  C
  C185     1.0000 0.62404  0.65752  0.45070  Biso   1.000  C
  C186     1.0000 0.62086  0.68226  0.46278  Biso   1.000  C
  C187     1.0000 0.58719  0.70773  0.47287  Biso   1.000  C
  C188     1.0000 0.72878  0.83598  0.47358  Biso   1.000  C
  C189     1.0000 0.70598  0.73466  0.48460  Biso   1.000  C
  C190     1.0000 0.67795  0.73785  0.47735  Biso   1.000  C
  C191     1.0000 0.64931  0.77093  0.47361  Biso   1.000  C
  C192     1.0000 0.65085  0.79901  0.47643  Biso   1.000  C
  C193     1.0000 0.68006  0.79336  0.48372  Biso   1.000  C
  C194     1.0000 0.67751  0.70609  0.47611  Biso   1.000  C
  C195     1.0000 0.70265  0.64671  0.48249  Biso   1.000  C
  C196     1.0000 0.65130  0.68024  0.46846  Biso   1.000  C
  C197     1.0000 0.73056  0.61142  0.49182  Biso   1.000  C
  C198     1.0000 0.75958  0.60752  0.49848  Biso   1.000  C
  C199     1.0000 0.78417  0.57351  0.50763  Biso   1.000  C
  C200     1.0000 0.77927  0.54395  0.51009  Biso   1.000  C
  C201     1.0000 0.72792  0.58036  0.49512  Biso   1.000  C
  C202     1.0000 0.70374  0.55284  0.44588  Biso   1.000  C
  C203     1.0000 0.79618  0.53848  0.42700  Biso   1.000  C
  C204     1.0000 0.82631  0.54423  0.39873  Biso   1.000  C
  C205     1.0000 0.85948  0.51574  0.39688  Biso   1.000  C
  C206     1.0000 0.85970  0.48240  0.42434  Biso   1.000  C
  C207     1.0000 0.82788  0.47880  0.45238  Biso   1.000  C
  C208     1.0000 0.89349  0.45083  0.42319  Biso   1.000  C
  C209     1.0000 0.95968  0.06058  0.68630  Biso   1.000  C
  C210     1.0000 0.94890  0.09260  0.66044  Biso   1.000  C
  C211     1.0000 0.95070  0.12404  0.65752  Biso   1.000  C
  C212     1.0000 0.96278  0.12086  0.68226  Biso   1.000  C
  C213     1.0000 0.97287  0.08719  0.70773  Biso   1.000  C
  C214     1.0000 0.97358  0.22878  0.83598  Biso   1.000  C
  C215     1.0000 0.98460  0.20598  0.73466  Biso   1.000  C
  C216     1.0000 0.97735  0.17795  0.73785  Biso   1.000  C
  C217     1.0000 0.97361  0.14931  0.77093  Biso   1.000  C
  C218     1.0000 0.97643  0.15085  0.79901  Biso   1.000  C
  C219     1.0000 0.98372  0.18006  0.79336  Biso   1.000  C
  C220     1.0000 0.97611  0.17751  0.70609  Biso   1.000  C
  C221     1.0000 0.98249  0.20265  0.64671  Biso   1.000  C
  C222     1.0000 0.96846  0.15130  0.68024  Biso   1.000  C
  C223     1.0000 0.99182  0.23056  0.61142  Biso   1.000  C
  C224     1.0000 0.99848  0.25958  0.60752  Biso   1.000  C
  C225     1.0000 0.00763  0.28417  0.57351  Biso   1.000  C
  C226     1.0000 0.01009  0.27927  0.54395  Biso   1.000  C
  C227     1.0000 0.99512  0.22792  0.58036  Biso   1.000  C
  C228     1.0000 0.94588  0.20374  0.55284  Biso   1.000  C
  C229     1.0000 0.92700  0.29618  0.53848  Biso   1.000  C
  C230     1.0000 0.89873  0.32631  0.54423  Biso   1.000  C
  C231     1.0000 0.89688  0.35948  0.51574  Biso   1.000  C
  C232     1.0000 0.92434  0.35970  0.48240  Biso   1.000  C
  C233     1.0000 0.95238  0.32788  0.47880  Biso   1.000  C
  C234     1.0000 0.92319  0.39349  0.45083  Biso   1.000  C
  C235     1.0000 0.18630  0.29344  0.45968  Biso   1.000  C
  C236     1.0000 0.16044  0.29806  0.44890  Biso   1.000  C
  C237     1.0000 0.15752  0.26774  0.45070  Biso   1.000  C
  C238     1.0000 0.18226  0.23410  0.46278  Biso   1.000  C
  C239     1.0000 0.20773  0.23221  0.47287  Biso   1.000  C
  C240     1.0000 0.33598  0.96166  0.47358  Biso   1.000  C
  C241     1.0000 0.23466  0.07476  0.48460  Biso   1.000  C
  C242     1.0000 0.23785  0.10685  0.47735  Biso   1.000  C
  C243     1.0000 0.27093  0.10615  0.47361  Biso   1.000  C
  C244     1.0000 0.29901  0.07371  0.47643  Biso   1.000  C
  C245     1.0000 0.29336  0.04286  0.48372  Biso   1.000  C
  C246     1.0000 0.20609  0.14029  0.47611  Biso   1.000  C
  C247     1.0000 0.14671  0.16815  0.48249  Biso   1.000  C
  C248     1.0000 0.18024  0.20000  0.46846  Biso   1.000  C
  C249     1.0000 0.11142  0.16620  0.49182  Biso   1.000  C
  C250     1.0000 0.10752  0.13442  0.49848  Biso   1.000  C
  C251     1.0000 0.07351  0.13469  0.50763  Biso   1.000  C
  C252     1.0000 0.04395  0.16669  0.51009  Biso   1.000  C
  C253     1.0000 0.08036  0.19660  0.49512  Biso   1.000  C
  C254     1.0000 0.05284  0.29754  0.44588  Biso   1.000  C
  C255     1.0000 0.03848  0.23834  0.42700  Biso   1.000  C
  C256     1.0000 0.04423  0.23073  0.39873  Biso   1.000  C
  C257     1.0000 0.01574  0.22790  0.39688  Biso   1.000  C
  C258     1.0000 0.98240  0.23356  0.42434  Biso   1.000  C
  C259     1.0000 0.97880  0.24094  0.45238  Biso   1.000  C
  C260     1.0000 0.95083  0.23249  0.42319  Biso   1.000  C
  C261     1.0000 0.79344  0.68630  0.06058  Biso   1.000  C
  C262     1.0000 0.79806  0.66044  0.09260  Biso   1.000  C
  C263     1.0000 0.76774  0.65752  0.12404  Biso   1.000  C
  C264     1.0000 0.73410  0.68226  0.12086  Biso   1.000  C
  C265     1.0000 0.73221  0.70773  0.08719  Biso   1.000  C
  C266     1.0000 0.46166  0.83598  0.22878  Biso   1.000  C
  C267     1.0000 0.57476  0.73466  0.20598  Biso   1.000  C
  C268     1.0000 0.60685  0.73785  0.17795  Biso   1.000  C
  C269     1.0000 0.60615  0.77093  0.14931  Biso   1.000  C
  C270     1.0000 0.57371  0.79901  0.15085  Biso   1.000  C
  C271     1.0000 0.54286  0.79336  0.18006  Biso   1.000  C
  C272     1.0000 0.64029  0.70609  0.17751  Biso   1.000  C
  C273     1.0000 0.66815  0.64671  0.20265  Biso   1.000  C
  C274     1.0000 0.70000  0.68024  0.15130  Biso   1.000  C
  C275     1.0000 0.66620  0.61142  0.23056  Biso   1.000  C
  C276     1.0000 0.63442  0.60752  0.25958  Biso   1.000  C
  C277     1.0000 0.63469  0.57351  0.28417  Biso   1.000  C
  C278     1.0000 0.66669  0.54395  0.27927  Biso   1.000  C
  C279     1.0000 0.69660  0.58036  0.22792  Biso   1.000  C
  C280     1.0000 0.79754  0.55284  0.20374  Biso   1.000  C
  C281     1.0000 0.73834  0.53848  0.29618  Biso   1.000  C
  C282     1.0000 0.73073  0.54423  0.32631  Biso   1.000  C
  C283     1.0000 0.72790  0.51574  0.35948  Biso   1.000  C
  C284     1.0000 0.73356  0.48240  0.35970  Biso   1.000  C
  C285     1.0000 0.74094  0.47880  0.32788  Biso   1.000  C
  C286     1.0000 0.73249  0.45083  0.39349  Biso   1.000  C
  C287     1.0000 0.56058  0.45968  0.29344  Biso   1.000  C
  C288     1.0000 0.59260  0.44890  0.29806  Biso   1.000  C
  C289     1.0000 0.62404  0.45070  0.26774  Biso   1.000  C
  C290     1.0000 0.62086  0.46278  0.23410  Biso   1.000  C
  C291     1.0000 0.58719  0.47287  0.23221  Biso   1.000  C
  C292     1.0000 0.72878  0.47358  0.96166  Biso   1.000  C
  C293     1.0000 0.70598  0.48460  0.07476  Biso   1.000  C
  C294     1.0000 0.67795  0.47735  0.10685  Biso   1.000  C
  C295     1.0000 0.64931  0.47361  0.10615  Biso   1.000  C
  C296     1.0000 0.65085  0.47643  0.07371  Biso   1.000  C
  C297     1.0000 0.68006  0.48372  0.04286  Biso   1.000  C
  C298     1.0000 0.67751  0.47611  0.14029  Biso   1.000  C
  C299     1.0000 0.70265  0.48249  0.16815  Biso   1.000  C
  C300     1.0000 0.65130  0.46846  0.20000  Biso   1.000  C
  C301     1.0000 0.73056  0.49182  0.16620  Biso   1.000  C
  C302     1.0000 0.75958  0.49848  0.13442  Biso   1.000  C
  C303     1.0000 0.78417  0.50763  0.13469  Biso   1.000  C
  C304     1.0000 0.77927  0.51009  0.16669  Biso   1.000  C
  C305     1.0000 0.72792  0.49512  0.19660  Biso   1.000  C
  C306     1.0000 0.70374  0.44588  0.29754  Biso   1.000  C
  C307     1.0000 0.79618  0.42700  0.23834  Biso   1.000  C
  C308     1.0000 0.82631  0.39873  0.23073  Biso   1.000  C
  C309     1.0000 0.85948  0.39688  0.22790  Biso   1.000  C
  C310     1.0000 0.85970  0.42434  0.23356  Biso   1.000  C
  C311     1.0000 0.82788  0.45238  0.24094  Biso   1.000  C
  C312     1.0000 0.89349  0.42319  0.23249  Biso   1.000  C
  C313     1.0000 0.31370  0.04032  0.20656  Biso   1.000  C
  C314     1.0000 0.33956  0.05110  0.20194  Biso   1.000  C
  C315     1.0000 0.34248  0.04930  0.23226  Biso   1.000  C
  C316     1.0000 0.31774  0.03722  0.26590  Biso   1.000  C
  C317     1.0000 0.29227  0.02713  0.26779  Biso   1.000  C
  C318     1.0000 0.16402  0.02642  0.53834  Biso   1.000  C
  C319     1.0000 0.26534  0.01540  0.42524  Biso   1.000  C
  C320     1.0000 0.26215  0.02265  0.39315  Biso   1.000  C
  C321     1.0000 0.22907  0.02639  0.39385  Biso   1.000  C
  C322     1.0000 0.20099  0.02357  0.42629  Biso   1.000  C
  C323     1.0000 0.20664  0.01628  0.45714  Biso   1.000  C
  C324     1.0000 0.29391  0.02389  0.35971  Biso   1.000  C
  C325     1.0000 0.35329  0.01751  0.33185  Biso   1.000  C
  C326     1.0000 0.31976  0.03154  0.30000  Biso   1.000  C
  C327     1.0000 0.38858  0.00818  0.33380  Biso   1.000  C
  C328     1.0000 0.39248  0.00152  0.36558  Biso   1.000  C
  C329     1.0000 0.42649  0.99237  0.36531  Biso   1.000  C
  C330     1.0000 0.45605  0.98991  0.33331  Biso   1.000  C
  C331     1.0000 0.41964  0.00488  0.30340  Biso   1.000  C
  C332     1.0000 0.44716  0.05412  0.20246  Biso   1.000  C
  C333     1.0000 0.46152  0.07300  0.26166  Biso   1.000  C
  C334     1.0000 0.45577  0.10127  0.26927  Biso   1.000  C
  C335     1.0000 0.48426  0.10312  0.27210  Biso   1.000  C
  C336     1.0000 0.51760  0.07566  0.26644  Biso   1.000  C
  C337     1.0000 0.52120  0.04762  0.25906  Biso   1.000  C
  C338     1.0000 0.54917  0.07681  0.26751  Biso   1.000  C
  C339     1.0000 0.54032  0.81370  0.43942  Biso   1.000  C
  C340     1.0000 0.55110  0.83956  0.40740  Biso   1.000  C
  C341     1.0000 0.54930  0.84248  0.37596  Biso   1.000  C
  C342     1.0000 0.53722  0.81774  0.37914  Biso   1.000  C
  C343     1.0000 0.52713  0.79227  0.41281  Biso   1.000  C
  C344     1.0000 0.52642  0.66402  0.27122  Biso   1.000  C
  C345     1.0000 0.51540  0.76534  0.29402  Biso   1.000  C
  C346     1.0000 0.52265  0.76215  0.32205  Biso   1.000  C
  C347     1.0000 0.52639  0.72907  0.35069  Biso   1.000  C
  C348     1.0000 0.52357  0.70099  0.34915  Biso   1.000  C
  C349     1.0000 0.51628  0.70664  0.31994  Biso   1.000  C
  C350     1.0000 0.52389  0.79391  0.32249  Biso   1.000  C
  C351     1.0000 0.51751  0.85329  0.29735  Biso   1.000  C
  C352     1.0000 0.53154  0.81976  0.34870  Biso   1.000  C
  C353     1.0000 0.50818  0.88858  0.26944  Biso   1.000  C
  C354     1.0000 0.50152  0.89248  0.24042  Biso   1.000  C
  C355     1.0000 0.49237  0.92649  0.21583  Biso   1.000  C
  C356     1.0000 0.48991  0.95605  0.22073  Biso   1.000  C
  C357     1.0000 0.50488  0.91964  0.27208  Biso   1.000  C
  C358     1.0000 0.55412  0.94716  0.29626  Biso   1.000  C
  C359     1.0000 0.57300  0.96152  0.20382  Biso   1.000  C
  C360     1.0000 0.60127  0.95577  0.17369  Biso   1.000  C
  C361     1.0000 0.60312  0.98426  0.14052  Biso   1.000  C
  C362     1.0000 0.57566  0.01760  0.14030  Biso   1.000  C
  C363     1.0000 0.54762  0.02120  0.17212  Biso   1.000  C
  C364     1.0000 0.57681  0.04917  0.10651  Biso   1.000  C
  C365     1.0000 0.93942  0.20656  0.04032  Biso   1.000  C
  C366     1.0000 0.90740  0.20194  0.05110  Biso   1.000  C
  C367     1.0000 0.87596  0.23226  0.04930  Biso   1.000  C
  C368     1.0000 0.87914  0.26590  0.03722  Biso   1.000  C
  C369     1.0000 0.91281  0.26779  0.02713  Biso   1.000  C
  C370     1.0000 0.77122  0.53834  0.02642  Biso   1.000  C
  C371     1.0000 0.79402  0.42524  0.01540  Biso   1.000  C
  C372     1.0000 0.82205  0.39315  0.02265  Biso   1.000  C
  C373     1.0000 0.85069  0.39385  0.02639  Biso   1.000  C
  C374     1.0000 0.84915  0.42629  0.02357  Biso   1.000  C
  C375     1.0000 0.81994  0.45714  0.01628  Biso   1.000  C
  C376     1.0000 0.82249  0.35971  0.02389  Biso   1.000  C
  C377     1.0000 0.79735  0.33185  0.01751  Biso   1.000  C
  C378     1.0000 0.84870  0.30000  0.03154  Biso   1.000  C
  C379     1.0000 0.76944  0.33380  0.00818  Biso   1.000  C
  C380     1.0000 0.74042  0.36558  0.00152  Biso   1.000  C
  C381     1.0000 0.71583  0.36531  0.99237  Biso   1.000  C
  C382     1.0000 0.72073  0.33331  0.98991  Biso   1.000  C
  C383     1.0000 0.77208  0.30340  0.00488  Biso   1.000  C
  C384     1.0000 0.79626  0.20246  0.05412  Biso   1.000  C
  C385     1.0000 0.70382  0.26166  0.07300  Biso   1.000  C
  C386     1.0000 0.67369  0.26927  0.10127  Biso   1.000  C
  C387     1.0000 0.64052  0.27210  0.10312  Biso   1.000  C
  C388     1.0000 0.64030  0.26644  0.07566  Biso   1.000  C
  C389     1.0000 0.67212  0.25906  0.04762  Biso   1.000  C
  C390     1.0000 0.60651  0.26751  0.07681  Biso   1.000  C
  C391     1.0000 0.70656  0.43942  0.81370  Biso   1.000  C
  C392     1.0000 0.70194  0.40740  0.83956  Biso   1.000  C
  C393     1.0000 0.73226  0.37596  0.84248  Biso   1.000  C
  C394     1.0000 0.76590  0.37914  0.81774  Biso   1.000  C
  C395     1.0000 0.76779  0.41281  0.79227  Biso   1.000  C
  C396     1.0000 0.03834  0.27122  0.66402  Biso   1.000  C
  C397     1.0000 0.92524  0.29402  0.76534  Biso   1.000  C
  C398     1.0000 0.89315  0.32205  0.76215  Biso   1.000  C
  C399     1.0000 0.89385  0.35069  0.72907  Biso   1.000  C
  C400     1.0000 0.92629  0.34915  0.70099  Biso   1.000  C
  C401     1.0000 0.95714  0.31994  0.70664  Biso   1.000  C
  C402     1.0000 0.85971  0.32249  0.79391  Biso   1.000  C
  C403     1.0000 0.83185  0.29735  0.85329  Biso   1.000  C
  C404     1.0000 0.80000  0.34870  0.81976  Biso   1.000  C
  C405     1.0000 0.83380  0.26944  0.88858  Biso   1.000  C
  C406     1.0000 0.86558  0.24042  0.89248  Biso   1.000  C
  C407     1.0000 0.86531  0.21583  0.92649  Biso   1.000  C
  C408     1.0000 0.83331  0.22073  0.95605  Biso   1.000  C
  C409     1.0000 0.80340  0.27208  0.91964  Biso   1.000  C
  C410     1.0000 0.70246  0.29626  0.94716  Biso   1.000  C
  C411     1.0000 0.76166  0.20382  0.96152  Biso   1.000  C
  C412     1.0000 0.76927  0.17369  0.95577  Biso   1.000  C
  C413     1.0000 0.77210  0.14052  0.98426  Biso   1.000  C
  C414     1.0000 0.76644  0.14030  0.01760  Biso   1.000  C
  C415     1.0000 0.75906  0.17212  0.02120  Biso   1.000  C
  C416     1.0000 0.76751  0.10651  0.04917  Biso   1.000  C
  C417     1.0000 0.70656  0.04032  0.43942  Biso   1.000  C
  C418     1.0000 0.70194  0.05110  0.40740  Biso   1.000  C
  C419     1.0000 0.73226  0.04930  0.37596  Biso   1.000  C
  C420     1.0000 0.76590  0.03722  0.37914  Biso   1.000  C
  C421     1.0000 0.76779  0.02713  0.41281  Biso   1.000  C
  C422     1.0000 0.03834  0.02642  0.27122  Biso   1.000  C
  C423     1.0000 0.92524  0.01540  0.29402  Biso   1.000  C
  C424     1.0000 0.89315  0.02265  0.32205  Biso   1.000  C
  C425     1.0000 0.89385  0.02639  0.35069  Biso   1.000  C
  C426     1.0000 0.92629  0.02357  0.34915  Biso   1.000  C
  C427     1.0000 0.95714  0.01628  0.31994  Biso   1.000  C
  C428     1.0000 0.85971  0.02389  0.32249  Biso   1.000  C
  C429     1.0000 0.83185  0.01751  0.29735  Biso   1.000  C
  C430     1.0000 0.80000  0.03154  0.34870  Biso   1.000  C
  C431     1.0000 0.83380  0.00818  0.26944  Biso   1.000  C
  C432     1.0000 0.86558  0.00152  0.24042  Biso   1.000  C
  C433     1.0000 0.86531  0.99237  0.21583  Biso   1.000  C
  C434     1.0000 0.83331  0.98991  0.22073  Biso   1.000  C
  C435     1.0000 0.80340  0.00488  0.27208  Biso   1.000  C
  C436     1.0000 0.70246  0.05412  0.29626  Biso   1.000  C
  C437     1.0000 0.76166  0.07300  0.20382  Biso   1.000  C
  C438     1.0000 0.76927  0.10127  0.17369  Biso   1.000  C
  C439     1.0000 0.77210  0.10312  0.14052  Biso   1.000  C
  C440     1.0000 0.76644  0.07566  0.14030  Biso   1.000  C
  C441     1.0000 0.75906  0.04762  0.17212  Biso   1.000  C
  C442     1.0000 0.76751  0.07681  0.10651  Biso   1.000  C
  C443     1.0000 0.93942  0.81370  0.20656  Biso   1.000  C
  C444     1.0000 0.90740  0.83956  0.20194  Biso   1.000  C
  C445     1.0000 0.87596  0.84248  0.23226  Biso   1.000  C
  C446     1.0000 0.87914  0.81774  0.26590  Biso   1.000  C
  C447     1.0000 0.91281  0.79227  0.26779  Biso   1.000  C
  C448     1.0000 0.77122  0.66402  0.53834  Biso   1.000  C
  C449     1.0000 0.79402  0.76534  0.42524  Biso   1.000  C
  C450     1.0000 0.82205  0.76215  0.39315  Biso   1.000  C
  C451     1.0000 0.85069  0.72907  0.39385  Biso   1.000  C
  C452     1.0000 0.84915  0.70099  0.42629  Biso   1.000  C
  C453     1.0000 0.81994  0.70664  0.45714  Biso   1.000  C
  C454     1.0000 0.82249  0.79391  0.35971  Biso   1.000  C
  C455     1.0000 0.79735  0.85329  0.33185  Biso   1.000  C
  C456     1.0000 0.84870  0.81976  0.30000  Biso   1.000  C
  C457     1.0000 0.76944  0.88858  0.33380  Biso   1.000  C
  C458     1.0000 0.74042  0.89248  0.36558  Biso   1.000  C
  C459     1.0000 0.71583  0.92649  0.36531  Biso   1.000  C
  C460     1.0000 0.72073  0.95605  0.33331  Biso   1.000  C
  C461     1.0000 0.77208  0.91964  0.30340  Biso   1.000  C
  C462     1.0000 0.79626  0.94716  0.20246  Biso   1.000  C
  C463     1.0000 0.70382  0.96152  0.26166  Biso   1.000  C
  C464     1.0000 0.67369  0.95577  0.26927  Biso   1.000  C
  C465     1.0000 0.64052  0.98426  0.27210  Biso   1.000  C
  C466     1.0000 0.64030  0.01760  0.26644  Biso   1.000  C
  C467     1.0000 0.67212  0.02120  0.25906  Biso   1.000  C
  C468     1.0000 0.60651  0.04917  0.26751  Biso   1.000  C
  C469     1.0000 0.54032  0.20656  0.81370  Biso   1.000  C
  C470     1.0000 0.55110  0.20194  0.83956  Biso   1.000  C
  C471     1.0000 0.54930  0.23226  0.84248  Biso   1.000  C
  C472     1.0000 0.53722  0.26590  0.81774  Biso   1.000  C
  C473     1.0000 0.52713  0.26779  0.79227  Biso   1.000  C
  C474     1.0000 0.52642  0.53834  0.66402  Biso   1.000  C
  C475     1.0000 0.51540  0.42524  0.76534  Biso   1.000  C
  C476     1.0000 0.52265  0.39315  0.76215  Biso   1.000  C
  C477     1.0000 0.52639  0.39385  0.72907  Biso   1.000  C
  C478     1.0000 0.52357  0.42629  0.70099  Biso   1.000  C
  C479     1.0000 0.51628  0.45714  0.70664  Biso   1.000  C
  C480     1.0000 0.52389  0.35971  0.79391  Biso   1.000  C
  C481     1.0000 0.51751  0.33185  0.85329  Biso   1.000  C
  C482     1.0000 0.53154  0.30000  0.81976  Biso   1.000  C
  C483     1.0000 0.50818  0.33380  0.88858  Biso   1.000  C
  C484     1.0000 0.50152  0.36558  0.89248  Biso   1.000  C
  C485     1.0000 0.49237  0.36531  0.92649  Biso   1.000  C
  C486     1.0000 0.48991  0.33331  0.95605  Biso   1.000  C
  C487     1.0000 0.50488  0.30340  0.91964  Biso   1.000  C
  C488     1.0000 0.55412  0.20246  0.94716  Biso   1.000  C
  C489     1.0000 0.57300  0.26166  0.96152  Biso   1.000  C
  C490     1.0000 0.60127  0.26927  0.95577  Biso   1.000  C
  C491     1.0000 0.60312  0.27210  0.98426  Biso   1.000  C
  C492     1.0000 0.57566  0.26644  0.01760  Biso   1.000  C
  C493     1.0000 0.54762  0.25906  0.02120  Biso   1.000  C
  C494     1.0000 0.57681  0.26751  0.04917  Biso   1.000  C
  C495     1.0000 0.31370  0.43942  0.04032  Biso   1.000  C
  C496     1.0000 0.33956  0.40740  0.05110  Biso   1.000  C
  C497     1.0000 0.34248  0.37596  0.04930  Biso   1.000  C
  C498     1.0000 0.31774  0.37914  0.03722  Biso   1.000  C
  C499     1.0000 0.29227  0.41281  0.02713  Biso   1.000  C
  C500     1.0000 0.16402  0.27122  0.02642  Biso   1.000  C
  C501     1.0000 0.26534  0.29402  0.01540  Biso   1.000  C
  C502     1.0000 0.26215  0.32205  0.02265  Biso   1.000  C
  C503     1.0000 0.22907  0.35069  0.02639  Biso   1.000  C
  C504     1.0000 0.20099  0.34915  0.02357  Biso   1.000  C
  C505     1.0000 0.20664  0.31994  0.01628  Biso   1.000  C
  C506     1.0000 0.29391  0.32249  0.02389  Biso   1.000  C
  C507     1.0000 0.35329  0.29735  0.01751  Biso   1.000  C
  C508     1.0000 0.31976  0.34870  0.03154  Biso   1.000  C
  C509     1.0000 0.38858  0.26944  0.00818  Biso   1.000  C
  C510     1.0000 0.39248  0.24042  0.00152  Biso   1.000  C
  C511     1.0000 0.42649  0.21583  0.99237  Biso   1.000  C
  C512     1.0000 0.45605  0.22073  0.98991  Biso   1.000  C
  C513     1.0000 0.41964  0.27208  0.00488  Biso   1.000  C
  C514     1.0000 0.44716  0.29626  0.05412  Biso   1.000  C
  C515     1.0000 0.46152  0.20382  0.07300  Biso   1.000  C
  C516     1.0000 0.45577  0.17369  0.10127  Biso   1.000  C
  C517     1.0000 0.48426  0.14052  0.10312  Biso   1.000  C
  C518     1.0000 0.51760  0.14030  0.07566  Biso   1.000  C
  C519     1.0000 0.52120  0.17212  0.04762  Biso   1.000  C
  C520     1.0000 0.54917  0.10651  0.07681  Biso   1.000  C
  C521     1.0000 0.93942  0.04032  0.81370  Biso   1.000  C
  C522     1.0000 0.90740  0.05110  0.83956  Biso   1.000  C
  C523     1.0000 0.87596  0.04930  0.84248  Biso   1.000  C
  C524     1.0000 0.87914  0.03722  0.81774  Biso   1.000  C
  C525     1.0000 0.91281  0.02713  0.79227  Biso   1.000  C
  C526     1.0000 0.77122  0.02642  0.66402  Biso   1.000  C
  C527     1.0000 0.79402  0.01540  0.76534  Biso   1.000  C
  C528     1.0000 0.82205  0.02265  0.76215  Biso   1.000  C
  C529     1.0000 0.85069  0.02639  0.72907  Biso   1.000  C
  C530     1.0000 0.84915  0.02357  0.70099  Biso   1.000  C
  C531     1.0000 0.81994  0.01628  0.70664  Biso   1.000  C
  C532     1.0000 0.82249  0.02389  0.79391  Biso   1.000  C
  C533     1.0000 0.79735  0.01751  0.85329  Biso   1.000  C
  C534     1.0000 0.84870  0.03154  0.81976  Biso   1.000  C
  C535     1.0000 0.76944  0.00818  0.88858  Biso   1.000  C
  C536     1.0000 0.74042  0.00152  0.89248  Biso   1.000  C
  C537     1.0000 0.71583  0.99237  0.92649  Biso   1.000  C
  C538     1.0000 0.72073  0.98991  0.95605  Biso   1.000  C
  C539     1.0000 0.77208  0.00488  0.91964  Biso   1.000  C
  C540     1.0000 0.79626  0.05412  0.94716  Biso   1.000  C
  C541     1.0000 0.70382  0.07300  0.96152  Biso   1.000  C
  C542     1.0000 0.67369  0.10127  0.95577  Biso   1.000  C
  C543     1.0000 0.64052  0.10312  0.98426  Biso   1.000  C
  C544     1.0000 0.64030  0.07566  0.01760  Biso   1.000  C
  C545     1.0000 0.67212  0.04762  0.02120  Biso   1.000  C
  C546     1.0000 0.60651  0.07681  0.04917  Biso   1.000  C
  C547     1.0000 0.70656  0.81370  0.04032  Biso   1.000  C
  C548     1.0000 0.70194  0.83956  0.05110  Biso   1.000  C
  C549     1.0000 0.73226  0.84248  0.04930  Biso   1.000  C
  C550     1.0000 0.76590  0.81774  0.03722  Biso   1.000  C
  C551     1.0000 0.76779  0.79227  0.02713  Biso   1.000  C
  C552     1.0000 0.03834  0.66402  0.02642  Biso   1.000  C
  C553     1.0000 0.92524  0.76534  0.01540  Biso   1.000  C
  C554     1.0000 0.89315  0.76215  0.02265  Biso   1.000  C
  C555     1.0000 0.89385  0.72907  0.02639  Biso   1.000  C
  C556     1.0000 0.92629  0.70099  0.02357  Biso   1.000  C
  C557     1.0000 0.95714  0.70664  0.01628  Biso   1.000  C
  C558     1.0000 0.85971  0.79391  0.02389  Biso   1.000  C
  C559     1.0000 0.83185  0.85329  0.01751  Biso   1.000  C
  C560     1.0000 0.80000  0.81976  0.03154  Biso   1.000  C
  C561     1.0000 0.83380  0.88858  0.00818  Biso   1.000  C
  C562     1.0000 0.86558  0.89248  0.00152  Biso   1.000  C
  C563     1.0000 0.86531  0.92649  0.99237  Biso   1.000  C
  C564     1.0000 0.83331  0.95605  0.98991  Biso   1.000  C
  C565     1.0000 0.80340  0.91964  0.00488  Biso   1.000  C
  C566     1.0000 0.70246  0.94716  0.05412  Biso   1.000  C
  C567     1.0000 0.76166  0.96152  0.07300  Biso   1.000  C
  C568     1.0000 0.76927  0.95577  0.10127  Biso   1.000  C
  C569     1.0000 0.77210  0.98426  0.10312  Biso   1.000  C
  C570     1.0000 0.76644  0.01760  0.07566  Biso   1.000  C
  C571     1.0000 0.75906  0.02120  0.04762  Biso   1.000  C
  C572     1.0000 0.76751  0.04917  0.07681  Biso   1.000  C
  C573     1.0000 0.31370  0.20656  0.43942  Biso   1.000  C
  C574     1.0000 0.33956  0.20194  0.40740  Biso   1.000  C
  C575     1.0000 0.34248  0.23226  0.37596  Biso   1.000  C
  C576     1.0000 0.31774  0.26590  0.37914  Biso   1.000  C
  C577     1.0000 0.29227  0.26779  0.41281  Biso   1.000  C
  C578     1.0000 0.16402  0.53834  0.27122  Biso   1.000  C
  C579     1.0000 0.26534  0.42524  0.29402  Biso   1.000  C
  C580     1.0000 0.26215  0.39315  0.32205  Biso   1.000  C
  C581     1.0000 0.22907  0.39385  0.35069  Biso   1.000  C
  C582     1.0000 0.20099  0.42629  0.34915  Biso   1.000  C
  C583     1.0000 0.20664  0.45714  0.31994  Biso   1.000  C
  C584     1.0000 0.29391  0.35971  0.32249  Biso   1.000  C
  C585     1.0000 0.35329  0.33185  0.29735  Biso   1.000  C
  C586     1.0000 0.31976  0.30000  0.34870  Biso   1.000  C
  C587     1.0000 0.38858  0.33380  0.26944  Biso   1.000  C
  C588     1.0000 0.39248  0.36558  0.24042  Biso   1.000  C
  C589     1.0000 0.42649  0.36531  0.21583  Biso   1.000  C
  C590     1.0000 0.45605  0.33331  0.22073  Biso   1.000  C
  C591     1.0000 0.41964  0.30340  0.27208  Biso   1.000  C
  C592     1.0000 0.44716  0.20246  0.29626  Biso   1.000  C
  C593     1.0000 0.46152  0.26166  0.20382  Biso   1.000  C
  C594     1.0000 0.45577  0.26927  0.17369  Biso   1.000  C
  C595     1.0000 0.48426  0.27210  0.14052  Biso   1.000  C
  C596     1.0000 0.51760  0.26644  0.14030  Biso   1.000  C
  C597     1.0000 0.52120  0.25906  0.17212  Biso   1.000  C
  C598     1.0000 0.54917  0.26751  0.10651  Biso   1.000  C
  C599     1.0000 0.54032  0.43942  0.20656  Biso   1.000  C
  C600     1.0000 0.55110  0.40740  0.20194  Biso   1.000  C
  C601     1.0000 0.54930  0.37596  0.23226  Biso   1.000  C
  C602     1.0000 0.53722  0.37914  0.26590  Biso   1.000  C
  C603     1.0000 0.52713  0.41281  0.26779  Biso   1.000  C
  C604     1.0000 0.52642  0.27122  0.53834  Biso   1.000  C
  C605     1.0000 0.51540  0.29402  0.42524  Biso   1.000  C
  C606     1.0000 0.52265  0.32205  0.39315  Biso   1.000  C
  C607     1.0000 0.52639  0.35069  0.39385  Biso   1.000  C
  C608     1.0000 0.52357  0.34915  0.42629  Biso   1.000  C
  C609     1.0000 0.51628  0.31994  0.45714  Biso   1.000  C
  C610     1.0000 0.52389  0.32249  0.35971  Biso   1.000  C
  C611     1.0000 0.51751  0.29735  0.33185  Biso   1.000  C
  C612     1.0000 0.53154  0.34870  0.30000  Biso   1.000  C
  C613     1.0000 0.50818  0.26944  0.33380  Biso   1.000  C
  C614     1.0000 0.50152  0.24042  0.36558  Biso   1.000  C
  C615     1.0000 0.49237  0.21583  0.36531  Biso   1.000  C
  C616     1.0000 0.48991  0.22073  0.33331  Biso   1.000  C
  C617     1.0000 0.50488  0.27208  0.30340  Biso   1.000  C
  C618     1.0000 0.55412  0.29626  0.20246  Biso   1.000  C
  C619     1.0000 0.57300  0.20382  0.26166  Biso   1.000  C
  C620     1.0000 0.60127  0.17369  0.26927  Biso   1.000  C
  C621     1.0000 0.60312  0.14052  0.27210  Biso   1.000  C
  C622     1.0000 0.57566  0.14030  0.26644  Biso   1.000  C
  C623     1.0000 0.54762  0.17212  0.25906  Biso   1.000  C
  C624     1.0000 0.57681  0.10651  0.26751  Biso   1.000  C
  C625     1.0000 0.04032  0.31370  0.70656  Biso   1.000  C
  C626     1.0000 0.05110  0.33956  0.70194  Biso   1.000  C
  C627     1.0000 0.04930  0.34248  0.73226  Biso   1.000  C
  C628     1.0000 0.03722  0.31774  0.76590  Biso   1.000  C
  C629     1.0000 0.02713  0.29227  0.76779  Biso   1.000  C
  C630     1.0000 0.02642  0.16402  0.03834  Biso   1.000  C
  C631     1.0000 0.01540  0.26534  0.92524  Biso   1.000  C
  C632     1.0000 0.02265  0.26215  0.89315  Biso   1.000  C
  C633     1.0000 0.02639  0.22907  0.89385  Biso   1.000  C
  C634     1.0000 0.02357  0.20099  0.92629  Biso   1.000  C
  C635     1.0000 0.01628  0.20664  0.95714  Biso   1.000  C
  C636     1.0000 0.02389  0.29391  0.85971  Biso   1.000  C
  C637     1.0000 0.01751  0.35329  0.83185  Biso   1.000  C
  C638     1.0000 0.03154  0.31976  0.80000  Biso   1.000  C
  C639     1.0000 0.00818  0.38858  0.83380  Biso   1.000  C
  C640     1.0000 0.00152  0.39248  0.86558  Biso   1.000  C
  C641     1.0000 0.99237  0.42649  0.86531  Biso   1.000  C
  C642     1.0000 0.98991  0.45605  0.83331  Biso   1.000  C
  C643     1.0000 0.00488  0.41964  0.80340  Biso   1.000  C
  C644     1.0000 0.05412  0.44716  0.70246  Biso   1.000  C
  C645     1.0000 0.07300  0.46152  0.76166  Biso   1.000  C
  C646     1.0000 0.10127  0.45577  0.76927  Biso   1.000  C
  C647     1.0000 0.10312  0.48426  0.77210  Biso   1.000  C
  C648     1.0000 0.07566  0.51760  0.76644  Biso   1.000  C
  C649     1.0000 0.04762  0.52120  0.75906  Biso   1.000  C
  C650     1.0000 0.07681  0.54917  0.76751  Biso   1.000  C
  C651     1.0000 0.81370  0.54032  0.93942  Biso   1.000  C
  C652     1.0000 0.83956  0.55110  0.90740  Biso   1.000  C
  C653     1.0000 0.84248  0.54930  0.87596  Biso   1.000  C
  C654     1.0000 0.81774  0.53722  0.87914  Biso   1.000  C
  C655     1.0000 0.79227  0.52713  0.91281  Biso   1.000  C
  C656     1.0000 0.66402  0.52642  0.77122  Biso   1.000  C
  C657     1.0000 0.76534  0.51540  0.79402  Biso   1.000  C
  C658     1.0000 0.76215  0.52265  0.82205  Biso   1.000  C
  C659     1.0000 0.72907  0.52639  0.85069  Biso   1.000  C
  C660     1.0000 0.70099  0.52357  0.84915  Biso   1.000  C
  C661     1.0000 0.70664  0.51628  0.81994  Biso   1.000  C
  C662     1.0000 0.79391  0.52389  0.82249  Biso   1.000  C
  C663     1.0000 0.85329  0.51751  0.79735  Biso   1.000  C
  C664     1.0000 0.81976  0.53154  0.84870  Biso   1.000  C
  C665     1.0000 0.88858  0.50818  0.76944  Biso   1.000  C
  C666     1.0000 0.89248  0.50152  0.74042  Biso   1.000  C
  C667     1.0000 0.92649  0.49237  0.71583  Biso   1.000  C
  C668     1.0000 0.95605  0.48991  0.72073  Biso   1.000  C
  C669     1.0000 0.91964  0.50488  0.77208  Biso   1.000  C
  C670     1.0000 0.94716  0.55412  0.79626  Biso   1.000  C
  C671     1.0000 0.96152  0.57300  0.70382  Biso   1.000  C
  C672     1.0000 0.95577  0.60127  0.67369  Biso   1.000  C
  C673     1.0000 0.98426  0.60312  0.64052  Biso   1.000  C
  C674     1.0000 0.01760  0.57566  0.64030  Biso   1.000  C
  C675     1.0000 0.02120  0.54762  0.67212  Biso   1.000  C
  C676     1.0000 0.04917  0.57681  0.60651  Biso   1.000  C
  C677     1.0000 0.20656  0.93942  0.54032  Biso   1.000  C
  C678     1.0000 0.20194  0.90740  0.55110  Biso   1.000  C
  C679     1.0000 0.23226  0.87596  0.54930  Biso   1.000  C
  C680     1.0000 0.26590  0.87914  0.53722  Biso   1.000  C
  C681     1.0000 0.26779  0.91281  0.52713  Biso   1.000  C
  C682     1.0000 0.53834  0.77122  0.52642  Biso   1.000  C
  C683     1.0000 0.42524  0.79402  0.51540  Biso   1.000  C
  C684     1.0000 0.39315  0.82205  0.52265  Biso   1.000  C
  C685     1.0000 0.39385  0.85069  0.52639  Biso   1.000  C
  C686     1.0000 0.42629  0.84915  0.52357  Biso   1.000  C
  C687     1.0000 0.45714  0.81994  0.51628  Biso   1.000  C
  C688     1.0000 0.35971  0.82249  0.52389  Biso   1.000  C
  C689     1.0000 0.33185  0.79735  0.51751  Biso   1.000  C
  C690     1.0000 0.30000  0.84870  0.53154  Biso   1.000  C
  C691     1.0000 0.33380  0.76944  0.50818  Biso   1.000  C
  C692     1.0000 0.36558  0.74042  0.50152  Biso   1.000  C
  C693     1.0000 0.36531  0.71583  0.49237  Biso   1.000  C
  C694     1.0000 0.33331  0.72073  0.48991  Biso   1.000  C
  C695     1.0000 0.30340  0.77208  0.50488  Biso   1.000  C
  C696     1.0000 0.20246  0.79626  0.55412  Biso   1.000  C
  C697     1.0000 0.26166  0.70382  0.57300  Biso   1.000  C
  C698     1.0000 0.26927  0.67369  0.60127  Biso   1.000  C
  C699     1.0000 0.27210  0.64052  0.60312  Biso   1.000  C
  C700     1.0000 0.26644  0.64030  0.57566  Biso   1.000  C
  C701     1.0000 0.25906  0.67212  0.54762  Biso   1.000  C
  C702     1.0000 0.26751  0.60651  0.57681  Biso   1.000  C
  C703     1.0000 0.43942  0.70656  0.31370  Biso   1.000  C
  C704     1.0000 0.40740  0.70194  0.33956  Biso   1.000  C
  C705     1.0000 0.37596  0.73226  0.34248  Biso   1.000  C
  C706     1.0000 0.37914  0.76590  0.31774  Biso   1.000  C
  C707     1.0000 0.41281  0.76779  0.29227  Biso   1.000  C
  C708     1.0000 0.27122  0.03834  0.16402  Biso   1.000  C
  C709     1.0000 0.29402  0.92524  0.26534  Biso   1.000  C
  C710     1.0000 0.32205  0.89315  0.26215  Biso   1.000  C
  C711     1.0000 0.35069  0.89385  0.22907  Biso   1.000  C
  C712     1.0000 0.34915  0.92629  0.20099  Biso   1.000  C
  C713     1.0000 0.31994  0.95714  0.20664  Biso   1.000  C
  C714     1.0000 0.32249  0.85971  0.29391  Biso   1.000  C
  C715     1.0000 0.29735  0.83185  0.35329  Biso   1.000  C
  C716     1.0000 0.34870  0.80000  0.31976  Biso   1.000  C
  C717     1.0000 0.26944  0.83380  0.38858  Biso   1.000  C
  C718     1.0000 0.24042  0.86558  0.39248  Biso   1.000  C
  C719     1.0000 0.21583  0.86531  0.42649  Biso   1.000  C
  C720     1.0000 0.22073  0.83331  0.45605  Biso   1.000  C
  C721     1.0000 0.27208  0.80340  0.41964  Biso   1.000  C
  C722     1.0000 0.29626  0.70246  0.44716  Biso   1.000  C
  C723     1.0000 0.20382  0.76166  0.46152  Biso   1.000  C
  C724     1.0000 0.17369  0.76927  0.45577  Biso   1.000  C
  C725     1.0000 0.14052  0.77210  0.48426  Biso   1.000  C
  C726     1.0000 0.14030  0.76644  0.51760  Biso   1.000  C
  C727     1.0000 0.17212  0.75906  0.52120  Biso   1.000  C
  C728     1.0000 0.10651  0.76751  0.54917  Biso   1.000  C
  C729     1.0000 0.04032  0.70656  0.93942  Biso   1.000  C
  C730     1.0000 0.05110  0.70194  0.90740  Biso   1.000  C
  C731     1.0000 0.04930  0.73226  0.87596  Biso   1.000  C
  C732     1.0000 0.03722  0.76590  0.87914  Biso   1.000  C
  C733     1.0000 0.02713  0.76779  0.91281  Biso   1.000  C
  C734     1.0000 0.02642  0.03834  0.77122  Biso   1.000  C
  C735     1.0000 0.01540  0.92524  0.79402  Biso   1.000  C
  C736     1.0000 0.02265  0.89315  0.82205  Biso   1.000  C
  C737     1.0000 0.02639  0.89385  0.85069  Biso   1.000  C
  C738     1.0000 0.02357  0.92629  0.84915  Biso   1.000  C
  C739     1.0000 0.01628  0.95714  0.81994  Biso   1.000  C
  C740     1.0000 0.02389  0.85971  0.82249  Biso   1.000  C
  C741     1.0000 0.01751  0.83185  0.79735  Biso   1.000  C
  C742     1.0000 0.03154  0.80000  0.84870  Biso   1.000  C
  C743     1.0000 0.00818  0.83380  0.76944  Biso   1.000  C
  C744     1.0000 0.00152  0.86558  0.74042  Biso   1.000  C
  C745     1.0000 0.99237  0.86531  0.71583  Biso   1.000  C
  C746     1.0000 0.98991  0.83331  0.72073  Biso   1.000  C
  C747     1.0000 0.00488  0.80340  0.77208  Biso   1.000  C
  C748     1.0000 0.05412  0.70246  0.79626  Biso   1.000  C
  C749     1.0000 0.07300  0.76166  0.70382  Biso   1.000  C
  C750     1.0000 0.10127  0.76927  0.67369  Biso   1.000  C
  C751     1.0000 0.10312  0.77210  0.64052  Biso   1.000  C
  C752     1.0000 0.07566  0.76644  0.64030  Biso   1.000  C
  C753     1.0000 0.04762  0.75906  0.67212  Biso   1.000  C
  C754     1.0000 0.07681  0.76751  0.60651  Biso   1.000  C
  C755     1.0000 0.81370  0.93942  0.70656  Biso   1.000  C
  C756     1.0000 0.83956  0.90740  0.70194  Biso   1.000  C
  C757     1.0000 0.84248  0.87596  0.73226  Biso   1.000  C
  C758     1.0000 0.81774  0.87914  0.76590  Biso   1.000  C
  C759     1.0000 0.79227  0.91281  0.76779  Biso   1.000  C
  C760     1.0000 0.66402  0.77122  0.03834  Biso   1.000  C
  C761     1.0000 0.76534  0.79402  0.92524  Biso   1.000  C
  C762     1.0000 0.76215  0.82205  0.89315  Biso   1.000  C
  C763     1.0000 0.72907  0.85069  0.89385  Biso   1.000  C
  C764     1.0000 0.70099  0.84915  0.92629  Biso   1.000  C
  C765     1.0000 0.70664  0.81994  0.95714  Biso   1.000  C
  C766     1.0000 0.79391  0.82249  0.85971  Biso   1.000  C
  C767     1.0000 0.85329  0.79735  0.83185  Biso   1.000  C
  C768     1.0000 0.81976  0.84870  0.80000  Biso   1.000  C
  C769     1.0000 0.88858  0.76944  0.83380  Biso   1.000  C
  C770     1.0000 0.89248  0.74042  0.86558  Biso   1.000  C
  C771     1.0000 0.92649  0.71583  0.86531  Biso   1.000  C
  C772     1.0000 0.95605  0.72073  0.83331  Biso   1.000  C
  C773     1.0000 0.91964  0.77208  0.80340  Biso   1.000  C
  C774     1.0000 0.94716  0.79626  0.70246  Biso   1.000  C
  C775     1.0000 0.96152  0.70382  0.76166  Biso   1.000  C
  C776     1.0000 0.95577  0.67369  0.76927  Biso   1.000  C
  C777     1.0000 0.98426  0.64052  0.77210  Biso   1.000  C
  C778     1.0000 0.01760  0.64030  0.76644  Biso   1.000  C
  C779     1.0000 0.02120  0.67212  0.75906  Biso   1.000  C
  C780     1.0000 0.04917  0.60651  0.76751  Biso   1.000  C
  C781     1.0000 0.20656  0.54032  0.31370  Biso   1.000  C
  C782     1.0000 0.20194  0.55110  0.33956  Biso   1.000  C
  C783     1.0000 0.23226  0.54930  0.34248  Biso   1.000  C
  C784     1.0000 0.26590  0.53722  0.31774  Biso   1.000  C
  C785     1.0000 0.26779  0.52713  0.29227  Biso   1.000  C
  C786     1.0000 0.53834  0.52642  0.16402  Biso   1.000  C
  C787     1.0000 0.42524  0.51540  0.26534  Biso   1.000  C
  C788     1.0000 0.39315  0.52265  0.26215  Biso   1.000  C
  C789     1.0000 0.39385  0.52639  0.22907  Biso   1.000  C
  C790     1.0000 0.42629  0.52357  0.20099  Biso   1.000  C
  C791     1.0000 0.45714  0.51628  0.20664  Biso   1.000  C
  C792     1.0000 0.35971  0.52389  0.29391  Biso   1.000  C
  C793     1.0000 0.33185  0.51751  0.35329  Biso   1.000  C
  C794     1.0000 0.30000  0.53154  0.31976  Biso   1.000  C
  C795     1.0000 0.33380  0.50818  0.38858  Biso   1.000  C
  C796     1.0000 0.36558  0.50152  0.39248  Biso   1.000  C
  C797     1.0000 0.36531  0.49237  0.42649  Biso   1.000  C
  C798     1.0000 0.33331  0.48991  0.45605  Biso   1.000  C
  C799     1.0000 0.30340  0.50488  0.41964  Biso   1.000  C
  C800     1.0000 0.20246  0.55412  0.44716  Biso   1.000  C
  C801     1.0000 0.26166  0.57300  0.46152  Biso   1.000  C
  C802     1.0000 0.26927  0.60127  0.45577  Biso   1.000  C
  C803     1.0000 0.27210  0.60312  0.48426  Biso   1.000  C
  C804     1.0000 0.26644  0.57566  0.51760  Biso   1.000  C
  C805     1.0000 0.25906  0.54762  0.52120  Biso   1.000  C
  C806     1.0000 0.26751  0.57681  0.54917  Biso   1.000  C
  C807     1.0000 0.43942  0.31370  0.54032  Biso   1.000  C
  C808     1.0000 0.40740  0.33956  0.55110  Biso   1.000  C
  C809     1.0000 0.37596  0.34248  0.54930  Biso   1.000  C
  C810     1.0000 0.37914  0.31774  0.53722  Biso   1.000  C
  C811     1.0000 0.41281  0.29227  0.52713  Biso   1.000  C
  C812     1.0000 0.27122  0.16402  0.52642  Biso   1.000  C
  C813     1.0000 0.29402  0.26534  0.51540  Biso   1.000  C
  C814     1.0000 0.32205  0.26215  0.52265  Biso   1.000  C
  C815     1.0000 0.35069  0.22907  0.52639  Biso   1.000  C
  C816     1.0000 0.34915  0.20099  0.52357  Biso   1.000  C
  C817     1.0000 0.31994  0.20664  0.51628  Biso   1.000  C
  C818     1.0000 0.32249  0.29391  0.52389  Biso   1.000  C
  C819     1.0000 0.29735  0.35329  0.51751  Biso   1.000  C
  C820     1.0000 0.34870  0.31976  0.53154  Biso   1.000  C
  C821     1.0000 0.26944  0.38858  0.50818  Biso   1.000  C
  C822     1.0000 0.24042  0.39248  0.50152  Biso   1.000  C
  C823     1.0000 0.21583  0.42649  0.49237  Biso   1.000  C
  C824     1.0000 0.22073  0.45605  0.48991  Biso   1.000  C
  C825     1.0000 0.27208  0.41964  0.50488  Biso   1.000  C
  C826     1.0000 0.29626  0.44716  0.55412  Biso   1.000  C
  C827     1.0000 0.20382  0.46152  0.57300  Biso   1.000  C
  C828     1.0000 0.17369  0.45577  0.60127  Biso   1.000  C
  C829     1.0000 0.14052  0.48426  0.60312  Biso   1.000  C
  C830     1.0000 0.14030  0.51760  0.57566  Biso   1.000  C
  C831     1.0000 0.17212  0.52120  0.54762  Biso   1.000  C
  C832     1.0000 0.10651  0.54917  0.57681  Biso   1.000  C
  C833     1.0000 0.04032  0.93942  0.31370  Biso   1.000  C
  C834     1.0000 0.05110  0.90740  0.33956  Biso   1.000  C
  C835     1.0000 0.04930  0.87596  0.34248  Biso   1.000  C
  C836     1.0000 0.03722  0.87914  0.31774  Biso   1.000  C
  C837     1.0000 0.02713  0.91281  0.29227  Biso   1.000  C
  C838     1.0000 0.02642  0.77122  0.16402  Biso   1.000  C
  C839     1.0000 0.01540  0.79402  0.26534  Biso   1.000  C
  C840     1.0000 0.02265  0.82205  0.26215  Biso   1.000  C
  C841     1.0000 0.02639  0.85069  0.22907  Biso   1.000  C
  C842     1.0000 0.02357  0.84915  0.20099  Biso   1.000  C
  C843     1.0000 0.01628  0.81994  0.20664  Biso   1.000  C
  C844     1.0000 0.02389  0.82249  0.29391  Biso   1.000  C
  C845     1.0000 0.01751  0.79735  0.35329  Biso   1.000  C
  C846     1.0000 0.03154  0.84870  0.31976  Biso   1.000  C
  C847     1.0000 0.00818  0.76944  0.38858  Biso   1.000  C
  C848     1.0000 0.00152  0.74042  0.39248  Biso   1.000  C
  C849     1.0000 0.99237  0.71583  0.42649  Biso   1.000  C
  C850     1.0000 0.98991  0.72073  0.45605  Biso   1.000  C
  C851     1.0000 0.00488  0.77208  0.41964  Biso   1.000  C
  C852     1.0000 0.05412  0.79626  0.44716  Biso   1.000  C
  C853     1.0000 0.07300  0.70382  0.46152  Biso   1.000  C
  C854     1.0000 0.10127  0.67369  0.45577  Biso   1.000  C
  C855     1.0000 0.10312  0.64052  0.48426  Biso   1.000  C
  C856     1.0000 0.07566  0.64030  0.51760  Biso   1.000  C
  C857     1.0000 0.04762  0.67212  0.52120  Biso   1.000  C
  C858     1.0000 0.07681  0.60651  0.54917  Biso   1.000  C
  C859     1.0000 0.81370  0.70656  0.54032  Biso   1.000  C
  C860     1.0000 0.83956  0.70194  0.55110  Biso   1.000  C
  C861     1.0000 0.84248  0.73226  0.54930  Biso   1.000  C
  C862     1.0000 0.81774  0.76590  0.53722  Biso   1.000  C
  C863     1.0000 0.79227  0.76779  0.52713  Biso   1.000  C
  C864     1.0000 0.66402  0.03834  0.52642  Biso   1.000  C
  C865     1.0000 0.76534  0.92524  0.51540  Biso   1.000  C
  C866     1.0000 0.76215  0.89315  0.52265  Biso   1.000  C
  C867     1.0000 0.72907  0.89385  0.52639  Biso   1.000  C
  C868     1.0000 0.70099  0.92629  0.52357  Biso   1.000  C
  C869     1.0000 0.70664  0.95714  0.51628  Biso   1.000  C
  C870     1.0000 0.79391  0.85971  0.52389  Biso   1.000  C
  C871     1.0000 0.85329  0.83185  0.51751  Biso   1.000  C
  C872     1.0000 0.81976  0.80000  0.53154  Biso   1.000  C
  C873     1.0000 0.88858  0.83380  0.50818  Biso   1.000  C
  C874     1.0000 0.89248  0.86558  0.50152  Biso   1.000  C
  C875     1.0000 0.92649  0.86531  0.49237  Biso   1.000  C
  C876     1.0000 0.95605  0.83331  0.48991  Biso   1.000  C
  C877     1.0000 0.91964  0.80340  0.50488  Biso   1.000  C
  C878     1.0000 0.94716  0.70246  0.55412  Biso   1.000  C
  C879     1.0000 0.96152  0.76166  0.57300  Biso   1.000  C
  C880     1.0000 0.95577  0.76927  0.60127  Biso   1.000  C
  C881     1.0000 0.98426  0.77210  0.60312  Biso   1.000  C
  C882     1.0000 0.01760  0.76644  0.57566  Biso   1.000  C
  C883     1.0000 0.02120  0.75906  0.54762  Biso   1.000  C
  C884     1.0000 0.04917  0.76751  0.57681  Biso   1.000  C
  C885     1.0000 0.20656  0.31370  0.93942  Biso   1.000  C
  C886     1.0000 0.20194  0.33956  0.90740  Biso   1.000  C
  C887     1.0000 0.23226  0.34248  0.87596  Biso   1.000  C
  C888     1.0000 0.26590  0.31774  0.87914  Biso   1.000  C
  C889     1.0000 0.26779  0.29227  0.91281  Biso   1.000  C
  C890     1.0000 0.53834  0.16402  0.77122  Biso   1.000  C
  C891     1.0000 0.42524  0.26534  0.79402  Biso   1.000  C
  C892     1.0000 0.39315  0.26215  0.82205  Biso   1.000  C
  C893     1.0000 0.39385  0.22907  0.85069  Biso   1.000  C
  C894     1.0000 0.42629  0.20099  0.84915  Biso   1.000  C
  C895     1.0000 0.45714  0.20664  0.81994  Biso   1.000  C
  C896     1.0000 0.35971  0.29391  0.82249  Biso   1.000  C
  C897     1.0000 0.33185  0.35329  0.79735  Biso   1.000  C
  C898     1.0000 0.30000  0.31976  0.84870  Biso   1.000  C
  C899     1.0000 0.33380  0.38858  0.76944  Biso   1.000  C
  C900     1.0000 0.36558  0.39248  0.74042  Biso   1.000  C
  C901     1.0000 0.36531  0.42649  0.71583  Biso   1.000  C
  C902     1.0000 0.33331  0.45605  0.72073  Biso   1.000  C
  C903     1.0000 0.30340  0.41964  0.77208  Biso   1.000  C
  C904     1.0000 0.20246  0.44716  0.79626  Biso   1.000  C
  C905     1.0000 0.26166  0.46152  0.70382  Biso   1.000  C
  C906     1.0000 0.26927  0.45577  0.67369  Biso   1.000  C
  C907     1.0000 0.27210  0.48426  0.64052  Biso   1.000  C
  C908     1.0000 0.26644  0.51760  0.64030  Biso   1.000  C
  C909     1.0000 0.25906  0.52120  0.67212  Biso   1.000  C
  C910     1.0000 0.26751  0.54917  0.60651  Biso   1.000  C
  C911     1.0000 0.43942  0.54032  0.70656  Biso   1.000  C
  C912     1.0000 0.40740  0.55110  0.70194  Biso   1.000  C
  C913     1.0000 0.37596  0.54930  0.73226  Biso   1.000  C
  C914     1.0000 0.37914  0.53722  0.76590  Biso   1.000  C
  C915     1.0000 0.41281  0.52713  0.76779  Biso   1.000  C
  C916     1.0000 0.27122  0.52642  0.03834  Biso   1.000  C
  C917     1.0000 0.29402  0.51540  0.92524  Biso   1.000  C
  C918     1.0000 0.32205  0.52265  0.89315  Biso   1.000  C
  C919     1.0000 0.35069  0.52639  0.89385  Biso   1.000  C
  C920     1.0000 0.34915  0.52357  0.92629  Biso   1.000  C
  C921     1.0000 0.31994  0.51628  0.95714  Biso   1.000  C
  C922     1.0000 0.32249  0.52389  0.85971  Biso   1.000  C
  C923     1.0000 0.29735  0.51751  0.83185  Biso   1.000  C
  C924     1.0000 0.34870  0.53154  0.80000  Biso   1.000  C
  C925     1.0000 0.26944  0.50818  0.83380  Biso   1.000  C
  C926     1.0000 0.24042  0.50152  0.86558  Biso   1.000  C
  C927     1.0000 0.21583  0.49237  0.86531  Biso   1.000  C
  C928     1.0000 0.22073  0.48991  0.83331  Biso   1.000  C
  C929     1.0000 0.27208  0.50488  0.80340  Biso   1.000  C
  C930     1.0000 0.29626  0.55412  0.70246  Biso   1.000  C
  C931     1.0000 0.20382  0.57300  0.76166  Biso   1.000  C
  C932     1.0000 0.17369  0.60127  0.76927  Biso   1.000  C
  C933     1.0000 0.14052  0.60312  0.77210  Biso   1.000  C
  C934     1.0000 0.14030  0.57566  0.76644  Biso   1.000  C
  C935     1.0000 0.17212  0.54762  0.75906  Biso   1.000  C
  C936     1.0000 0.10651  0.57681  0.76751  Biso   1.000  C
  C937     1.0000 0.68630  0.95968  0.79344  Biso   1.000  C
  C938     1.0000 0.66044  0.94890  0.79806  Biso   1.000  C
  C939     1.0000 0.65752  0.95070  0.76774  Biso   1.000  C
  C940     1.0000 0.68226  0.96278  0.73410  Biso   1.000  C
  C941     1.0000 0.70773  0.97287  0.73221  Biso   1.000  C
  C942     1.0000 0.83598  0.97358  0.46166  Biso   1.000  C
  C943     1.0000 0.73466  0.98460  0.57476  Biso   1.000  C
  C944     1.0000 0.73785  0.97735  0.60685  Biso   1.000  C
  C945     1.0000 0.77093  0.97361  0.60615  Biso   1.000  C
  C946     1.0000 0.79901  0.97643  0.57371  Biso   1.000  C
  C947     1.0000 0.79336  0.98372  0.54286  Biso   1.000  C
  C948     1.0000 0.70609  0.97611  0.64029  Biso   1.000  C
  C949     1.0000 0.64671  0.98249  0.66815  Biso   1.000  C
  C950     1.0000 0.68024  0.96846  0.70000  Biso   1.000  C
  C951     1.0000 0.61142  0.99182  0.66620  Biso   1.000  C
  C952     1.0000 0.60752  0.99848  0.63442  Biso   1.000  C
  C953     1.0000 0.57351  0.00763  0.63469  Biso   1.000  C
  C954     1.0000 0.54395  0.01009  0.66669  Biso   1.000  C
  C955     1.0000 0.58036  0.99512  0.69660  Biso   1.000  C
  C956     1.0000 0.55284  0.94588  0.79754  Biso   1.000  C
  C957     1.0000 0.53848  0.92700  0.73834  Biso   1.000  C
  C958     1.0000 0.54423  0.89873  0.73073  Biso   1.000  C
  C959     1.0000 0.51574  0.89688  0.72790  Biso   1.000  C
  C960     1.0000 0.48240  0.92434  0.73356  Biso   1.000  C
  C961     1.0000 0.47880  0.95238  0.74094  Biso   1.000  C
  C962     1.0000 0.45083  0.92319  0.73249  Biso   1.000  C
  C963     1.0000 0.45968  0.18630  0.56058  Biso   1.000  C
  C964     1.0000 0.44890  0.16044  0.59260  Biso   1.000  C
  C965     1.0000 0.45070  0.15752  0.62404  Biso   1.000  C
  C966     1.0000 0.46278  0.18226  0.62086  Biso   1.000  C
  C967     1.0000 0.47287  0.20773  0.58719  Biso   1.000  C
  C968     1.0000 0.47358  0.33598  0.72878  Biso   1.000  C
  C969     1.0000 0.48460  0.23466  0.70598  Biso   1.000  C
  C970     1.0000 0.47735  0.23785  0.67795  Biso   1.000  C
  C971     1.0000 0.47361  0.27093  0.64931  Biso   1.000  C
  C972     1.0000 0.47643  0.29901  0.65085  Biso   1.000  C
  C973     1.0000 0.48372  0.29336  0.68006  Biso   1.000  C
  C974     1.0000 0.47611  0.20609  0.67751  Biso   1.000  C
  C975     1.0000 0.48249  0.14671  0.70265  Biso   1.000  C
  C976     1.0000 0.46846  0.18024  0.65130  Biso   1.000  C
  C977     1.0000 0.49182  0.11142  0.73056  Biso   1.000  C
  C978     1.0000 0.49848  0.10752  0.75958  Biso   1.000  C
  C979     1.0000 0.50763  0.07351  0.78417  Biso   1.000  C
  C980     1.0000 0.51009  0.04395  0.77927  Biso   1.000  C
  C981     1.0000 0.49512  0.08036  0.72792  Biso   1.000  C
  C982     1.0000 0.44588  0.05284  0.70374  Biso   1.000  C
  C983     1.0000 0.42700  0.03848  0.79618  Biso   1.000  C
  C984     1.0000 0.39873  0.04423  0.82631  Biso   1.000  C
  C985     1.0000 0.39688  0.01574  0.85948  Biso   1.000  C
  C986     1.0000 0.42434  0.98240  0.85970  Biso   1.000  C
  C987     1.0000 0.45238  0.97880  0.82788  Biso   1.000  C
  C988     1.0000 0.42319  0.95083  0.89349  Biso   1.000  C
  C989     1.0000 0.06058  0.79344  0.95968  Biso   1.000  C
  C990     1.0000 0.09260  0.79806  0.94890  Biso   1.000  C
  C991     1.0000 0.12404  0.76774  0.95070  Biso   1.000  C
  C992     1.0000 0.12086  0.73410  0.96278  Biso   1.000  C
  C993     1.0000 0.08719  0.73221  0.97287  Biso   1.000  C
  C994     1.0000 0.22878  0.46166  0.97358  Biso   1.000  C
  C995     1.0000 0.20598  0.57476  0.98460  Biso   1.000  C
  C996     1.0000 0.17795  0.60685  0.97735  Biso   1.000  C
  C997     1.0000 0.14931  0.60615  0.97361  Biso   1.000  C
  C998     1.0000 0.15085  0.57371  0.97643  Biso   1.000  C
  C999     1.0000 0.18006  0.54286  0.98372  Biso   1.000  C
  C1000    1.0000 0.17751  0.64029  0.97611  Biso   1.000  C
  C1001    1.0000 0.20265  0.66815  0.98249  Biso   1.000  C
  C1002    1.0000 0.15130  0.70000  0.96846  Biso   1.000  C
  C1003    1.0000 0.23056  0.66620  0.99182  Biso   1.000  C
  C1004    1.0000 0.25958  0.63442  0.99848  Biso   1.000  C
  C1005    1.0000 0.28417  0.63469  0.00763  Biso   1.000  C
  C1006    1.0000 0.27927  0.66669  0.01009  Biso   1.000  C
  C1007    1.0000 0.22792  0.69660  0.99512  Biso   1.000  C
  C1008    1.0000 0.20374  0.79754  0.94588  Biso   1.000  C
  C1009    1.0000 0.29618  0.73834  0.92700  Biso   1.000  C
  C1010    1.0000 0.32631  0.73073  0.89873  Biso   1.000  C
  C1011    1.0000 0.35948  0.72790  0.89688  Biso   1.000  C
  C1012    1.0000 0.35970  0.73356  0.92434  Biso   1.000  C
  C1013    1.0000 0.32788  0.74094  0.95238  Biso   1.000  C
  C1014    1.0000 0.39349  0.73249  0.92319  Biso   1.000  C
  C1015    1.0000 0.29344  0.56058  0.18630  Biso   1.000  C
  C1016    1.0000 0.29806  0.59260  0.16044  Biso   1.000  C
  C1017    1.0000 0.26774  0.62404  0.15752  Biso   1.000  C
  C1018    1.0000 0.23410  0.62086  0.18226  Biso   1.000  C
  C1019    1.0000 0.23221  0.58719  0.20773  Biso   1.000  C
  C1020    1.0000 0.96166  0.72878  0.33598  Biso   1.000  C
  C1021    1.0000 0.07476  0.70598  0.23466  Biso   1.000  C
  C1022    1.0000 0.10685  0.67795  0.23785  Biso   1.000  C
  C1023    1.0000 0.10615  0.64931  0.27093  Biso   1.000  C
  C1024    1.0000 0.07371  0.65085  0.29901  Biso   1.000  C
  C1025    1.0000 0.04286  0.68006  0.29336  Biso   1.000  C
  C1026    1.0000 0.14029  0.67751  0.20609  Biso   1.000  C
  C1027    1.0000 0.16815  0.70265  0.14671  Biso   1.000  C
  C1028    1.0000 0.20000  0.65130  0.18024  Biso   1.000  C
  C1029    1.0000 0.16620  0.73056  0.11142  Biso   1.000  C
  C1030    1.0000 0.13442  0.75958  0.10752  Biso   1.000  C
  C1031    1.0000 0.13469  0.78417  0.07351  Biso   1.000  C
  C1032    1.0000 0.16669  0.77927  0.04395  Biso   1.000  C
  C1033    1.0000 0.19660  0.72792  0.08036  Biso   1.000  C
  C1034    1.0000 0.29754  0.70374  0.05284  Biso   1.000  C
  C1035    1.0000 0.23834  0.79618  0.03848  Biso   1.000  C
  C1036    1.0000 0.23073  0.82631  0.04423  Biso   1.000  C
  C1037    1.0000 0.22790  0.85948  0.01574  Biso   1.000  C
  C1038    1.0000 0.23356  0.85970  0.98240  Biso   1.000  C
  C1039    1.0000 0.24094  0.82788  0.97880  Biso   1.000  C
  C1040    1.0000 0.23249  0.89349  0.95083  Biso   1.000  C
  C1041    1.0000 0.29344  0.95968  0.56058  Biso   1.000  C
  C1042    1.0000 0.29806  0.94890  0.59260  Biso   1.000  C
  C1043    1.0000 0.26774  0.95070  0.62404  Biso   1.000  C
  C1044    1.0000 0.23410  0.96278  0.62086  Biso   1.000  C
  C1045    1.0000 0.23221  0.97287  0.58719  Biso   1.000  C
  C1046    1.0000 0.96166  0.97358  0.72878  Biso   1.000  C
  C1047    1.0000 0.07476  0.98460  0.70598  Biso   1.000  C
  C1048    1.0000 0.10685  0.97735  0.67795  Biso   1.000  C
  C1049    1.0000 0.10615  0.97361  0.64931  Biso   1.000  C
  C1050    1.0000 0.07371  0.97643  0.65085  Biso   1.000  C
  C1051    1.0000 0.04286  0.98372  0.68006  Biso   1.000  C
  C1052    1.0000 0.14029  0.97611  0.67751  Biso   1.000  C
  C1053    1.0000 0.16815  0.98249  0.70265  Biso   1.000  C
  C1054    1.0000 0.20000  0.96846  0.65130  Biso   1.000  C
  C1055    1.0000 0.16620  0.99182  0.73056  Biso   1.000  C
  C1056    1.0000 0.13442  0.99848  0.75958  Biso   1.000  C
  C1057    1.0000 0.13469  0.00763  0.78417  Biso   1.000  C
  C1058    1.0000 0.16669  0.01009  0.77927  Biso   1.000  C
  C1059    1.0000 0.19660  0.99512  0.72792  Biso   1.000  C
  C1060    1.0000 0.29754  0.94588  0.70374  Biso   1.000  C
  C1061    1.0000 0.23834  0.92700  0.79618  Biso   1.000  C
  C1062    1.0000 0.23073  0.89873  0.82631  Biso   1.000  C
  C1063    1.0000 0.22790  0.89688  0.85948  Biso   1.000  C
  C1064    1.0000 0.23356  0.92434  0.85970  Biso   1.000  C
  C1065    1.0000 0.24094  0.95238  0.82788  Biso   1.000  C
  C1066    1.0000 0.23249  0.92319  0.89349  Biso   1.000  C
  C1067    1.0000 0.06058  0.18630  0.79344  Biso   1.000  C
  C1068    1.0000 0.09260  0.16044  0.79806  Biso   1.000  C
  C1069    1.0000 0.12404  0.15752  0.76774  Biso   1.000  C
  C1070    1.0000 0.12086  0.18226  0.73410  Biso   1.000  C
  C1071    1.0000 0.08719  0.20773  0.73221  Biso   1.000  C
  C1072    1.0000 0.22878  0.33598  0.46166  Biso   1.000  C
  C1073    1.0000 0.20598  0.23466  0.57476  Biso   1.000  C
  C1074    1.0000 0.17795  0.23785  0.60685  Biso   1.000  C
  C1075    1.0000 0.14931  0.27093  0.60615  Biso   1.000  C
  C1076    1.0000 0.15085  0.29901  0.57371  Biso   1.000  C
  C1077    1.0000 0.18006  0.29336  0.54286  Biso   1.000  C
  C1078    1.0000 0.17751  0.20609  0.64029  Biso   1.000  C
  C1079    1.0000 0.20265  0.14671  0.66815  Biso   1.000  C
  C1080    1.0000 0.15130  0.18024  0.70000  Biso   1.000  C
  C1081    1.0000 0.23056  0.11142  0.66620  Biso   1.000  C
  C1082    1.0000 0.25958  0.10752  0.63442  Biso   1.000  C
  C1083    1.0000 0.28417  0.07351  0.63469  Biso   1.000  C
  C1084    1.0000 0.27927  0.04395  0.66669  Biso   1.000  C
  C1085    1.0000 0.22792  0.08036  0.69660  Biso   1.000  C
  C1086    1.0000 0.20374  0.05284  0.79754  Biso   1.000  C
  C1087    1.0000 0.29618  0.03848  0.73834  Biso   1.000  C
  C1088    1.0000 0.32631  0.04423  0.73073  Biso   1.000  C
  C1089    1.0000 0.35948  0.01574  0.72790  Biso   1.000  C
  C1090    1.0000 0.35970  0.98240  0.73356  Biso   1.000  C
  C1091    1.0000 0.32788  0.97880  0.74094  Biso   1.000  C
  C1092    1.0000 0.39349  0.95083  0.73249  Biso   1.000  C
  C1093    1.0000 0.45968  0.79344  0.18630  Biso   1.000  C
  C1094    1.0000 0.44890  0.79806  0.16044  Biso   1.000  C
  C1095    1.0000 0.45070  0.76774  0.15752  Biso   1.000  C
  C1096    1.0000 0.46278  0.73410  0.18226  Biso   1.000  C
  C1097    1.0000 0.47287  0.73221  0.20773  Biso   1.000  C
  C1098    1.0000 0.47358  0.46166  0.33598  Biso   1.000  C
  C1099    1.0000 0.48460  0.57476  0.23466  Biso   1.000  C
  C1100    1.0000 0.47735  0.60685  0.23785  Biso   1.000  C
  C1101    1.0000 0.47361  0.60615  0.27093  Biso   1.000  C
  C1102    1.0000 0.47643  0.57371  0.29901  Biso   1.000  C
  C1103    1.0000 0.48372  0.54286  0.29336  Biso   1.000  C
  C1104    1.0000 0.47611  0.64029  0.20609  Biso   1.000  C
  C1105    1.0000 0.48249  0.66815  0.14671  Biso   1.000  C
  C1106    1.0000 0.46846  0.70000  0.18024  Biso   1.000  C
  C1107    1.0000 0.49182  0.66620  0.11142  Biso   1.000  C
  C1108    1.0000 0.49848  0.63442  0.10752  Biso   1.000  C
  C1109    1.0000 0.50763  0.63469  0.07351  Biso   1.000  C
  C1110    1.0000 0.51009  0.66669  0.04395  Biso   1.000  C
  C1111    1.0000 0.49512  0.69660  0.08036  Biso   1.000  C
  C1112    1.0000 0.44588  0.79754  0.05284  Biso   1.000  C
  C1113    1.0000 0.42700  0.73834  0.03848  Biso   1.000  C
  C1114    1.0000 0.39873  0.73073  0.04423  Biso   1.000  C
  C1115    1.0000 0.39688  0.72790  0.01574  Biso   1.000  C
  C1116    1.0000 0.42434  0.73356  0.98240  Biso   1.000  C
  C1117    1.0000 0.45238  0.74094  0.97880  Biso   1.000  C
  C1118    1.0000 0.42319  0.73249  0.95083  Biso   1.000  C
  C1119    1.0000 0.68630  0.56058  0.95968  Biso   1.000  C
  C1120    1.0000 0.66044  0.59260  0.94890  Biso   1.000  C
  C1121    1.0000 0.65752  0.62404  0.95070  Biso   1.000  C
  C1122    1.0000 0.68226  0.62086  0.96278  Biso   1.000  C
  C1123    1.0000 0.70773  0.58719  0.97287  Biso   1.000  C
  C1124    1.0000 0.83598  0.72878  0.97358  Biso   1.000  C
  C1125    1.0000 0.73466  0.70598  0.98460  Biso   1.000  C
  C1126    1.0000 0.73785  0.67795  0.97735  Biso   1.000  C
  C1127    1.0000 0.77093  0.64931  0.97361  Biso   1.000  C
  C1128    1.0000 0.79901  0.65085  0.97643  Biso   1.000  C
  C1129    1.0000 0.79336  0.68006  0.98372  Biso   1.000  C
  C1130    1.0000 0.70609  0.67751  0.97611  Biso   1.000  C
  C1131    1.0000 0.64671  0.70265  0.98249  Biso   1.000  C
  C1132    1.0000 0.68024  0.65130  0.96846  Biso   1.000  C
  C1133    1.0000 0.61142  0.73056  0.99182  Biso   1.000  C
  C1134    1.0000 0.60752  0.75958  0.99848  Biso   1.000  C
  C1135    1.0000 0.57351  0.78417  0.00763  Biso   1.000  C
  C1136    1.0000 0.54395  0.77927  0.01009  Biso   1.000  C
  C1137    1.0000 0.58036  0.72792  0.99512  Biso   1.000  C
  C1138    1.0000 0.55284  0.70374  0.94588  Biso   1.000  C
  C1139    1.0000 0.53848  0.79618  0.92700  Biso   1.000  C
  C1140    1.0000 0.54423  0.82631  0.89873  Biso   1.000  C
  C1141    1.0000 0.51574  0.85948  0.89688  Biso   1.000  C
  C1142    1.0000 0.48240  0.85970  0.92434  Biso   1.000  C
  C1143    1.0000 0.47880  0.82788  0.95238  Biso   1.000  C
  C1144    1.0000 0.45083  0.89349  0.92319  Biso   1.000  C
  C1145    1.0000 0.06058  0.95968  0.18630  Biso   1.000  C
  C1146    1.0000 0.09260  0.94890  0.16044  Biso   1.000  C
  C1147    1.0000 0.12404  0.95070  0.15752  Biso   1.000  C
  C1148    1.0000 0.12086  0.96278  0.18226  Biso   1.000  C
  C1149    1.0000 0.08719  0.97287  0.20773  Biso   1.000  C
  C1150    1.0000 0.22878  0.97358  0.33598  Biso   1.000  C
  C1151    1.0000 0.20598  0.98460  0.23466  Biso   1.000  C
  C1152    1.0000 0.17795  0.97735  0.23785  Biso   1.000  C
  C1153    1.0000 0.14931  0.97361  0.27093  Biso   1.000  C
  C1154    1.0000 0.15085  0.97643  0.29901  Biso   1.000  C
  C1155    1.0000 0.18006  0.98372  0.29336  Biso   1.000  C
  C1156    1.0000 0.17751  0.97611  0.20609  Biso   1.000  C
  C1157    1.0000 0.20265  0.98249  0.14671  Biso   1.000  C
  C1158    1.0000 0.15130  0.96846  0.18024  Biso   1.000  C
  C1159    1.0000 0.23056  0.99182  0.11142  Biso   1.000  C
  C1160    1.0000 0.25958  0.99848  0.10752  Biso   1.000  C
  C1161    1.0000 0.28417  0.00763  0.07351  Biso   1.000  C
  C1162    1.0000 0.27927  0.01009  0.04395  Biso   1.000  C
  C1163    1.0000 0.22792  0.99512  0.08036  Biso   1.000  C
  C1164    1.0000 0.20374  0.94588  0.05284  Biso   1.000  C
  C1165    1.0000 0.29618  0.92700  0.03848  Biso   1.000  C
  C1166    1.0000 0.32631  0.89873  0.04423  Biso   1.000  C
  C1167    1.0000 0.35948  0.89688  0.01574  Biso   1.000  C
  C1168    1.0000 0.35970  0.92434  0.98240  Biso   1.000  C
  C1169    1.0000 0.32788  0.95238  0.97880  Biso   1.000  C
  C1170    1.0000 0.39349  0.92319  0.95083  Biso   1.000  C
  C1171    1.0000 0.29344  0.18630  0.95968  Biso   1.000  C
  C1172    1.0000 0.29806  0.16044  0.94890  Biso   1.000  C
  C1173    1.0000 0.26774  0.15752  0.95070  Biso   1.000  C
  C1174    1.0000 0.23410  0.18226  0.96278  Biso   1.000  C
  C1175    1.0000 0.23221  0.20773  0.97287  Biso   1.000  C
  C1176    1.0000 0.96166  0.33598  0.97358  Biso   1.000  C
  C1177    1.0000 0.07476  0.23466  0.98460  Biso   1.000  C
  C1178    1.0000 0.10685  0.23785  0.97735  Biso   1.000  C
  C1179    1.0000 0.10615  0.27093  0.97361  Biso   1.000  C
  C1180    1.0000 0.07371  0.29901  0.97643  Biso   1.000  C
  C1181    1.0000 0.04286  0.29336  0.98372  Biso   1.000  C
  C1182    1.0000 0.14029  0.20609  0.97611  Biso   1.000  C
  C1183    1.0000 0.16815  0.14671  0.98249  Biso   1.000  C
  C1184    1.0000 0.20000  0.18024  0.96846  Biso   1.000  C
  C1185    1.0000 0.16620  0.11142  0.99182  Biso   1.000  C
  C1186    1.0000 0.13442  0.10752  0.99848  Biso   1.000  C
  C1187    1.0000 0.13469  0.07351  0.00763  Biso   1.000  C
  C1188    1.0000 0.16669  0.04395  0.01009  Biso   1.000  C
  C1189    1.0000 0.19660  0.08036  0.99512  Biso   1.000  C
  C1190    1.0000 0.29754  0.05284  0.94588  Biso   1.000  C
  C1191    1.0000 0.23834  0.03848  0.92700  Biso   1.000  C
  C1192    1.0000 0.23073  0.04423  0.89873  Biso   1.000  C
  C1193    1.0000 0.22790  0.01574  0.89688  Biso   1.000  C
  C1194    1.0000 0.23356  0.98240  0.92434  Biso   1.000  C
  C1195    1.0000 0.24094  0.97880  0.95238  Biso   1.000  C
  C1196    1.0000 0.23249  0.95083  0.92319  Biso   1.000  C
  C1197    1.0000 0.68630  0.79344  0.56058  Biso   1.000  C
  C1198    1.0000 0.66044  0.79806  0.59260  Biso   1.000  C
  C1199    1.0000 0.65752  0.76774  0.62404  Biso   1.000  C
  C1200    1.0000 0.68226  0.73410  0.62086  Biso   1.000  C
  C1201    1.0000 0.70773  0.73221  0.58719  Biso   1.000  C
  C1202    1.0000 0.83598  0.46166  0.72878  Biso   1.000  C
  C1203    1.0000 0.73466  0.57476  0.70598  Biso   1.000  C
  C1204    1.0000 0.73785  0.60685  0.67795  Biso   1.000  C
  C1205    1.0000 0.77093  0.60615  0.64931  Biso   1.000  C
  C1206    1.0000 0.79901  0.57371  0.65085  Biso   1.000  C
  C1207    1.0000 0.79336  0.54286  0.68006  Biso   1.000  C
  C1208    1.0000 0.70609  0.64029  0.67751  Biso   1.000  C
  C1209    1.0000 0.64671  0.66815  0.70265  Biso   1.000  C
  C1210    1.0000 0.68024  0.70000  0.65130  Biso   1.000  C
  C1211    1.0000 0.61142  0.66620  0.73056  Biso   1.000  C
  C1212    1.0000 0.60752  0.63442  0.75958  Biso   1.000  C
  C1213    1.0000 0.57351  0.63469  0.78417  Biso   1.000  C
  C1214    1.0000 0.54395  0.66669  0.77927  Biso   1.000  C
  C1215    1.0000 0.58036  0.69660  0.72792  Biso   1.000  C
  C1216    1.0000 0.55284  0.79754  0.70374  Biso   1.000  C
  C1217    1.0000 0.53848  0.73834  0.79618  Biso   1.000  C
  C1218    1.0000 0.54423  0.73073  0.82631  Biso   1.000  C
  C1219    1.0000 0.51574  0.72790  0.85948  Biso   1.000  C
  C1220    1.0000 0.48240  0.73356  0.85970  Biso   1.000  C
  C1221    1.0000 0.47880  0.74094  0.82788  Biso   1.000  C
  C1222    1.0000 0.45083  0.73249  0.89349  Biso   1.000  C
  C1223    1.0000 0.45968  0.56058  0.79344  Biso   1.000  C
  C1224    1.0000 0.44890  0.59260  0.79806  Biso   1.000  C
  C1225    1.0000 0.45070  0.62404  0.76774  Biso   1.000  C
  C1226    1.0000 0.46278  0.62086  0.73410  Biso   1.000  C
  C1227    1.0000 0.47287  0.58719  0.73221  Biso   1.000  C
  C1228    1.0000 0.47358  0.72878  0.46166  Biso   1.000  C
  C1229    1.0000 0.48460  0.70598  0.57476  Biso   1.000  C
  C1230    1.0000 0.47735  0.67795  0.60685  Biso   1.000  C
  C1231    1.0000 0.47361  0.64931  0.60615  Biso   1.000  C
  C1232    1.0000 0.47643  0.65085  0.57371  Biso   1.000  C
  C1233    1.0000 0.48372  0.68006  0.54286  Biso   1.000  C
  C1234    1.0000 0.47611  0.67751  0.64029  Biso   1.000  C
  C1235    1.0000 0.48249  0.70265  0.66815  Biso   1.000  C
  C1236    1.0000 0.46846  0.65130  0.70000  Biso   1.000  C
  C1237    1.0000 0.49182  0.73056  0.66620  Biso   1.000  C
  C1238    1.0000 0.49848  0.75958  0.63442  Biso   1.000  C
  C1239    1.0000 0.50763  0.78417  0.63469  Biso   1.000  C
  C1240    1.0000 0.51009  0.77927  0.66669  Biso   1.000  C
  C1241    1.0000 0.49512  0.72792  0.69660  Biso   1.000  C
  C1242    1.0000 0.44588  0.70374  0.79754  Biso   1.000  C
  C1243    1.0000 0.42700  0.79618  0.73834  Biso   1.000  C
  C1244    1.0000 0.39873  0.82631  0.73073  Biso   1.000  C
  C1245    1.0000 0.39688  0.85948  0.72790  Biso   1.000  C
  C1246    1.0000 0.42434  0.85970  0.73356  Biso   1.000  C
  C1247    1.0000 0.45238  0.82788  0.74094  Biso   1.000  C
  C1248    1.0000 0.42319  0.89349  0.73249  Biso   1.000  C
  S1       1.0000 0.96533  0.87861  0.95100  Biso   1.000  S
  S2       1.0000 0.91623  0.57723  0.32331  Biso   1.000  S
  S3       1.0000 0.37860  0.46534  0.20506  Biso   1.000  S
  S4       1.0000 0.07723  0.41623  0.18323  Biso   1.000  S
  S5       1.0000 0.45099  0.20506  0.46534  Biso   1.000  S
  S6       1.0000 0.82331  0.18323  0.41623  Biso   1.000  S
  S7       1.0000 0.70505  0.95100  0.87861  Biso   1.000  S
  S8       1.0000 0.68323  0.32331  0.57723  Biso   1.000  S
  S9       1.0000 0.96533  0.95100  0.20506  Biso   1.000  S
  S10      1.0000 0.91623  0.32331  0.18323  Biso   1.000  S
  S11      1.0000 0.37860  0.20506  0.95100  Biso   1.000  S
  S12      1.0000 0.07723  0.18323  0.32331  Biso   1.000  S
  S13      1.0000 0.45099  0.46534  0.87861  Biso   1.000  S
  S14      1.0000 0.82331  0.41623  0.57723  Biso   1.000  S
  S15      1.0000 0.70505  0.87861  0.46534  Biso   1.000  S
  S16      1.0000 0.68323  0.57723  0.41623  Biso   1.000  S
  S17      1.0000 0.96533  0.20506  0.87861  Biso   1.000  S
  S18      1.0000 0.91623  0.18323  0.57723  Biso   1.000  S
  S19      1.0000 0.37860  0.95100  0.46534  Biso   1.000  S
  S20      1.0000 0.07723  0.32331  0.41623  Biso   1.000  S
  S21      1.0000 0.45099  0.87861  0.20506  Biso   1.000  S
  S22      1.0000 0.82331  0.57723  0.18323  Biso   1.000  S
  S23      1.0000 0.70505  0.46534  0.95100  Biso   1.000  S
  S24      1.0000 0.68323  0.41623  0.32331  Biso   1.000  S
  S25      1.0000 0.12140  0.03466  0.54900  Biso   1.000  S
  S26      1.0000 0.42277  0.08377  0.17669  Biso   1.000  S
  S27      1.0000 0.53467  0.62139  0.29494  Biso   1.000  S
  S28      1.0000 0.58377  0.92277  0.31677  Biso   1.000  S
  S29      1.0000 0.79495  0.54900  0.03466  Biso   1.000  S
  S30      1.0000 0.81677  0.17669  0.08377  Biso   1.000  S
  S31      1.0000 0.04901  0.29494  0.62139  Biso   1.000  S
  S32      1.0000 0.67669  0.31677  0.92277  Biso   1.000  S
  S33      1.0000 0.04901  0.03466  0.29494  Biso   1.000  S
  S34      1.0000 0.67669  0.08377  0.31677  Biso   1.000  S
  S35      1.0000 0.79495  0.62139  0.54900  Biso   1.000  S
  S36      1.0000 0.81677  0.92277  0.17669  Biso   1.000  S
  S37      1.0000 0.53467  0.54900  0.62139  Biso   1.000  S
  S38      1.0000 0.58377  0.17669  0.92277  Biso   1.000  S
  S39      1.0000 0.12140  0.29494  0.03466  Biso   1.000  S
  S40      1.0000 0.42277  0.31677  0.08377  Biso   1.000  S
  S41      1.0000 0.79495  0.03466  0.62139  Biso   1.000  S
  S42      1.0000 0.81677  0.08377  0.92277  Biso   1.000  S
  S43      1.0000 0.04901  0.62139  0.03466  Biso   1.000  S
  S44      1.0000 0.67669  0.92277  0.08377  Biso   1.000  S
  S45      1.0000 0.12140  0.54900  0.29494  Biso   1.000  S
  S46      1.0000 0.42277  0.17669  0.31677  Biso   1.000  S
  S47      1.0000 0.53467  0.29494  0.54900  Biso   1.000  S
  S48      1.0000 0.58377  0.31677  0.17669  Biso   1.000  S
  S49      1.0000 0.03467  0.12139  0.04900  Biso   1.000  S
  S50      1.0000 0.08377  0.42277  0.67669  Biso   1.000  S
  S51      1.0000 0.62140  0.53466  0.79494  Biso   1.000  S
  S52      1.0000 0.92277  0.58377  0.81677  Biso   1.000  S
  S53      1.0000 0.54901  0.79494  0.53466  Biso   1.000  S
  S54      1.0000 0.17669  0.81677  0.58377  Biso   1.000  S
  S55      1.0000 0.29495  0.04900  0.12139  Biso   1.000  S
  S56      1.0000 0.31677  0.67669  0.42277  Biso   1.000  S
  S57      1.0000 0.03467  0.04900  0.79494  Biso   1.000  S
  S58      1.0000 0.08377  0.67669  0.81677  Biso   1.000  S
  S59      1.0000 0.62140  0.79494  0.04900  Biso   1.000  S
  S60      1.0000 0.92277  0.81677  0.67669  Biso   1.000  S
  S61      1.0000 0.54901  0.53466  0.12139  Biso   1.000  S
  S62      1.0000 0.17669  0.58377  0.42277  Biso   1.000  S
  S63      1.0000 0.29495  0.12139  0.53466  Biso   1.000  S
  S64      1.0000 0.31677  0.42277  0.58377  Biso   1.000  S
  S65      1.0000 0.03467  0.79494  0.12139  Biso   1.000  S
  S66      1.0000 0.08377  0.81677  0.42277  Biso   1.000  S
  S67      1.0000 0.62140  0.04900  0.53466  Biso   1.000  S
  S68      1.0000 0.92277  0.67669  0.58377  Biso   1.000  S
  S69      1.0000 0.54901  0.12139  0.79494  Biso   1.000  S
  S70      1.0000 0.17669  0.42277  0.81677  Biso   1.000  S
  S71      1.0000 0.29495  0.53466  0.04900  Biso   1.000  S
  S72      1.0000 0.31677  0.58377  0.67669  Biso   1.000  S
  S73      1.0000 0.87860  0.96534  0.45100  Biso   1.000  S
  S74      1.0000 0.57723  0.91623  0.82331  Biso   1.000  S
  S75      1.0000 0.46533  0.37861  0.70506  Biso   1.000  S
  S76      1.0000 0.41623  0.07723  0.68323  Biso   1.000  S
  S77      1.0000 0.20505  0.45100  0.96534  Biso   1.000  S
  S78      1.0000 0.18323  0.82331  0.91623  Biso   1.000  S
  S79      1.0000 0.95099  0.70506  0.37861  Biso   1.000  S
  S80      1.0000 0.32331  0.68323  0.07723  Biso   1.000  S
  S81      1.0000 0.95099  0.96534  0.70506  Biso   1.000  S
  S82      1.0000 0.32331  0.91623  0.68323  Biso   1.000  S
  S83      1.0000 0.20505  0.37861  0.45100  Biso   1.000  S
  S84      1.0000 0.18323  0.07723  0.82331  Biso   1.000  S
  S85      1.0000 0.46533  0.45100  0.37861  Biso   1.000  S
  S86      1.0000 0.41623  0.82331  0.07723  Biso   1.000  S
  S87      1.0000 0.87860  0.70506  0.96534  Biso   1.000  S
  S88      1.0000 0.57723  0.68323  0.91623  Biso   1.000  S
  S89      1.0000 0.20505  0.96534  0.37861  Biso   1.000  S
  S90      1.0000 0.18323  0.91623  0.07723  Biso   1.000  S
  S91      1.0000 0.95099  0.37861  0.96534  Biso   1.000  S
  S92      1.0000 0.32331  0.07723  0.91623  Biso   1.000  S
  S93      1.0000 0.87860  0.45100  0.70506  Biso   1.000  S
  S94      1.0000 0.57723  0.82331  0.68323  Biso   1.000  S
  S95      1.0000 0.46533  0.70506  0.45100  Biso   1.000  S
  S96      1.0000 0.41623  0.68323  0.82331  Biso   1.000  S
  N1       1.0000 0.98103  0.80469  0.96985  Biso   1.000  N
  N2       1.0000 0.97210  0.70960  0.26114  Biso   1.000  N
  N3       1.0000 0.98804  0.76206  0.04290  Biso   1.000  N
  N4       1.0000 0.96902  0.71004  0.17072  Biso   1.000  N
  N5       1.0000 0.97458  0.64774  0.20038  Biso   1.000  N
  N6       1.0000 0.98316  0.67498  0.13724  Biso   1.000  N
  N7       1.0000 0.00392  0.54732  0.19724  Biso   1.000  N
  N8       1.0000 0.96698  0.53550  0.27938  Biso   1.000  N
  N9       1.0000 0.95427  0.50623  0.24355  Biso   1.000  N
  N10      1.0000 0.89281  0.45357  0.23233  Biso   1.000  N
  N11      1.0000 0.30469  0.48103  0.24443  Biso   1.000  N
  N12      1.0000 0.20960  0.47210  0.05716  Biso   1.000  N
  N13      1.0000 0.26206  0.48804  0.20700  Biso   1.000  N
  N14      1.0000 0.21004  0.46902  0.15022  Biso   1.000  N
  N15      1.0000 0.14774  0.47458  0.17730  Biso   1.000  N
  N16      1.0000 0.17498  0.48316  0.20462  Biso   1.000  N
  N17      1.0000 0.04732  0.50392  0.25152  Biso   1.000  N
  N18      1.0000 0.03550  0.46698  0.21814  Biso   1.000  N
  N19      1.0000 0.00623  0.45427  0.29595  Biso   1.000  N
  N20      1.0000 0.95357  0.39281  0.42129  Biso   1.000  N
  N21      1.0000 0.46985  0.24443  0.48103  Biso   1.000  N
  N22      1.0000 0.76114  0.05716  0.47210  Biso   1.000  N
  N23      1.0000 0.54290  0.20700  0.48804  Biso   1.000  N
  N24      1.0000 0.67072  0.15022  0.46902  Biso   1.000  N
  N25      1.0000 0.70038  0.17730  0.47458  Biso   1.000  N
  N26      1.0000 0.63724  0.20462  0.48316  Biso   1.000  N
  N27      1.0000 0.69724  0.25152  0.50392  Biso   1.000  N
  N28      1.0000 0.77938  0.21814  0.46698  Biso   1.000  N
  N29      1.0000 0.74355  0.29595  0.45427  Biso   1.000  N
  N30      1.0000 0.73233  0.42129  0.39281  Biso   1.000  N
  N31      1.0000 0.74443  0.96985  0.80469  Biso   1.000  N
  N32      1.0000 0.55716  0.26114  0.70960  Biso   1.000  N
  N33      1.0000 0.70700  0.04290  0.76206  Biso   1.000  N
  N34      1.0000 0.65022  0.17072  0.71004  Biso   1.000  N
  N35      1.0000 0.67730  0.20038  0.64774  Biso   1.000  N
  N36      1.0000 0.70462  0.13724  0.67498  Biso   1.000  N
  N37      1.0000 0.75152  0.19724  0.54732  Biso   1.000  N
  N38      1.0000 0.71814  0.27938  0.53550  Biso   1.000  N
  N39      1.0000 0.79595  0.24355  0.50623  Biso   1.000  N
  N40      1.0000 0.92129  0.23233  0.45357  Biso   1.000  N
  N41      1.0000 0.98103  0.96985  0.24443  Biso   1.000  N
  N42      1.0000 0.97210  0.26114  0.05716  Biso   1.000  N
  N43      1.0000 0.98804  0.04290  0.20700  Biso   1.000  N
  N44      1.0000 0.96902  0.17072  0.15022  Biso   1.000  N
  N45      1.0000 0.97458  0.20038  0.17730  Biso   1.000  N
  N46      1.0000 0.98316  0.13724  0.20462  Biso   1.000  N
  N47      1.0000 0.00392  0.19724  0.25152  Biso   1.000  N
  N48      1.0000 0.96698  0.27938  0.21814  Biso   1.000  N
  N49      1.0000 0.95427  0.24355  0.29595  Biso   1.000  N
  N50      1.0000 0.89281  0.23233  0.42129  Biso   1.000  N
  N51      1.0000 0.30469  0.24443  0.96985  Biso   1.000  N
  N52      1.0000 0.20960  0.05716  0.26114  Biso   1.000  N
  N53      1.0000 0.26206  0.20700  0.04290  Biso   1.000  N
  N54      1.0000 0.21004  0.15022  0.17072  Biso   1.000  N
  N55      1.0000 0.14774  0.17730  0.20038  Biso   1.000  N
  N56      1.0000 0.17498  0.20462  0.13724  Biso   1.000  N
  N57      1.0000 0.04732  0.25152  0.19724  Biso   1.000  N
  N58      1.0000 0.03550  0.21814  0.27938  Biso   1.000  N
  N59      1.0000 0.00623  0.29595  0.24355  Biso   1.000  N
  N60      1.0000 0.95357  0.42129  0.23233  Biso   1.000  N
  N61      1.0000 0.46985  0.48103  0.80469  Biso   1.000  N
  N62      1.0000 0.76114  0.47210  0.70960  Biso   1.000  N
  N63      1.0000 0.54290  0.48804  0.76206  Biso   1.000  N
  N64      1.0000 0.67072  0.46902  0.71004  Biso   1.000  N
  N65      1.0000 0.70038  0.47458  0.64774  Biso   1.000  N
  N66      1.0000 0.63724  0.48316  0.67498  Biso   1.000  N
  N67      1.0000 0.69724  0.50392  0.54732  Biso   1.000  N
  N68      1.0000 0.77938  0.46698  0.53550  Biso   1.000  N
  N69      1.0000 0.74355  0.45427  0.50623  Biso   1.000  N
  N70      1.0000 0.73233  0.39281  0.45357  Biso   1.000  N
  N71      1.0000 0.74443  0.80469  0.48103  Biso   1.000  N
  N72      1.0000 0.55716  0.70960  0.47210  Biso   1.000  N
  N73      1.0000 0.70700  0.76206  0.48804  Biso   1.000  N
  N74      1.0000 0.65022  0.71004  0.46902  Biso   1.000  N
  N75      1.0000 0.67730  0.64774  0.47458  Biso   1.000  N
  N76      1.0000 0.70462  0.67498  0.48316  Biso   1.000  N
  N77      1.0000 0.75152  0.54732  0.50392  Biso   1.000  N
  N78      1.0000 0.71814  0.53550  0.46698  Biso   1.000  N
  N79      1.0000 0.79595  0.50623  0.45427  Biso   1.000  N
  N80      1.0000 0.92129  0.45357  0.39281  Biso   1.000  N
  N81      1.0000 0.98103  0.24443  0.80469  Biso   1.000  N
  N82      1.0000 0.97210  0.05716  0.70960  Biso   1.000  N
  N83      1.0000 0.98804  0.20700  0.76206  Biso   1.000  N
  N84      1.0000 0.96902  0.15022  0.71004  Biso   1.000  N
  N85      1.0000 0.97458  0.17730  0.64774  Biso   1.000  N
  N86      1.0000 0.98316  0.20462  0.67498  Biso   1.000  N
  N87      1.0000 0.00392  0.25152  0.54732  Biso   1.000  N
  N88      1.0000 0.96698  0.21814  0.53550  Biso   1.000  N
  N89      1.0000 0.95427  0.29595  0.50623  Biso   1.000  N
  N90      1.0000 0.89281  0.42129  0.45357  Biso   1.000  N
  N91      1.0000 0.30469  0.96985  0.48103  Biso   1.000  N
  N92      1.0000 0.20960  0.26114  0.47210  Biso   1.000  N
  N93      1.0000 0.26206  0.04290  0.48804  Biso   1.000  N
  N94      1.0000 0.21004  0.17072  0.46902  Biso   1.000  N
  N95      1.0000 0.14774  0.20038  0.47458  Biso   1.000  N
  N96      1.0000 0.17498  0.13724  0.48316  Biso   1.000  N
  N97      1.0000 0.04732  0.19724  0.50392  Biso   1.000  N
  N98      1.0000 0.03550  0.27938  0.46698  Biso   1.000  N
  N99      1.0000 0.00623  0.24355  0.45427  Biso   1.000  N
  N100     1.0000 0.95357  0.23233  0.39281  Biso   1.000  N
  N101     1.0000 0.46985  0.80469  0.24443  Biso   1.000  N
  N102     1.0000 0.76114  0.70960  0.05716  Biso   1.000  N
  N103     1.0000 0.54290  0.76206  0.20700  Biso   1.000  N
  N104     1.0000 0.67072  0.71004  0.15022  Biso   1.000  N
  N105     1.0000 0.70038  0.64774  0.17730  Biso   1.000  N
  N106     1.0000 0.63724  0.67498  0.20462  Biso   1.000  N
  N107     1.0000 0.69724  0.54732  0.25152  Biso   1.000  N
  N108     1.0000 0.77938  0.53550  0.21814  Biso   1.000  N
  N109     1.0000 0.74355  0.50623  0.29595  Biso   1.000  N
  N110     1.0000 0.73233  0.45357  0.42129  Biso   1.000  N
  N111     1.0000 0.74443  0.48103  0.96985  Biso   1.000  N
  N112     1.0000 0.55716  0.47210  0.26114  Biso   1.000  N
  N113     1.0000 0.70700  0.48804  0.04290  Biso   1.000  N
  N114     1.0000 0.65022  0.46902  0.17072  Biso   1.000  N
  N115     1.0000 0.67730  0.47458  0.20038  Biso   1.000  N
  N116     1.0000 0.70462  0.48316  0.13724  Biso   1.000  N
  N117     1.0000 0.75152  0.50392  0.19724  Biso   1.000  N
  N118     1.0000 0.71814  0.46698  0.27938  Biso   1.000  N
  N119     1.0000 0.79595  0.45427  0.24355  Biso   1.000  N
  N120     1.0000 0.92129  0.39281  0.23233  Biso   1.000  N
  N121     1.0000 0.19531  0.01897  0.53015  Biso   1.000  N
  N122     1.0000 0.29040  0.02790  0.23886  Biso   1.000  N
  N123     1.0000 0.23794  0.01196  0.45710  Biso   1.000  N
  N124     1.0000 0.28996  0.03098  0.32928  Biso   1.000  N
  N125     1.0000 0.35226  0.02542  0.29962  Biso   1.000  N
  N126     1.0000 0.32502  0.01684  0.36276  Biso   1.000  N
  N127     1.0000 0.45268  0.99608  0.30276  Biso   1.000  N
  N128     1.0000 0.46450  0.03302  0.22062  Biso   1.000  N
  N129     1.0000 0.49377  0.04573  0.25645  Biso   1.000  N
  N130     1.0000 0.54643  0.10719  0.26767  Biso   1.000  N
  N131     1.0000 0.51897  0.69531  0.25557  Biso   1.000  N
  N132     1.0000 0.52790  0.79040  0.44284  Biso   1.000  N
  N133     1.0000 0.51196  0.73794  0.29300  Biso   1.000  N
  N134     1.0000 0.53098  0.78996  0.34978  Biso   1.000  N
  N135     1.0000 0.52542  0.85226  0.32270  Biso   1.000  N
  N136     1.0000 0.51684  0.82502  0.29538  Biso   1.000  N
  N137     1.0000 0.49608  0.95268  0.24848  Biso   1.000  N
  N138     1.0000 0.53302  0.96450  0.28186  Biso   1.000  N
  N139     1.0000 0.54573  0.99377  0.20405  Biso   1.000  N
  N140     1.0000 0.60719  0.04643  0.07871  Biso   1.000  N
  N141     1.0000 0.75557  0.53015  0.01897  Biso   1.000  N
  N142     1.0000 0.94284  0.23886  0.02790  Biso   1.000  N
  N143     1.0000 0.79300  0.45710  0.01196  Biso   1.000  N
  N144     1.0000 0.84978  0.32928  0.03098  Biso   1.000  N
  N145     1.0000 0.82270  0.29962  0.02542  Biso   1.000  N
  N146     1.0000 0.79538  0.36276  0.01684  Biso   1.000  N
  N147     1.0000 0.74848  0.30276  0.99608  Biso   1.000  N
  N148     1.0000 0.78186  0.22062  0.03302  Biso   1.000  N
  N149     1.0000 0.70405  0.25645  0.04573  Biso   1.000  N
  N150     1.0000 0.57871  0.26767  0.10719  Biso   1.000  N
  N151     1.0000 0.03015  0.25557  0.69531  Biso   1.000  N
  N152     1.0000 0.73886  0.44284  0.79040  Biso   1.000  N
  N153     1.0000 0.95710  0.29300  0.73794  Biso   1.000  N
  N154     1.0000 0.82928  0.34978  0.78996  Biso   1.000  N
  N155     1.0000 0.79962  0.32270  0.85226  Biso   1.000  N
  N156     1.0000 0.86276  0.29538  0.82502  Biso   1.000  N
  N157     1.0000 0.80276  0.24848  0.95268  Biso   1.000  N
  N158     1.0000 0.72062  0.28186  0.96450  Biso   1.000  N
  N159     1.0000 0.75645  0.20405  0.99377  Biso   1.000  N
  N160     1.0000 0.76767  0.07871  0.04643  Biso   1.000  N
  N161     1.0000 0.03015  0.01897  0.25557  Biso   1.000  N
  N162     1.0000 0.73886  0.02790  0.44284  Biso   1.000  N
  N163     1.0000 0.95710  0.01196  0.29300  Biso   1.000  N
  N164     1.0000 0.82928  0.03098  0.34978  Biso   1.000  N
  N165     1.0000 0.79962  0.02542  0.32270  Biso   1.000  N
  N166     1.0000 0.86276  0.01684  0.29538  Biso   1.000  N
  N167     1.0000 0.80276  0.99608  0.24848  Biso   1.000  N
  N168     1.0000 0.72062  0.03302  0.28186  Biso   1.000  N
  N169     1.0000 0.75645  0.04573  0.20405  Biso   1.000  N
  N170     1.0000 0.76767  0.10719  0.07871  Biso   1.000  N
  N171     1.0000 0.75557  0.69531  0.53015  Biso   1.000  N
  N172     1.0000 0.94284  0.79040  0.23886  Biso   1.000  N
  N173     1.0000 0.79300  0.73794  0.45710  Biso   1.000  N
  N174     1.0000 0.84978  0.78996  0.32928  Biso   1.000  N
  N175     1.0000 0.82270  0.85226  0.29962  Biso   1.000  N
  N176     1.0000 0.79538  0.82502  0.36276  Biso   1.000  N
  N177     1.0000 0.74848  0.95268  0.30276  Biso   1.000  N
  N178     1.0000 0.78186  0.96450  0.22062  Biso   1.000  N
  N179     1.0000 0.70405  0.99377  0.25645  Biso   1.000  N
  N180     1.0000 0.57871  0.04643  0.26767  Biso   1.000  N
  N181     1.0000 0.51897  0.53015  0.69531  Biso   1.000  N
  N182     1.0000 0.52790  0.23886  0.79040  Biso   1.000  N
  N183     1.0000 0.51196  0.45710  0.73794  Biso   1.000  N
  N184     1.0000 0.53098  0.32928  0.78996  Biso   1.000  N
  N185     1.0000 0.52542  0.29962  0.85226  Biso   1.000  N
  N186     1.0000 0.51684  0.36276  0.82502  Biso   1.000  N
  N187     1.0000 0.49608  0.30276  0.95268  Biso   1.000  N
  N188     1.0000 0.53302  0.22062  0.96450  Biso   1.000  N
  N189     1.0000 0.54573  0.25645  0.99377  Biso   1.000  N
  N190     1.0000 0.60719  0.26767  0.04643  Biso   1.000  N
  N191     1.0000 0.19531  0.25557  0.01897  Biso   1.000  N
  N192     1.0000 0.29040  0.44284  0.02790  Biso   1.000  N
  N193     1.0000 0.23794  0.29300  0.01196  Biso   1.000  N
  N194     1.0000 0.28996  0.34978  0.03098  Biso   1.000  N
  N195     1.0000 0.35226  0.32270  0.02542  Biso   1.000  N
  N196     1.0000 0.32502  0.29538  0.01684  Biso   1.000  N
  N197     1.0000 0.45268  0.24848  0.99608  Biso   1.000  N
  N198     1.0000 0.46450  0.28186  0.03302  Biso   1.000  N
  N199     1.0000 0.49377  0.20405  0.04573  Biso   1.000  N
  N200     1.0000 0.54643  0.07871  0.10719  Biso   1.000  N
  N201     1.0000 0.75557  0.01897  0.69531  Biso   1.000  N
  N202     1.0000 0.94284  0.02790  0.79040  Biso   1.000  N
  N203     1.0000 0.79300  0.01196  0.73794  Biso   1.000  N
  N204     1.0000 0.84978  0.03098  0.78996  Biso   1.000  N
  N205     1.0000 0.82270  0.02542  0.85226  Biso   1.000  N
  N206     1.0000 0.79538  0.01684  0.82502  Biso   1.000  N
  N207     1.0000 0.74848  0.99608  0.95268  Biso   1.000  N
  N208     1.0000 0.78186  0.03302  0.96450  Biso   1.000  N
  N209     1.0000 0.70405  0.04573  0.99377  Biso   1.000  N
  N210     1.0000 0.57871  0.10719  0.04643  Biso   1.000  N
  N211     1.0000 0.03015  0.69531  0.01897  Biso   1.000  N
  N212     1.0000 0.73886  0.79040  0.02790  Biso   1.000  N
  N213     1.0000 0.95710  0.73794  0.01196  Biso   1.000  N
  N214     1.0000 0.82928  0.78996  0.03098  Biso   1.000  N
  N215     1.0000 0.79962  0.85226  0.02542  Biso   1.000  N
  N216     1.0000 0.86276  0.82502  0.01684  Biso   1.000  N
  N217     1.0000 0.80276  0.95268  0.99608  Biso   1.000  N
  N218     1.0000 0.72062  0.96450  0.03302  Biso   1.000  N
  N219     1.0000 0.75645  0.99377  0.04573  Biso   1.000  N
  N220     1.0000 0.76767  0.04643  0.10719  Biso   1.000  N
  N221     1.0000 0.19531  0.53015  0.25557  Biso   1.000  N
  N222     1.0000 0.29040  0.23886  0.44284  Biso   1.000  N
  N223     1.0000 0.23794  0.45710  0.29300  Biso   1.000  N
  N224     1.0000 0.28996  0.32928  0.34978  Biso   1.000  N
  N225     1.0000 0.35226  0.29962  0.32270  Biso   1.000  N
  N226     1.0000 0.32502  0.36276  0.29538  Biso   1.000  N
  N227     1.0000 0.45268  0.30276  0.24848  Biso   1.000  N
  N228     1.0000 0.46450  0.22062  0.28186  Biso   1.000  N
  N229     1.0000 0.49377  0.25645  0.20405  Biso   1.000  N
  N230     1.0000 0.54643  0.26767  0.07871  Biso   1.000  N
  N231     1.0000 0.51897  0.25557  0.53015  Biso   1.000  N
  N232     1.0000 0.52790  0.44284  0.23886  Biso   1.000  N
  N233     1.0000 0.51196  0.29300  0.45710  Biso   1.000  N
  N234     1.0000 0.53098  0.34978  0.32928  Biso   1.000  N
  N235     1.0000 0.52542  0.32270  0.29962  Biso   1.000  N
  N236     1.0000 0.51684  0.29538  0.36276  Biso   1.000  N
  N237     1.0000 0.49608  0.24848  0.30276  Biso   1.000  N
  N238     1.0000 0.53302  0.28186  0.22062  Biso   1.000  N
  N239     1.0000 0.54573  0.20405  0.25645  Biso   1.000  N
  N240     1.0000 0.60719  0.07871  0.26767  Biso   1.000  N
  N241     1.0000 0.01897  0.19531  0.03015  Biso   1.000  N
  N242     1.0000 0.02790  0.29040  0.73886  Biso   1.000  N
  N243     1.0000 0.01196  0.23794  0.95710  Biso   1.000  N
  N244     1.0000 0.03098  0.28996  0.82928  Biso   1.000  N
  N245     1.0000 0.02542  0.35226  0.79962  Biso   1.000  N
  N246     1.0000 0.01684  0.32502  0.86276  Biso   1.000  N
  N247     1.0000 0.99608  0.45268  0.80276  Biso   1.000  N
  N248     1.0000 0.03302  0.46450  0.72062  Biso   1.000  N
  N249     1.0000 0.04573  0.49377  0.75645  Biso   1.000  N
  N250     1.0000 0.10719  0.54643  0.76767  Biso   1.000  N
  N251     1.0000 0.69531  0.51897  0.75557  Biso   1.000  N
  N252     1.0000 0.79040  0.52790  0.94284  Biso   1.000  N
  N253     1.0000 0.73794  0.51196  0.79300  Biso   1.000  N
  N254     1.0000 0.78996  0.53098  0.84978  Biso   1.000  N
  N255     1.0000 0.85226  0.52542  0.82270  Biso   1.000  N
  N256     1.0000 0.82502  0.51684  0.79538  Biso   1.000  N
  N257     1.0000 0.95268  0.49608  0.74848  Biso   1.000  N
  N258     1.0000 0.96450  0.53302  0.78186  Biso   1.000  N
  N259     1.0000 0.99377  0.54573  0.70405  Biso   1.000  N
  N260     1.0000 0.04643  0.60719  0.57871  Biso   1.000  N
  N261     1.0000 0.53015  0.75557  0.51897  Biso   1.000  N
  N262     1.0000 0.23886  0.94284  0.52790  Biso   1.000  N
  N263     1.0000 0.45710  0.79300  0.51196  Biso   1.000  N
  N264     1.0000 0.32928  0.84978  0.53098  Biso   1.000  N
  N265     1.0000 0.29962  0.82270  0.52542  Biso   1.000  N
  N266     1.0000 0.36276  0.79538  0.51684  Biso   1.000  N
  N267     1.0000 0.30276  0.74848  0.49608  Biso   1.000  N
  N268     1.0000 0.22062  0.78186  0.53302  Biso   1.000  N
  N269     1.0000 0.25645  0.70405  0.54573  Biso   1.000  N
  N270     1.0000 0.26767  0.57871  0.60719  Biso   1.000  N
  N271     1.0000 0.25557  0.03015  0.19531  Biso   1.000  N
  N272     1.0000 0.44284  0.73886  0.29040  Biso   1.000  N
  N273     1.0000 0.29300  0.95710  0.23794  Biso   1.000  N
  N274     1.0000 0.34978  0.82928  0.28996  Biso   1.000  N
  N275     1.0000 0.32270  0.79962  0.35226  Biso   1.000  N
  N276     1.0000 0.29538  0.86276  0.32502  Biso   1.000  N
  N277     1.0000 0.24848  0.80276  0.45268  Biso   1.000  N
  N278     1.0000 0.28186  0.72062  0.46450  Biso   1.000  N
  N279     1.0000 0.20405  0.75645  0.49377  Biso   1.000  N
  N280     1.0000 0.07871  0.76767  0.54643  Biso   1.000  N
  N281     1.0000 0.01897  0.03015  0.75557  Biso   1.000  N
  N282     1.0000 0.02790  0.73886  0.94284  Biso   1.000  N
  N283     1.0000 0.01196  0.95710  0.79300  Biso   1.000  N
  N284     1.0000 0.03098  0.82928  0.84978  Biso   1.000  N
  N285     1.0000 0.02542  0.79962  0.82270  Biso   1.000  N
  N286     1.0000 0.01684  0.86276  0.79538  Biso   1.000  N
  N287     1.0000 0.99608  0.80276  0.74848  Biso   1.000  N
  N288     1.0000 0.03302  0.72062  0.78186  Biso   1.000  N
  N289     1.0000 0.04573  0.75645  0.70405  Biso   1.000  N
  N290     1.0000 0.10719  0.76767  0.57871  Biso   1.000  N
  N291     1.0000 0.69531  0.75557  0.03015  Biso   1.000  N
  N292     1.0000 0.79040  0.94284  0.73886  Biso   1.000  N
  N293     1.0000 0.73794  0.79300  0.95710  Biso   1.000  N
  N294     1.0000 0.78996  0.84978  0.82928  Biso   1.000  N
  N295     1.0000 0.85226  0.82270  0.79962  Biso   1.000  N
  N296     1.0000 0.82502  0.79538  0.86276  Biso   1.000  N
  N297     1.0000 0.95268  0.74848  0.80276  Biso   1.000  N
  N298     1.0000 0.96450  0.78186  0.72062  Biso   1.000  N
  N299     1.0000 0.99377  0.70405  0.75645  Biso   1.000  N
  N300     1.0000 0.04643  0.57871  0.76767  Biso   1.000  N
  N301     1.0000 0.53015  0.51897  0.19531  Biso   1.000  N
  N302     1.0000 0.23886  0.52790  0.29040  Biso   1.000  N
  N303     1.0000 0.45710  0.51196  0.23794  Biso   1.000  N
  N304     1.0000 0.32928  0.53098  0.28996  Biso   1.000  N
  N305     1.0000 0.29962  0.52542  0.35226  Biso   1.000  N
  N306     1.0000 0.36276  0.51684  0.32502  Biso   1.000  N
  N307     1.0000 0.30276  0.49608  0.45268  Biso   1.000  N
  N308     1.0000 0.22062  0.53302  0.46450  Biso   1.000  N
  N309     1.0000 0.25645  0.54573  0.49377  Biso   1.000  N
  N310     1.0000 0.26767  0.60719  0.54643  Biso   1.000  N
  N311     1.0000 0.25557  0.19531  0.51897  Biso   1.000  N
  N312     1.0000 0.44284  0.29040  0.52790  Biso   1.000  N
  N313     1.0000 0.29300  0.23794  0.51196  Biso   1.000  N
  N314     1.0000 0.34978  0.28996  0.53098  Biso   1.000  N
  N315     1.0000 0.32270  0.35226  0.52542  Biso   1.000  N
  N316     1.0000 0.29538  0.32502  0.51684  Biso   1.000  N
  N317     1.0000 0.24848  0.45268  0.49608  Biso   1.000  N
  N318     1.0000 0.28186  0.46450  0.53302  Biso   1.000  N
  N319     1.0000 0.20405  0.49377  0.54573  Biso   1.000  N
  N320     1.0000 0.07871  0.54643  0.60719  Biso   1.000  N
  N321     1.0000 0.01897  0.75557  0.19531  Biso   1.000  N
  N322     1.0000 0.02790  0.94284  0.29040  Biso   1.000  N
  N323     1.0000 0.01196  0.79300  0.23794  Biso   1.000  N
  N324     1.0000 0.03098  0.84978  0.28996  Biso   1.000  N
  N325     1.0000 0.02542  0.82270  0.35226  Biso   1.000  N
  N326     1.0000 0.01684  0.79538  0.32502  Biso   1.000  N
  N327     1.0000 0.99608  0.74848  0.45268  Biso   1.000  N
  N328     1.0000 0.03302  0.78186  0.46450  Biso   1.000  N
  N329     1.0000 0.04573  0.70405  0.49377  Biso   1.000  N
  N330     1.0000 0.10719  0.57871  0.54643  Biso   1.000  N
  N331     1.0000 0.69531  0.03015  0.51897  Biso   1.000  N
  N332     1.0000 0.79040  0.73886  0.52790  Biso   1.000  N
  N333     1.0000 0.73794  0.95710  0.51196  Biso   1.000  N
  N334     1.0000 0.78996  0.82928  0.53098  Biso   1.000  N
  N335     1.0000 0.85226  0.79962  0.52542  Biso   1.000  N
  N336     1.0000 0.82502  0.86276  0.51684  Biso   1.000  N
  N337     1.0000 0.95268  0.80276  0.49608  Biso   1.000  N
  N338     1.0000 0.96450  0.72062  0.53302  Biso   1.000  N
  N339     1.0000 0.99377  0.75645  0.54573  Biso   1.000  N
  N340     1.0000 0.04643  0.76767  0.60719  Biso   1.000  N
  N341     1.0000 0.53015  0.19531  0.75557  Biso   1.000  N
  N342     1.0000 0.23886  0.29040  0.94284  Biso   1.000  N
  N343     1.0000 0.45710  0.23794  0.79300  Biso   1.000  N
  N344     1.0000 0.32928  0.28996  0.84978  Biso   1.000  N
  N345     1.0000 0.29962  0.35226  0.82270  Biso   1.000  N
  N346     1.0000 0.36276  0.32502  0.79538  Biso   1.000  N
  N347     1.0000 0.30276  0.45268  0.74848  Biso   1.000  N
  N348     1.0000 0.22062  0.46450  0.78186  Biso   1.000  N
  N349     1.0000 0.25645  0.49377  0.70405  Biso   1.000  N
  N350     1.0000 0.26767  0.54643  0.57871  Biso   1.000  N
  N351     1.0000 0.25557  0.51897  0.03015  Biso   1.000  N
  N352     1.0000 0.44284  0.52790  0.73886  Biso   1.000  N
  N353     1.0000 0.29300  0.51196  0.95710  Biso   1.000  N
  N354     1.0000 0.34978  0.53098  0.82928  Biso   1.000  N
  N355     1.0000 0.32270  0.52542  0.79962  Biso   1.000  N
  N356     1.0000 0.29538  0.51684  0.86276  Biso   1.000  N
  N357     1.0000 0.24848  0.49608  0.80276  Biso   1.000  N
  N358     1.0000 0.28186  0.53302  0.72062  Biso   1.000  N
  N359     1.0000 0.20405  0.54573  0.75645  Biso   1.000  N
  N360     1.0000 0.07871  0.60719  0.76767  Biso   1.000  N
  N361     1.0000 0.80469  0.98103  0.46985  Biso   1.000  N
  N362     1.0000 0.70960  0.97210  0.76114  Biso   1.000  N
  N363     1.0000 0.76206  0.98804  0.54290  Biso   1.000  N
  N364     1.0000 0.71004  0.96902  0.67072  Biso   1.000  N
  N365     1.0000 0.64774  0.97458  0.70038  Biso   1.000  N
  N366     1.0000 0.67498  0.98316  0.63724  Biso   1.000  N
  N367     1.0000 0.54732  0.00392  0.69724  Biso   1.000  N
  N368     1.0000 0.53550  0.96698  0.77938  Biso   1.000  N
  N369     1.0000 0.50623  0.95427  0.74355  Biso   1.000  N
  N370     1.0000 0.45357  0.89281  0.73233  Biso   1.000  N
  N371     1.0000 0.48103  0.30469  0.74443  Biso   1.000  N
  N372     1.0000 0.47210  0.20960  0.55716  Biso   1.000  N
  N373     1.0000 0.48804  0.26206  0.70700  Biso   1.000  N
  N374     1.0000 0.46902  0.21004  0.65022  Biso   1.000  N
  N375     1.0000 0.47458  0.14774  0.67730  Biso   1.000  N
  N376     1.0000 0.48316  0.17498  0.70462  Biso   1.000  N
  N377     1.0000 0.50392  0.04732  0.75152  Biso   1.000  N
  N378     1.0000 0.46698  0.03550  0.71814  Biso   1.000  N
  N379     1.0000 0.45427  0.00623  0.79595  Biso   1.000  N
  N380     1.0000 0.39281  0.95357  0.92129  Biso   1.000  N
  N381     1.0000 0.24443  0.46985  0.98103  Biso   1.000  N
  N382     1.0000 0.05716  0.76114  0.97210  Biso   1.000  N
  N383     1.0000 0.20700  0.54290  0.98804  Biso   1.000  N
  N384     1.0000 0.15022  0.67072  0.96902  Biso   1.000  N
  N385     1.0000 0.17730  0.70038  0.97458  Biso   1.000  N
  N386     1.0000 0.20462  0.63724  0.98316  Biso   1.000  N
  N387     1.0000 0.25152  0.69724  0.00392  Biso   1.000  N
  N388     1.0000 0.21814  0.77938  0.96698  Biso   1.000  N
  N389     1.0000 0.29595  0.74355  0.95427  Biso   1.000  N
  N390     1.0000 0.42129  0.73233  0.89281  Biso   1.000  N
  N391     1.0000 0.96985  0.74443  0.30469  Biso   1.000  N
  N392     1.0000 0.26114  0.55716  0.20960  Biso   1.000  N
  N393     1.0000 0.04290  0.70700  0.26206  Biso   1.000  N
  N394     1.0000 0.17072  0.65022  0.21004  Biso   1.000  N
  N395     1.0000 0.20038  0.67730  0.14774  Biso   1.000  N
  N396     1.0000 0.13724  0.70462  0.17498  Biso   1.000  N
  N397     1.0000 0.19724  0.75152  0.04732  Biso   1.000  N
  N398     1.0000 0.27938  0.71814  0.03550  Biso   1.000  N
  N399     1.0000 0.24355  0.79595  0.00623  Biso   1.000  N
  N400     1.0000 0.23233  0.92129  0.95357  Biso   1.000  N
  N401     1.0000 0.96985  0.98103  0.74443  Biso   1.000  N
  N402     1.0000 0.26114  0.97210  0.55716  Biso   1.000  N
  N403     1.0000 0.04290  0.98804  0.70700  Biso   1.000  N
  N404     1.0000 0.17072  0.96902  0.65022  Biso   1.000  N
  N405     1.0000 0.20038  0.97458  0.67730  Biso   1.000  N
  N406     1.0000 0.13724  0.98316  0.70462  Biso   1.000  N
  N407     1.0000 0.19724  0.00392  0.75152  Biso   1.000  N
  N408     1.0000 0.27938  0.96698  0.71814  Biso   1.000  N
  N409     1.0000 0.24355  0.95427  0.79595  Biso   1.000  N
  N410     1.0000 0.23233  0.89281  0.92129  Biso   1.000  N
  N411     1.0000 0.24443  0.30469  0.46985  Biso   1.000  N
  N412     1.0000 0.05716  0.20960  0.76114  Biso   1.000  N
  N413     1.0000 0.20700  0.26206  0.54290  Biso   1.000  N
  N414     1.0000 0.15022  0.21004  0.67072  Biso   1.000  N
  N415     1.0000 0.17730  0.14774  0.70038  Biso   1.000  N
  N416     1.0000 0.20462  0.17498  0.63724  Biso   1.000  N
  N417     1.0000 0.25152  0.04732  0.69724  Biso   1.000  N
  N418     1.0000 0.21814  0.03550  0.77938  Biso   1.000  N
  N419     1.0000 0.29595  0.00623  0.74355  Biso   1.000  N
  N420     1.0000 0.42129  0.95357  0.73233  Biso   1.000  N
  N421     1.0000 0.48103  0.46985  0.30469  Biso   1.000  N
  N422     1.0000 0.47210  0.76114  0.20960  Biso   1.000  N
  N423     1.0000 0.48804  0.54290  0.26206  Biso   1.000  N
  N424     1.0000 0.46902  0.67072  0.21004  Biso   1.000  N
  N425     1.0000 0.47458  0.70038  0.14774  Biso   1.000  N
  N426     1.0000 0.48316  0.63724  0.17498  Biso   1.000  N
  N427     1.0000 0.50392  0.69724  0.04732  Biso   1.000  N
  N428     1.0000 0.46698  0.77938  0.03550  Biso   1.000  N
  N429     1.0000 0.45427  0.74355  0.00623  Biso   1.000  N
  N430     1.0000 0.39281  0.73233  0.95357  Biso   1.000  N
  N431     1.0000 0.80469  0.74443  0.98103  Biso   1.000  N
  N432     1.0000 0.70960  0.55716  0.97210  Biso   1.000  N
  N433     1.0000 0.76206  0.70700  0.98804  Biso   1.000  N
  N434     1.0000 0.71004  0.65022  0.96902  Biso   1.000  N
  N435     1.0000 0.64774  0.67730  0.97458  Biso   1.000  N
  N436     1.0000 0.67498  0.70462  0.98316  Biso   1.000  N
  N437     1.0000 0.54732  0.75152  0.00392  Biso   1.000  N
  N438     1.0000 0.53550  0.71814  0.96698  Biso   1.000  N
  N439     1.0000 0.50623  0.79595  0.95427  Biso   1.000  N
  N440     1.0000 0.45357  0.92129  0.89281  Biso   1.000  N
  N441     1.0000 0.24443  0.98103  0.30469  Biso   1.000  N
  N442     1.0000 0.05716  0.97210  0.20960  Biso   1.000  N
  N443     1.0000 0.20700  0.98804  0.26206  Biso   1.000  N
  N444     1.0000 0.15022  0.96902  0.21004  Biso   1.000  N
  N445     1.0000 0.17730  0.97458  0.14774  Biso   1.000  N
  N446     1.0000 0.20462  0.98316  0.17498  Biso   1.000  N
  N447     1.0000 0.25152  0.00392  0.04732  Biso   1.000  N
  N448     1.0000 0.21814  0.96698  0.03550  Biso   1.000  N
  N449     1.0000 0.29595  0.95427  0.00623  Biso   1.000  N
  N450     1.0000 0.42129  0.89281  0.95357  Biso   1.000  N
  N451     1.0000 0.96985  0.30469  0.98103  Biso   1.000  N
  N452     1.0000 0.26114  0.20960  0.97210  Biso   1.000  N
  N453     1.0000 0.04290  0.26206  0.98804  Biso   1.000  N
  N454     1.0000 0.17072  0.21004  0.96902  Biso   1.000  N
  N455     1.0000 0.20038  0.14774  0.97458  Biso   1.000  N
  N456     1.0000 0.13724  0.17498  0.98316  Biso   1.000  N
  N457     1.0000 0.19724  0.04732  0.00392  Biso   1.000  N
  N458     1.0000 0.27938  0.03550  0.96698  Biso   1.000  N
  N459     1.0000 0.24355  0.00623  0.95427  Biso   1.000  N
  N460     1.0000 0.23233  0.95357  0.89281  Biso   1.000  N
  N461     1.0000 0.80469  0.46985  0.74443  Biso   1.000  N
  N462     1.0000 0.70960  0.76114  0.55716  Biso   1.000  N
  N463     1.0000 0.76206  0.54290  0.70700  Biso   1.000  N
  N464     1.0000 0.71004  0.67072  0.65022  Biso   1.000  N
  N465     1.0000 0.64774  0.70038  0.67730  Biso   1.000  N
  N466     1.0000 0.67498  0.63724  0.70462  Biso   1.000  N
  N467     1.0000 0.54732  0.69724  0.75152  Biso   1.000  N
  N468     1.0000 0.53550  0.77938  0.71814  Biso   1.000  N
  N469     1.0000 0.50623  0.74355  0.79595  Biso   1.000  N
  N470     1.0000 0.45357  0.73233  0.92129  Biso   1.000  N
  N471     1.0000 0.48103  0.74443  0.46985  Biso   1.000  N
  N472     1.0000 0.47210  0.55716  0.76114  Biso   1.000  N
  N473     1.0000 0.48804  0.70700  0.54290  Biso   1.000  N
  N474     1.0000 0.46902  0.65022  0.67072  Biso   1.000  N
  N475     1.0000 0.47458  0.67730  0.70038  Biso   1.000  N
  N476     1.0000 0.48316  0.70462  0.63724  Biso   1.000  N
  N477     1.0000 0.50392  0.75152  0.69724  Biso   1.000  N
  N478     1.0000 0.46698  0.71814  0.77938  Biso   1.000  N
  N479     1.0000 0.45427  0.79595  0.74355  Biso   1.000  N
  N480     1.0000 0.39281  0.92129  0.73233  Biso   1.000  N
