data_image0
_cell_length_a       37.352
_cell_length_b       8.834
_cell_length_c       29.562
_cell_angle_alpha    90
_cell_angle_beta     126.838
_cell_angle_gamma    90

_symmetry_space_group_name_H-M    "P 1"
_symmetry_int_tables_number       1

loop_
  _symmetry_equiv_pos_as_xyz
  'x, y, z'

loop_
  _atom_site_label
  _atom_site_occupancy
  _atom_site_fract_x
  _atom_site_fract_y
  _atom_site_fract_z
  _atom_site_thermal_displace_type
  _atom_site_B_iso_or_equiv
  _atom_site_type_symbol
  O1       1.0000 0.19847  0.08070  0.45298  Biso   1.000  O
  O2       1.0000 0.16439  0.05330  0.49413  Biso   1.000  O
  O3       1.0000 0.91413  0.72090  0.37838  Biso   1.000  O
  O4       1.0000 0.98769  0.68470  0.44343  Biso   1.000  O
  O5       1.0000 0.00165  0.17680  0.30251  Biso   1.000  O
  O6       1.0000 0.05666  0.57560  0.29425  Biso   1.000  O
  N1       1.0000 0.18898  0.37470  0.36722  Biso   1.000  N
  N2       1.0000 0.20098  0.42350  0.45692  Biso   1.000  N
  N3       1.0000 0.24033  0.26230  0.56070  Biso   1.000  N
  H1       1.0000 0.22060  0.17840  0.55430  Biso   1.000  H
  N4       1.0000 0.93823  0.59310  0.54267  Biso   1.000  N
  N5       1.0000 0.93301  0.48090  0.46174  Biso   1.000  N
  H2       1.0000 0.91850  0.56970  0.43740  Biso   1.000  H
  N6       1.0000 0.00939  0.65640  0.56065  Biso   1.000  N
  C1       1.0000 0.97125  0.28150  0.25900  Biso   1.000  C
  H3       1.0000 0.95630  0.34160  0.27060  Biso   1.000  H
  H4       1.0000 0.94880  0.22820  0.22440  Biso   1.000  H
  C2       1.0000 0.02990  0.48070  0.30258  Biso   1.000  C
  H5       1.0000 0.01170  0.54250  0.30870  Biso   1.000  H
  H6       1.0000 0.04900  0.41690  0.33550  Biso   1.000  H
  C3       1.0000 0.98583  0.06730  0.31916  Biso   1.000  C
  C4       1.0000 0.01880  0.97110  0.36050  Biso   1.000  C
  H7       1.0000 0.04790  0.97810  0.37160  Biso   1.000  H
  C5       1.0000 0.00837  0.86550  0.38500  Biso   1.000  C
  H8       1.0000 0.03070  0.80310  0.41350  Biso   1.000  H
  C6       1.0000 0.96437  0.85080  0.36765  Biso   1.000  C
  C7       1.0000 0.93192  0.94240  0.32378  Biso   1.000  C
  H9       1.0000 0.90230  0.93010  0.31030  Biso   1.000  H
  C8       1.0000 0.94186  0.05170  0.29916  Biso   1.000  C
  H10      1.0000 0.91950  0.11250  0.27000  Biso   1.000  H
  C9       1.0000 0.08329  0.68170  0.33546  Biso   1.000  C
  C10      1.0000 0.09035  0.68780  0.38684  Biso   1.000  C
  H11      1.0000 0.07700  0.61740  0.39580  Biso   1.000  H
  C11      1.0000 0.11771  0.80030  0.42498  Biso   1.000  C
  H12      1.0000 0.12170  0.80650  0.45920  Biso   1.000  H
  C12      1.0000 0.13913  0.90330  0.41365  Biso   1.000  C
  C13      1.0000 0.16975  0.02140  0.45707  Biso   1.000  C
  C14      1.0000 0.13231  0.89190  0.36210  Biso   1.000  C
  H13      1.0000 0.14690  0.95900  0.35380  Biso   1.000  H
  C15      1.0000 0.10457  0.78390  0.32310  Biso   1.000  C
  H14      1.0000 0.10000  0.77910  0.28850  Biso   1.000  H
  C16      1.0000 0.95488  0.74480  0.39880  Biso   1.000  C
  C17      1.0000 0.91791  0.34630  0.42430  Biso   1.000  C
  H15      1.0000 0.88570  0.35000  0.39570  Biso   1.000  H
  H16      1.0000 0.92520  0.25460  0.44620  Biso   1.000  H
  C18      1.0000 0.05877  0.65450  0.60394  Biso   1.000  C
  H17      1.0000 0.06740  0.56520  0.62750  Biso   1.000  H
  H18      1.0000 0.06800  0.74290  0.62800  Biso   1.000  H
  C19      1.0000 0.99517  0.81660  0.54440  Biso   1.000  C
  H19      1.0000 0.00830  0.85730  0.52680  Biso   1.000  H
  H20      1.0000 0.00630  0.87560  0.57810  Biso   1.000  H
  C20      1.0000 0.94429  0.83200  0.50340  Biso   1.000  C
  H21      1.0000 0.93640  0.93830  0.49910  Biso   1.000  H
  H22      1.0000 0.93400  0.79370  0.46660  Biso   1.000  H
  C21      1.0000 0.98606  0.59720  0.58410  Biso   1.000  C
  H23      1.0000 0.99680  0.49580  0.59860  Biso   1.000  H
  H24      1.0000 0.99350  0.66070  0.61540  Biso   1.000  H
  C22      1.0000 0.91976  0.47550  0.50048  Biso   1.000  C
  H25      1.0000 0.88740  0.48080  0.47780  Biso   1.000  H
  H26      1.0000 0.92880  0.37830  0.51960  Biso   1.000  H
  C23      1.0000 0.92057  0.74650  0.52330  Biso   1.000  C
  H27      1.0000 0.92400  0.80220  0.55390  Biso   1.000  H
  H28      1.0000 0.88890  0.74060  0.49250  Biso   1.000  H
  C24      1.0000 0.16849  0.37830  0.39604  Biso   1.000  C
  H29      1.0000 0.15650  0.27890  0.39390  Biso   1.000  H
  H30      1.0000 0.14380  0.44940  0.37700  Biso   1.000  H
  C25      1.0000 0.20470  0.52600  0.36670  Biso   1.000  C
  H31      1.0000 0.17900  0.59070  0.34210  Biso   1.000  H
  H32      1.0000 0.22110  0.51920  0.35090  Biso   1.000  H
  C26      1.0000 0.23447  0.59860  0.42470  Biso   1.000  C
  H33      1.0000 0.23800  0.70530  0.42050  Biso   1.000  H
  H34      1.0000 0.26380  0.55210  0.44590  Biso   1.000  H
  C27      1.0000 0.21517  0.58140  0.45730  Biso   1.000  C
  H35      1.0000 0.23750  0.61280  0.49610  Biso   1.000  H
  H36      1.0000 0.18960  0.64810  0.44100  Biso   1.000  H
  C28      1.0000 0.17995  0.41950  0.48630  Biso   1.000  C
  H37      1.0000 0.15940  0.33460  0.47250  Biso   1.000  H
  H38      1.0000 0.16300  0.51170  0.47820  Biso   1.000  H
  C29      1.0000 0.21538  0.40430  0.54964  Biso   1.000  C
  H39      1.0000 0.23560  0.49000  0.56390  Biso   1.000  H
  H40      1.0000 0.20140  0.40220  0.56860  Biso   1.000  H
  C30      1.0000 0.28146  0.25070  0.62038  Biso   1.000  C
  H41      1.0000 0.29830  0.34390  0.62990  Biso   1.000  H
  H42      1.0000 0.27230  0.24290  0.64490  Biso   1.000  H
  O7       1.0000 0.69847  0.58070  0.45298  Biso   1.000  O
  O8       1.0000 0.66439  0.55330  0.49413  Biso   1.000  O
  O9       1.0000 0.41413  0.22090  0.37838  Biso   1.000  O
  O10      1.0000 0.48769  0.18470  0.44343  Biso   1.000  O
  O11      1.0000 0.50165  0.67680  0.30251  Biso   1.000  O
  O12      1.0000 0.55666  0.07560  0.29425  Biso   1.000  O
  N7       1.0000 0.68898  0.87470  0.36722  Biso   1.000  N
  N8       1.0000 0.70098  0.92350  0.45692  Biso   1.000  N
  N9       1.0000 0.74033  0.76230  0.56070  Biso   1.000  N
  H43      1.0000 0.72060  0.67840  0.55430  Biso   1.000  H
  N10      1.0000 0.43823  0.09310  0.54267  Biso   1.000  N
  N11      1.0000 0.43301  0.98090  0.46174  Biso   1.000  N
  H44      1.0000 0.41850  0.06970  0.43740  Biso   1.000  H
  N12      1.0000 0.50939  0.15640  0.56065  Biso   1.000  N
  C31      1.0000 0.47125  0.78150  0.25900  Biso   1.000  C
  H45      1.0000 0.45630  0.84160  0.27060  Biso   1.000  H
  H46      1.0000 0.44880  0.72820  0.22440  Biso   1.000  H
  C32      1.0000 0.52990  0.98070  0.30258  Biso   1.000  C
  H47      1.0000 0.51170  0.04250  0.30870  Biso   1.000  H
  H48      1.0000 0.54900  0.91690  0.33550  Biso   1.000  H
  C33      1.0000 0.48583  0.56730  0.31916  Biso   1.000  C
  C34      1.0000 0.51880  0.47110  0.36050  Biso   1.000  C
  H49      1.0000 0.54790  0.47810  0.37160  Biso   1.000  H
  C35      1.0000 0.50837  0.36550  0.38500  Biso   1.000  C
  H50      1.0000 0.53070  0.30310  0.41350  Biso   1.000  H
  C36      1.0000 0.46437  0.35080  0.36765  Biso   1.000  C
  C37      1.0000 0.43192  0.44240  0.32378  Biso   1.000  C
  H51      1.0000 0.40230  0.43010  0.31030  Biso   1.000  H
  C38      1.0000 0.44186  0.55170  0.29916  Biso   1.000  C
  H52      1.0000 0.41950  0.61250  0.27000  Biso   1.000  H
  C39      1.0000 0.58329  0.18170  0.33546  Biso   1.000  C
  C40      1.0000 0.59035  0.18780  0.38684  Biso   1.000  C
  H53      1.0000 0.57700  0.11740  0.39580  Biso   1.000  H
  C41      1.0000 0.61771  0.30030  0.42498  Biso   1.000  C
  H54      1.0000 0.62170  0.30650  0.45920  Biso   1.000  H
  C42      1.0000 0.63913  0.40330  0.41365  Biso   1.000  C
  C43      1.0000 0.66975  0.52140  0.45707  Biso   1.000  C
  C44      1.0000 0.63231  0.39190  0.36210  Biso   1.000  C
  H55      1.0000 0.64690  0.45900  0.35380  Biso   1.000  H
  C45      1.0000 0.60457  0.28390  0.32310  Biso   1.000  C
  H56      1.0000 0.60000  0.27910  0.28850  Biso   1.000  H
  C46      1.0000 0.45488  0.24480  0.39880  Biso   1.000  C
  C47      1.0000 0.41791  0.84630  0.42430  Biso   1.000  C
  H57      1.0000 0.38570  0.85000  0.39570  Biso   1.000  H
  H58      1.0000 0.42520  0.75460  0.44620  Biso   1.000  H
  C48      1.0000 0.55877  0.15450  0.60394  Biso   1.000  C
  H59      1.0000 0.56740  0.06520  0.62750  Biso   1.000  H
  H60      1.0000 0.56800  0.24290  0.62800  Biso   1.000  H
  C49      1.0000 0.49517  0.31660  0.54440  Biso   1.000  C
  H61      1.0000 0.50830  0.35730  0.52680  Biso   1.000  H
  H62      1.0000 0.50630  0.37560  0.57810  Biso   1.000  H
  C50      1.0000 0.44429  0.33200  0.50340  Biso   1.000  C
  H63      1.0000 0.43640  0.43830  0.49910  Biso   1.000  H
  H64      1.0000 0.43400  0.29370  0.46660  Biso   1.000  H
  C51      1.0000 0.48606  0.09720  0.58410  Biso   1.000  C
  H65      1.0000 0.49680  0.99580  0.59860  Biso   1.000  H
  H66      1.0000 0.49350  0.16070  0.61540  Biso   1.000  H
  C52      1.0000 0.41976  0.97550  0.50048  Biso   1.000  C
  H67      1.0000 0.38740  0.98080  0.47780  Biso   1.000  H
  H68      1.0000 0.42880  0.87830  0.51960  Biso   1.000  H
  C53      1.0000 0.42057  0.24650  0.52330  Biso   1.000  C
  H69      1.0000 0.42400  0.30220  0.55390  Biso   1.000  H
  H70      1.0000 0.38890  0.24060  0.49250  Biso   1.000  H
  C54      1.0000 0.66849  0.87830  0.39604  Biso   1.000  C
  H71      1.0000 0.65650  0.77890  0.39390  Biso   1.000  H
  H72      1.0000 0.64380  0.94940  0.37700  Biso   1.000  H
  C55      1.0000 0.70470  0.02600  0.36670  Biso   1.000  C
  H73      1.0000 0.67900  0.09070  0.34210  Biso   1.000  H
  H74      1.0000 0.72110  0.01920  0.35090  Biso   1.000  H
  C56      1.0000 0.73447  0.09860  0.42470  Biso   1.000  C
  H75      1.0000 0.73800  0.20530  0.42050  Biso   1.000  H
  H76      1.0000 0.76380  0.05210  0.44590  Biso   1.000  H
  C57      1.0000 0.71517  0.08140  0.45730  Biso   1.000  C
  H77      1.0000 0.73750  0.11280  0.49610  Biso   1.000  H
  H78      1.0000 0.68960  0.14810  0.44100  Biso   1.000  H
  C58      1.0000 0.67995  0.91950  0.48630  Biso   1.000  C
  H79      1.0000 0.65940  0.83460  0.47250  Biso   1.000  H
  H80      1.0000 0.66300  0.01170  0.47820  Biso   1.000  H
  C59      1.0000 0.71538  0.90430  0.54964  Biso   1.000  C
  H81      1.0000 0.73560  0.99000  0.56390  Biso   1.000  H
  H82      1.0000 0.70140  0.90220  0.56860  Biso   1.000  H
  C60      1.0000 0.78146  0.75070  0.62038  Biso   1.000  C
  H83      1.0000 0.79830  0.84390  0.62990  Biso   1.000  H
  H84      1.0000 0.77230  0.74290  0.64490  Biso   1.000  H
  O13      1.0000 0.80153  0.08070  0.04702  Biso   1.000  O
  O14      1.0000 0.83561  0.05330  0.00587  Biso   1.000  O
  O15      1.0000 0.08587  0.72090  0.12162  Biso   1.000  O
  O16      1.0000 0.01231  0.68470  0.05657  Biso   1.000  O
  O17      1.0000 0.99835  0.17680  0.19749  Biso   1.000  O
  O18      1.0000 0.94334  0.57560  0.20575  Biso   1.000  O
  N13      1.0000 0.81102  0.37470  0.13278  Biso   1.000  N
  N14      1.0000 0.79902  0.42350  0.04308  Biso   1.000  N
  N15      1.0000 0.75967  0.26230  0.93930  Biso   1.000  N
  H85      1.0000 0.77940  0.17840  0.94570  Biso   1.000  H
  N16      1.0000 0.06177  0.59310  0.95733  Biso   1.000  N
  N17      1.0000 0.06699  0.48090  0.03826  Biso   1.000  N
  H86      1.0000 0.08150  0.56970  0.06260  Biso   1.000  H
  N18      1.0000 0.99061  0.65640  0.93935  Biso   1.000  N
  C61      1.0000 0.02875  0.28150  0.24100  Biso   1.000  C
  H87      1.0000 0.04370  0.34160  0.22940  Biso   1.000  H
  H88      1.0000 0.05120  0.22820  0.27560  Biso   1.000  H
  C62      1.0000 0.97010  0.48070  0.19742  Biso   1.000  C
  H89      1.0000 0.98830  0.54250  0.19130  Biso   1.000  H
  H90      1.0000 0.95100  0.41690  0.16450  Biso   1.000  H
  C63      1.0000 0.01417  0.06730  0.18084  Biso   1.000  C
  C64      1.0000 0.98120  0.97110  0.13950  Biso   1.000  C
  H91      1.0000 0.95210  0.97810  0.12840  Biso   1.000  H
  C65      1.0000 0.99163  0.86550  0.11500  Biso   1.000  C
  H92      1.0000 0.96930  0.80310  0.08650  Biso   1.000  H
  C66      1.0000 0.03563  0.85080  0.13235  Biso   1.000  C
  C67      1.0000 0.06808  0.94240  0.17622  Biso   1.000  C
  H93      1.0000 0.09770  0.93010  0.18970  Biso   1.000  H
  C68      1.0000 0.05814  0.05170  0.20084  Biso   1.000  C
  H94      1.0000 0.08050  0.11250  0.23000  Biso   1.000  H
  C69      1.0000 0.91671  0.68170  0.16454  Biso   1.000  C
  C70      1.0000 0.90965  0.68780  0.11316  Biso   1.000  C
  H95      1.0000 0.92300  0.61740  0.10420  Biso   1.000  H
  C71      1.0000 0.88229  0.80030  0.07502  Biso   1.000  C
  H96      1.0000 0.87830  0.80650  0.04080  Biso   1.000  H
  C72      1.0000 0.86087  0.90330  0.08635  Biso   1.000  C
  C73      1.0000 0.83025  0.02140  0.04293  Biso   1.000  C
  C74      1.0000 0.86769  0.89190  0.13790  Biso   1.000  C
  H97      1.0000 0.85310  0.95900  0.14620  Biso   1.000  H
  C75      1.0000 0.89543  0.78390  0.17690  Biso   1.000  C
  H98      1.0000 0.90000  0.77910  0.21150  Biso   1.000  H
  C76      1.0000 0.04512  0.74480  0.10120  Biso   1.000  C
  C77      1.0000 0.08209  0.34630  0.07570  Biso   1.000  C
  H99      1.0000 0.11430  0.35000  0.10430  Biso   1.000  H
  H100     1.0000 0.07480  0.25460  0.05380  Biso   1.000  H
  C78      1.0000 0.94123  0.65450  0.89606  Biso   1.000  C
  H101     1.0000 0.93260  0.56520  0.87250  Biso   1.000  H
  H102     1.0000 0.93200  0.74290  0.87200  Biso   1.000  H
  C79      1.0000 0.00483  0.81660  0.95560  Biso   1.000  C
  H103     1.0000 0.99170  0.85730  0.97320  Biso   1.000  H
  H104     1.0000 0.99370  0.87560  0.92190  Biso   1.000  H
  C80      1.0000 0.05571  0.83200  0.99660  Biso   1.000  C
  H105     1.0000 0.06360  0.93830  0.00090  Biso   1.000  H
  H106     1.0000 0.06600  0.79370  0.03340  Biso   1.000  H
  C81      1.0000 0.01394  0.59720  0.91590  Biso   1.000  C
  H107     1.0000 0.00320  0.49580  0.90140  Biso   1.000  H
  H108     1.0000 0.00650  0.66070  0.88460  Biso   1.000  H
  C82      1.0000 0.08024  0.47550  0.99952  Biso   1.000  C
  H109     1.0000 0.11260  0.48080  0.02220  Biso   1.000  H
  H110     1.0000 0.07120  0.37830  0.98040  Biso   1.000  H
  C83      1.0000 0.07943  0.74650  0.97670  Biso   1.000  C
  H111     1.0000 0.07600  0.80220  0.94610  Biso   1.000  H
  H112     1.0000 0.11110  0.74060  0.00750  Biso   1.000  H
  C84      1.0000 0.83151  0.37830  0.10396  Biso   1.000  C
  H113     1.0000 0.84350  0.27890  0.10610  Biso   1.000  H
  H114     1.0000 0.85620  0.44940  0.12300  Biso   1.000  H
  C85      1.0000 0.79530  0.52600  0.13330  Biso   1.000  C
  H115     1.0000 0.82100  0.59070  0.15790  Biso   1.000  H
  H116     1.0000 0.77890  0.51920  0.14910  Biso   1.000  H
  C86      1.0000 0.76553  0.59860  0.07530  Biso   1.000  C
  H117     1.0000 0.76200  0.70530  0.07950  Biso   1.000  H
  H118     1.0000 0.73620  0.55210  0.05410  Biso   1.000  H
  C87      1.0000 0.78483  0.58140  0.04270  Biso   1.000  C
  H119     1.0000 0.76250  0.61280  0.00390  Biso   1.000  H
  H120     1.0000 0.81040  0.64810  0.05900  Biso   1.000  H
  C88      1.0000 0.82005  0.41950  0.01370  Biso   1.000  C
  H121     1.0000 0.84060  0.33460  0.02750  Biso   1.000  H
  H122     1.0000 0.83700  0.51170  0.02180  Biso   1.000  H
  C89      1.0000 0.78462  0.40430  0.95036  Biso   1.000  C
  H123     1.0000 0.76440  0.49000  0.93610  Biso   1.000  H
  H124     1.0000 0.79860  0.40220  0.93140  Biso   1.000  H
  C90      1.0000 0.71854  0.25070  0.87962  Biso   1.000  C
  H125     1.0000 0.70170  0.34390  0.87010  Biso   1.000  H
  H126     1.0000 0.72770  0.24290  0.85510  Biso   1.000  H
  O19      1.0000 0.30153  0.58070  0.04702  Biso   1.000  O
  O20      1.0000 0.33561  0.55330  0.00587  Biso   1.000  O
  O21      1.0000 0.58587  0.22090  0.12162  Biso   1.000  O
  O22      1.0000 0.51231  0.18470  0.05657  Biso   1.000  O
  O23      1.0000 0.49835  0.67680  0.19749  Biso   1.000  O
  O24      1.0000 0.44334  0.07560  0.20575  Biso   1.000  O
  N19      1.0000 0.31102  0.87470  0.13278  Biso   1.000  N
  N20      1.0000 0.29902  0.92350  0.04308  Biso   1.000  N
  N21      1.0000 0.25967  0.76230  0.93930  Biso   1.000  N
  H127     1.0000 0.27940  0.67840  0.94570  Biso   1.000  H
  N22      1.0000 0.56177  0.09310  0.95733  Biso   1.000  N
  N23      1.0000 0.56699  0.98090  0.03826  Biso   1.000  N
  H128     1.0000 0.58150  0.06970  0.06260  Biso   1.000  H
  N24      1.0000 0.49061  0.15640  0.93935  Biso   1.000  N
  C91      1.0000 0.52875  0.78150  0.24100  Biso   1.000  C
  H129     1.0000 0.54370  0.84160  0.22940  Biso   1.000  H
  H130     1.0000 0.55120  0.72820  0.27560  Biso   1.000  H
  C92      1.0000 0.47010  0.98070  0.19742  Biso   1.000  C
  H131     1.0000 0.48830  0.04250  0.19130  Biso   1.000  H
  H132     1.0000 0.45100  0.91690  0.16450  Biso   1.000  H
  C93      1.0000 0.51417  0.56730  0.18084  Biso   1.000  C
  C94      1.0000 0.48120  0.47110  0.13950  Biso   1.000  C
  H133     1.0000 0.45210  0.47810  0.12840  Biso   1.000  H
  C95      1.0000 0.49163  0.36550  0.11500  Biso   1.000  C
  H134     1.0000 0.46930  0.30310  0.08650  Biso   1.000  H
  C96      1.0000 0.53563  0.35080  0.13235  Biso   1.000  C
  C97      1.0000 0.56808  0.44240  0.17622  Biso   1.000  C
  H135     1.0000 0.59770  0.43010  0.18970  Biso   1.000  H
  C98      1.0000 0.55814  0.55170  0.20084  Biso   1.000  C
  H136     1.0000 0.58050  0.61250  0.23000  Biso   1.000  H
  C99      1.0000 0.41671  0.18170  0.16454  Biso   1.000  C
  C100     1.0000 0.40965  0.18780  0.11316  Biso   1.000  C
  H137     1.0000 0.42300  0.11740  0.10420  Biso   1.000  H
  C101     1.0000 0.38229  0.30030  0.07502  Biso   1.000  C
  H138     1.0000 0.37830  0.30650  0.04080  Biso   1.000  H
  C102     1.0000 0.36087  0.40330  0.08635  Biso   1.000  C
  C103     1.0000 0.33025  0.52140  0.04293  Biso   1.000  C
  C104     1.0000 0.36769  0.39190  0.13790  Biso   1.000  C
  H139     1.0000 0.35310  0.45900  0.14620  Biso   1.000  H
  C105     1.0000 0.39543  0.28390  0.17690  Biso   1.000  C
  H140     1.0000 0.40000  0.27910  0.21150  Biso   1.000  H
  C106     1.0000 0.54512  0.24480  0.10120  Biso   1.000  C
  C107     1.0000 0.58209  0.84630  0.07570  Biso   1.000  C
  H141     1.0000 0.61430  0.85000  0.10430  Biso   1.000  H
  H142     1.0000 0.57480  0.75460  0.05380  Biso   1.000  H
  C108     1.0000 0.44123  0.15450  0.89606  Biso   1.000  C
  H143     1.0000 0.43260  0.06520  0.87250  Biso   1.000  H
  H144     1.0000 0.43200  0.24290  0.87200  Biso   1.000  H
  C109     1.0000 0.50483  0.31660  0.95560  Biso   1.000  C
  H145     1.0000 0.49170  0.35730  0.97320  Biso   1.000  H
  H146     1.0000 0.49370  0.37560  0.92190  Biso   1.000  H
  C110     1.0000 0.55571  0.33200  0.99660  Biso   1.000  C
  H147     1.0000 0.56360  0.43830  0.00090  Biso   1.000  H
  H148     1.0000 0.56600  0.29370  0.03340  Biso   1.000  H
  C111     1.0000 0.51394  0.09720  0.91590  Biso   1.000  C
  H149     1.0000 0.50320  0.99580  0.90140  Biso   1.000  H
  H150     1.0000 0.50650  0.16070  0.88460  Biso   1.000  H
  C112     1.0000 0.58024  0.97550  0.99952  Biso   1.000  C
  H151     1.0000 0.61260  0.98080  0.02220  Biso   1.000  H
  H152     1.0000 0.57120  0.87830  0.98040  Biso   1.000  H
  C113     1.0000 0.57943  0.24650  0.97670  Biso   1.000  C
  H153     1.0000 0.57600  0.30220  0.94610  Biso   1.000  H
  H154     1.0000 0.61110  0.24060  0.00750  Biso   1.000  H
  C114     1.0000 0.33151  0.87830  0.10396  Biso   1.000  C
  H155     1.0000 0.34350  0.77890  0.10610  Biso   1.000  H
  H156     1.0000 0.35620  0.94940  0.12300  Biso   1.000  H
  C115     1.0000 0.29530  0.02600  0.13330  Biso   1.000  C
  H157     1.0000 0.32100  0.09070  0.15790  Biso   1.000  H
  H158     1.0000 0.27890  0.01920  0.14910  Biso   1.000  H
  C116     1.0000 0.26553  0.09860  0.07530  Biso   1.000  C
  H159     1.0000 0.26200  0.20530  0.07950  Biso   1.000  H
  H160     1.0000 0.23620  0.05210  0.05410  Biso   1.000  H
  C117     1.0000 0.28483  0.08140  0.04270  Biso   1.000  C
  H161     1.0000 0.26250  0.11280  0.00390  Biso   1.000  H
  H162     1.0000 0.31040  0.14810  0.05900  Biso   1.000  H
  C118     1.0000 0.32005  0.91950  0.01370  Biso   1.000  C
  H163     1.0000 0.34060  0.83460  0.02750  Biso   1.000  H
  H164     1.0000 0.33700  0.01170  0.02180  Biso   1.000  H
  C119     1.0000 0.28462  0.90430  0.95036  Biso   1.000  C
  H165     1.0000 0.26440  0.99000  0.93610  Biso   1.000  H
  H166     1.0000 0.29860  0.90220  0.93140  Biso   1.000  H
  C120     1.0000 0.21854  0.75070  0.87962  Biso   1.000  C
  H167     1.0000 0.20170  0.84390  0.87010  Biso   1.000  H
  H168     1.0000 0.22770  0.74290  0.85510  Biso   1.000  H
  O25      1.0000 0.80153  0.91930  0.54702  Biso   1.000  O
  O26      1.0000 0.83561  0.94670  0.50587  Biso   1.000  O
  O27      1.0000 0.08587  0.27910  0.62162  Biso   1.000  O
  O28      1.0000 0.01231  0.31530  0.55657  Biso   1.000  O
  O29      1.0000 0.99835  0.82320  0.69749  Biso   1.000  O
  O30      1.0000 0.94334  0.42440  0.70575  Biso   1.000  O
  N25      1.0000 0.81102  0.62530  0.63278  Biso   1.000  N
  N26      1.0000 0.79902  0.57650  0.54308  Biso   1.000  N
  N27      1.0000 0.75967  0.73770  0.43930  Biso   1.000  N
  H169     1.0000 0.77940  0.82160  0.44570  Biso   1.000  H
  N28      1.0000 0.06177  0.40690  0.45733  Biso   1.000  N
  N29      1.0000 0.06699  0.51910  0.53826  Biso   1.000  N
  H170     1.0000 0.08150  0.43030  0.56260  Biso   1.000  H
  N30      1.0000 0.99061  0.34360  0.43935  Biso   1.000  N
  C121     1.0000 0.02875  0.71850  0.74100  Biso   1.000  C
  H171     1.0000 0.04370  0.65840  0.72940  Biso   1.000  H
  H172     1.0000 0.05120  0.77180  0.77560  Biso   1.000  H
  C122     1.0000 0.97010  0.51930  0.69742  Biso   1.000  C
  H173     1.0000 0.98830  0.45750  0.69130  Biso   1.000  H
  H174     1.0000 0.95100  0.58310  0.66450  Biso   1.000  H
  C123     1.0000 0.01417  0.93270  0.68084  Biso   1.000  C
  C124     1.0000 0.98120  0.02890  0.63950  Biso   1.000  C
  H175     1.0000 0.95210  0.02190  0.62840  Biso   1.000  H
  C125     1.0000 0.99163  0.13450  0.61500  Biso   1.000  C
  H176     1.0000 0.96930  0.19690  0.58650  Biso   1.000  H
  C126     1.0000 0.03563  0.14920  0.63235  Biso   1.000  C
  C127     1.0000 0.06808  0.05760  0.67622  Biso   1.000  C
  H177     1.0000 0.09770  0.06990  0.68970  Biso   1.000  H
  C128     1.0000 0.05814  0.94830  0.70084  Biso   1.000  C
  H178     1.0000 0.08050  0.88750  0.73000  Biso   1.000  H
  C129     1.0000 0.91671  0.31830  0.66454  Biso   1.000  C
  C130     1.0000 0.90965  0.31220  0.61316  Biso   1.000  C
  H179     1.0000 0.92300  0.38260  0.60420  Biso   1.000  H
  C131     1.0000 0.88229  0.19970  0.57502  Biso   1.000  C
  H180     1.0000 0.87830  0.19350  0.54080  Biso   1.000  H
  C132     1.0000 0.86087  0.09670  0.58635  Biso   1.000  C
  C133     1.0000 0.83025  0.97860  0.54293  Biso   1.000  C
  C134     1.0000 0.86769  0.10810  0.63790  Biso   1.000  C
  H181     1.0000 0.85310  0.04100  0.64620  Biso   1.000  H
  C135     1.0000 0.89543  0.21610  0.67690  Biso   1.000  C
  H182     1.0000 0.90000  0.22090  0.71150  Biso   1.000  H
  C136     1.0000 0.04512  0.25520  0.60120  Biso   1.000  C
  C137     1.0000 0.08209  0.65370  0.57570  Biso   1.000  C
  H183     1.0000 0.11430  0.65000  0.60430  Biso   1.000  H
  H184     1.0000 0.07480  0.74540  0.55380  Biso   1.000  H
  C138     1.0000 0.94123  0.34550  0.39606  Biso   1.000  C
  H185     1.0000 0.93260  0.43480  0.37250  Biso   1.000  H
  H186     1.0000 0.93200  0.25710  0.37200  Biso   1.000  H
  C139     1.0000 0.00483  0.18340  0.45560  Biso   1.000  C
  H187     1.0000 0.99170  0.14270  0.47320  Biso   1.000  H
  H188     1.0000 0.99370  0.12440  0.42190  Biso   1.000  H
  C140     1.0000 0.05571  0.16800  0.49660  Biso   1.000  C
  H189     1.0000 0.06360  0.06170  0.50090  Biso   1.000  H
  H190     1.0000 0.06600  0.20630  0.53340  Biso   1.000  H
  C141     1.0000 0.01394  0.40280  0.41590  Biso   1.000  C
  H191     1.0000 0.00320  0.50420  0.40140  Biso   1.000  H
  H192     1.0000 0.00650  0.33930  0.38460  Biso   1.000  H
  C142     1.0000 0.08024  0.52450  0.49952  Biso   1.000  C
  H193     1.0000 0.11260  0.51920  0.52220  Biso   1.000  H
  H194     1.0000 0.07120  0.62170  0.48040  Biso   1.000  H
  C143     1.0000 0.07943  0.25350  0.47670  Biso   1.000  C
  H195     1.0000 0.07600  0.19780  0.44610  Biso   1.000  H
  H196     1.0000 0.11110  0.25940  0.50750  Biso   1.000  H
  C144     1.0000 0.83151  0.62170  0.60396  Biso   1.000  C
  H197     1.0000 0.84350  0.72110  0.60610  Biso   1.000  H
  H198     1.0000 0.85620  0.55060  0.62300  Biso   1.000  H
  C145     1.0000 0.79530  0.47400  0.63330  Biso   1.000  C
  H199     1.0000 0.82100  0.40930  0.65790  Biso   1.000  H
  H200     1.0000 0.77890  0.48080  0.64910  Biso   1.000  H
  C146     1.0000 0.76553  0.40140  0.57530  Biso   1.000  C
  H201     1.0000 0.76200  0.29470  0.57950  Biso   1.000  H
  H202     1.0000 0.73620  0.44790  0.55410  Biso   1.000  H
  C147     1.0000 0.78483  0.41860  0.54270  Biso   1.000  C
  H203     1.0000 0.76250  0.38720  0.50390  Biso   1.000  H
  H204     1.0000 0.81040  0.35190  0.55900  Biso   1.000  H
  C148     1.0000 0.82005  0.58050  0.51370  Biso   1.000  C
  H205     1.0000 0.84060  0.66540  0.52750  Biso   1.000  H
  H206     1.0000 0.83700  0.48830  0.52180  Biso   1.000  H
  C149     1.0000 0.78462  0.59570  0.45036  Biso   1.000  C
  H207     1.0000 0.76440  0.51000  0.43610  Biso   1.000  H
  H208     1.0000 0.79860  0.59780  0.43140  Biso   1.000  H
  C150     1.0000 0.71854  0.74930  0.37962  Biso   1.000  C
  H209     1.0000 0.70170  0.65610  0.37010  Biso   1.000  H
  H210     1.0000 0.72770  0.75710  0.35510  Biso   1.000  H
  O31      1.0000 0.30153  0.41930  0.54702  Biso   1.000  O
  O32      1.0000 0.33561  0.44670  0.50587  Biso   1.000  O
  O33      1.0000 0.58587  0.77910  0.62162  Biso   1.000  O
  O34      1.0000 0.51231  0.81530  0.55657  Biso   1.000  O
  O35      1.0000 0.49835  0.32320  0.69749  Biso   1.000  O
  O36      1.0000 0.44334  0.92440  0.70575  Biso   1.000  O
  N31      1.0000 0.31102  0.12530  0.63278  Biso   1.000  N
  N32      1.0000 0.29902  0.07650  0.54308  Biso   1.000  N
  N33      1.0000 0.25967  0.23770  0.43930  Biso   1.000  N
  H211     1.0000 0.27940  0.32160  0.44570  Biso   1.000  H
  N34      1.0000 0.56177  0.90690  0.45733  Biso   1.000  N
  N35      1.0000 0.56699  0.01910  0.53826  Biso   1.000  N
  H212     1.0000 0.58150  0.93030  0.56260  Biso   1.000  H
  N36      1.0000 0.49061  0.84360  0.43935  Biso   1.000  N
  C151     1.0000 0.52875  0.21850  0.74100  Biso   1.000  C
  H213     1.0000 0.54370  0.15840  0.72940  Biso   1.000  H
  H214     1.0000 0.55120  0.27180  0.77560  Biso   1.000  H
  C152     1.0000 0.47010  0.01930  0.69742  Biso   1.000  C
  H215     1.0000 0.48830  0.95750  0.69130  Biso   1.000  H
  H216     1.0000 0.45100  0.08310  0.66450  Biso   1.000  H
  C153     1.0000 0.51417  0.43270  0.68084  Biso   1.000  C
  C154     1.0000 0.48120  0.52890  0.63950  Biso   1.000  C
  H217     1.0000 0.45210  0.52190  0.62840  Biso   1.000  H
  C155     1.0000 0.49163  0.63450  0.61500  Biso   1.000  C
  H218     1.0000 0.46930  0.69690  0.58650  Biso   1.000  H
  C156     1.0000 0.53563  0.64920  0.63235  Biso   1.000  C
  C157     1.0000 0.56808  0.55760  0.67622  Biso   1.000  C
  H219     1.0000 0.59770  0.56990  0.68970  Biso   1.000  H
  C158     1.0000 0.55814  0.44830  0.70084  Biso   1.000  C
  H220     1.0000 0.58050  0.38750  0.73000  Biso   1.000  H
  C159     1.0000 0.41671  0.81830  0.66454  Biso   1.000  C
  C160     1.0000 0.40965  0.81220  0.61316  Biso   1.000  C
  H221     1.0000 0.42300  0.88260  0.60420  Biso   1.000  H
  C161     1.0000 0.38229  0.69970  0.57502  Biso   1.000  C
  H222     1.0000 0.37830  0.69350  0.54080  Biso   1.000  H
  C162     1.0000 0.36087  0.59670  0.58635  Biso   1.000  C
  C163     1.0000 0.33025  0.47860  0.54293  Biso   1.000  C
  C164     1.0000 0.36769  0.60810  0.63790  Biso   1.000  C
  H223     1.0000 0.35310  0.54100  0.64620  Biso   1.000  H
  C165     1.0000 0.39543  0.71610  0.67690  Biso   1.000  C
  H224     1.0000 0.40000  0.72090  0.71150  Biso   1.000  H
  C166     1.0000 0.54512  0.75520  0.60120  Biso   1.000  C
  C167     1.0000 0.58209  0.15370  0.57570  Biso   1.000  C
  H225     1.0000 0.61430  0.15000  0.60430  Biso   1.000  H
  H226     1.0000 0.57480  0.24540  0.55380  Biso   1.000  H
  C168     1.0000 0.44123  0.84550  0.39606  Biso   1.000  C
  H227     1.0000 0.43260  0.93480  0.37250  Biso   1.000  H
  H228     1.0000 0.43200  0.75710  0.37200  Biso   1.000  H
  C169     1.0000 0.50483  0.68340  0.45560  Biso   1.000  C
  H229     1.0000 0.49170  0.64270  0.47320  Biso   1.000  H
  H230     1.0000 0.49370  0.62440  0.42190  Biso   1.000  H
  C170     1.0000 0.55571  0.66800  0.49660  Biso   1.000  C
  H231     1.0000 0.56360  0.56170  0.50090  Biso   1.000  H
  H232     1.0000 0.56600  0.70630  0.53340  Biso   1.000  H
  C171     1.0000 0.51394  0.90280  0.41590  Biso   1.000  C
  H233     1.0000 0.50320  0.00420  0.40140  Biso   1.000  H
  H234     1.0000 0.50650  0.83930  0.38460  Biso   1.000  H
  C172     1.0000 0.58024  0.02450  0.49952  Biso   1.000  C
  H235     1.0000 0.61260  0.01920  0.52220  Biso   1.000  H
  H236     1.0000 0.57120  0.12170  0.48040  Biso   1.000  H
  C173     1.0000 0.57943  0.75350  0.47670  Biso   1.000  C
  H237     1.0000 0.57600  0.69780  0.44610  Biso   1.000  H
  H238     1.0000 0.61110  0.75940  0.50750  Biso   1.000  H
  C174     1.0000 0.33151  0.12170  0.60396  Biso   1.000  C
  H239     1.0000 0.34350  0.22110  0.60610  Biso   1.000  H
  H240     1.0000 0.35620  0.05060  0.62300  Biso   1.000  H
  C175     1.0000 0.29530  0.97400  0.63330  Biso   1.000  C
  H241     1.0000 0.32100  0.90930  0.65790  Biso   1.000  H
  H242     1.0000 0.27890  0.98080  0.64910  Biso   1.000  H
  C176     1.0000 0.26553  0.90140  0.57530  Biso   1.000  C
  H243     1.0000 0.26200  0.79470  0.57950  Biso   1.000  H
  H244     1.0000 0.23620  0.94790  0.55410  Biso   1.000  H
  C177     1.0000 0.28483  0.91860  0.54270  Biso   1.000  C
  H245     1.0000 0.26250  0.88720  0.50390  Biso   1.000  H
  H246     1.0000 0.31040  0.85190  0.55900  Biso   1.000  H
  C178     1.0000 0.32005  0.08050  0.51370  Biso   1.000  C
  H247     1.0000 0.34060  0.16540  0.52750  Biso   1.000  H
  H248     1.0000 0.33700  0.98830  0.52180  Biso   1.000  H
  C179     1.0000 0.28462  0.09570  0.45036  Biso   1.000  C
  H249     1.0000 0.26440  0.01000  0.43610  Biso   1.000  H
  H250     1.0000 0.29860  0.09780  0.43140  Biso   1.000  H
  C180     1.0000 0.21854  0.24930  0.37962  Biso   1.000  C
  H251     1.0000 0.20170  0.15610  0.37010  Biso   1.000  H
  H252     1.0000 0.22770  0.25710  0.35510  Biso   1.000  H
  O37      1.0000 0.19847  0.91930  0.95298  Biso   1.000  O
  O38      1.0000 0.16439  0.94670  0.99413  Biso   1.000  O
  O39      1.0000 0.91413  0.27910  0.87838  Biso   1.000  O
  O40      1.0000 0.98769  0.31530  0.94343  Biso   1.000  O
  O41      1.0000 0.00165  0.82320  0.80251  Biso   1.000  O
  O42      1.0000 0.05666  0.42440  0.79425  Biso   1.000  O
  N37      1.0000 0.18898  0.62530  0.86722  Biso   1.000  N
  N38      1.0000 0.20098  0.57650  0.95692  Biso   1.000  N
  N39      1.0000 0.24033  0.73770  0.06070  Biso   1.000  N
  H253     1.0000 0.22060  0.82160  0.05430  Biso   1.000  H
  N40      1.0000 0.93823  0.40690  0.04267  Biso   1.000  N
  N41      1.0000 0.93301  0.51910  0.96174  Biso   1.000  N
  H254     1.0000 0.91850  0.43030  0.93740  Biso   1.000  H
  N42      1.0000 0.00939  0.34360  0.06065  Biso   1.000  N
  C181     1.0000 0.97125  0.71850  0.75900  Biso   1.000  C
  H255     1.0000 0.95630  0.65840  0.77060  Biso   1.000  H
  H256     1.0000 0.94880  0.77180  0.72440  Biso   1.000  H
  C182     1.0000 0.02990  0.51930  0.80258  Biso   1.000  C
  H257     1.0000 0.01170  0.45750  0.80870  Biso   1.000  H
  H258     1.0000 0.04900  0.58310  0.83550  Biso   1.000  H
  C183     1.0000 0.98583  0.93270  0.81916  Biso   1.000  C
  C184     1.0000 0.01880  0.02890  0.86050  Biso   1.000  C
  H259     1.0000 0.04790  0.02190  0.87160  Biso   1.000  H
  C185     1.0000 0.00837  0.13450  0.88500  Biso   1.000  C
  H260     1.0000 0.03070  0.19690  0.91350  Biso   1.000  H
  C186     1.0000 0.96437  0.14920  0.86765  Biso   1.000  C
  C187     1.0000 0.93192  0.05760  0.82378  Biso   1.000  C
  H261     1.0000 0.90230  0.06990  0.81030  Biso   1.000  H
  C188     1.0000 0.94186  0.94830  0.79916  Biso   1.000  C
  H262     1.0000 0.91950  0.88750  0.77000  Biso   1.000  H
  C189     1.0000 0.08329  0.31830  0.83546  Biso   1.000  C
  C190     1.0000 0.09035  0.31220  0.88684  Biso   1.000  C
  H263     1.0000 0.07700  0.38260  0.89580  Biso   1.000  H
  C191     1.0000 0.11771  0.19970  0.92498  Biso   1.000  C
  H264     1.0000 0.12170  0.19350  0.95920  Biso   1.000  H
  C192     1.0000 0.13913  0.09670  0.91365  Biso   1.000  C
  C193     1.0000 0.16975  0.97860  0.95707  Biso   1.000  C
  C194     1.0000 0.13231  0.10810  0.86210  Biso   1.000  C
  H265     1.0000 0.14690  0.04100  0.85380  Biso   1.000  H
  C195     1.0000 0.10457  0.21610  0.82310  Biso   1.000  C
  H266     1.0000 0.10000  0.22090  0.78850  Biso   1.000  H
  C196     1.0000 0.95488  0.25520  0.89880  Biso   1.000  C
  C197     1.0000 0.91791  0.65370  0.92430  Biso   1.000  C
  H267     1.0000 0.88570  0.65000  0.89570  Biso   1.000  H
  H268     1.0000 0.92520  0.74540  0.94620  Biso   1.000  H
  C198     1.0000 0.05877  0.34550  0.10394  Biso   1.000  C
  H269     1.0000 0.06740  0.43480  0.12750  Biso   1.000  H
  H270     1.0000 0.06800  0.25710  0.12800  Biso   1.000  H
  C199     1.0000 0.99517  0.18340  0.04440  Biso   1.000  C
  H271     1.0000 0.00830  0.14270  0.02680  Biso   1.000  H
  H272     1.0000 0.00630  0.12440  0.07810  Biso   1.000  H
  C200     1.0000 0.94429  0.16800  0.00340  Biso   1.000  C
  H273     1.0000 0.93640  0.06170  0.99910  Biso   1.000  H
  H274     1.0000 0.93400  0.20630  0.96660  Biso   1.000  H
  C201     1.0000 0.98606  0.40280  0.08410  Biso   1.000  C
  H275     1.0000 0.99680  0.50420  0.09860  Biso   1.000  H
  H276     1.0000 0.99350  0.33930  0.11540  Biso   1.000  H
  C202     1.0000 0.91976  0.52450  0.00048  Biso   1.000  C
  H277     1.0000 0.88740  0.51920  0.97780  Biso   1.000  H
  H278     1.0000 0.92880  0.62170  0.01960  Biso   1.000  H
  C203     1.0000 0.92057  0.25350  0.02330  Biso   1.000  C
  H279     1.0000 0.92400  0.19780  0.05390  Biso   1.000  H
  H280     1.0000 0.88890  0.25940  0.99250  Biso   1.000  H
  C204     1.0000 0.16849  0.62170  0.89604  Biso   1.000  C
  H281     1.0000 0.15650  0.72110  0.89390  Biso   1.000  H
  H282     1.0000 0.14380  0.55060  0.87700  Biso   1.000  H
  C205     1.0000 0.20470  0.47400  0.86670  Biso   1.000  C
  H283     1.0000 0.17900  0.40930  0.84210  Biso   1.000  H
  H284     1.0000 0.22110  0.48080  0.85090  Biso   1.000  H
  C206     1.0000 0.23447  0.40140  0.92470  Biso   1.000  C
  H285     1.0000 0.23800  0.29470  0.92050  Biso   1.000  H
  H286     1.0000 0.26380  0.44790  0.94590  Biso   1.000  H
  C207     1.0000 0.21517  0.41860  0.95730  Biso   1.000  C
  H287     1.0000 0.23750  0.38720  0.99610  Biso   1.000  H
  H288     1.0000 0.18960  0.35190  0.94100  Biso   1.000  H
  C208     1.0000 0.17995  0.58050  0.98630  Biso   1.000  C
  H289     1.0000 0.15940  0.66540  0.97250  Biso   1.000  H
  H290     1.0000 0.16300  0.48830  0.97820  Biso   1.000  H
  C209     1.0000 0.21538  0.59570  0.04964  Biso   1.000  C
  H291     1.0000 0.23560  0.51000  0.06390  Biso   1.000  H
  H292     1.0000 0.20140  0.59780  0.06860  Biso   1.000  H
  C210     1.0000 0.28146  0.74930  0.12038  Biso   1.000  C
  H293     1.0000 0.29830  0.65610  0.12990  Biso   1.000  H
  H294     1.0000 0.27230  0.75710  0.14490  Biso   1.000  H
  O43      1.0000 0.69847  0.41930  0.95298  Biso   1.000  O
  O44      1.0000 0.66439  0.44670  0.99413  Biso   1.000  O
  O45      1.0000 0.41413  0.77910  0.87838  Biso   1.000  O
  O46      1.0000 0.48769  0.81530  0.94343  Biso   1.000  O
  O47      1.0000 0.50165  0.32320  0.80251  Biso   1.000  O
  O48      1.0000 0.55666  0.92440  0.79425  Biso   1.000  O
  N43      1.0000 0.68898  0.12530  0.86722  Biso   1.000  N
  N44      1.0000 0.70098  0.07650  0.95692  Biso   1.000  N
  N45      1.0000 0.74033  0.23770  0.06070  Biso   1.000  N
  H295     1.0000 0.72060  0.32160  0.05430  Biso   1.000  H
  N46      1.0000 0.43823  0.90690  0.04267  Biso   1.000  N
  N47      1.0000 0.43301  0.01910  0.96174  Biso   1.000  N
  H296     1.0000 0.41850  0.93030  0.93740  Biso   1.000  H
  N48      1.0000 0.50939  0.84360  0.06065  Biso   1.000  N
  C211     1.0000 0.47125  0.21850  0.75900  Biso   1.000  C
  H297     1.0000 0.45630  0.15840  0.77060  Biso   1.000  H
  H298     1.0000 0.44880  0.27180  0.72440  Biso   1.000  H
  C212     1.0000 0.52990  0.01930  0.80258  Biso   1.000  C
  H299     1.0000 0.51170  0.95750  0.80870  Biso   1.000  H
  H300     1.0000 0.54900  0.08310  0.83550  Biso   1.000  H
  C213     1.0000 0.48583  0.43270  0.81916  Biso   1.000  C
  C214     1.0000 0.51880  0.52890  0.86050  Biso   1.000  C
  H301     1.0000 0.54790  0.52190  0.87160  Biso   1.000  H
  C215     1.0000 0.50837  0.63450  0.88500  Biso   1.000  C
  H302     1.0000 0.53070  0.69690  0.91350  Biso   1.000  H
  C216     1.0000 0.46437  0.64920  0.86765  Biso   1.000  C
  C217     1.0000 0.43192  0.55760  0.82378  Biso   1.000  C
  H303     1.0000 0.40230  0.56990  0.81030  Biso   1.000  H
  C218     1.0000 0.44186  0.44830  0.79916  Biso   1.000  C
  H304     1.0000 0.41950  0.38750  0.77000  Biso   1.000  H
  C219     1.0000 0.58329  0.81830  0.83546  Biso   1.000  C
  C220     1.0000 0.59035  0.81220  0.88684  Biso   1.000  C
  H305     1.0000 0.57700  0.88260  0.89580  Biso   1.000  H
  C221     1.0000 0.61771  0.69970  0.92498  Biso   1.000  C
  H306     1.0000 0.62170  0.69350  0.95920  Biso   1.000  H
  C222     1.0000 0.63913  0.59670  0.91365  Biso   1.000  C
  C223     1.0000 0.66975  0.47860  0.95707  Biso   1.000  C
  C224     1.0000 0.63231  0.60810  0.86210  Biso   1.000  C
  H307     1.0000 0.64690  0.54100  0.85380  Biso   1.000  H
  C225     1.0000 0.60457  0.71610  0.82310  Biso   1.000  C
  H308     1.0000 0.60000  0.72090  0.78850  Biso   1.000  H
  C226     1.0000 0.45488  0.75520  0.89880  Biso   1.000  C
  C227     1.0000 0.41791  0.15370  0.92430  Biso   1.000  C
  H309     1.0000 0.38570  0.15000  0.89570  Biso   1.000  H
  H310     1.0000 0.42520  0.24540  0.94620  Biso   1.000  H
  C228     1.0000 0.55877  0.84550  0.10394  Biso   1.000  C
  H311     1.0000 0.56740  0.93480  0.12750  Biso   1.000  H
  H312     1.0000 0.56800  0.75710  0.12800  Biso   1.000  H
  C229     1.0000 0.49517  0.68340  0.04440  Biso   1.000  C
  H313     1.0000 0.50830  0.64270  0.02680  Biso   1.000  H
  H314     1.0000 0.50630  0.62440  0.07810  Biso   1.000  H
  C230     1.0000 0.44429  0.66800  0.00340  Biso   1.000  C
  H315     1.0000 0.43640  0.56170  0.99910  Biso   1.000  H
  H316     1.0000 0.43400  0.70630  0.96660  Biso   1.000  H
  C231     1.0000 0.48606  0.90280  0.08410  Biso   1.000  C
  H317     1.0000 0.49680  0.00420  0.09860  Biso   1.000  H
  H318     1.0000 0.49350  0.83930  0.11540  Biso   1.000  H
  C232     1.0000 0.41976  0.02450  0.00048  Biso   1.000  C
  H319     1.0000 0.38740  0.01920  0.97780  Biso   1.000  H
  H320     1.0000 0.42880  0.12170  0.01960  Biso   1.000  H
  C233     1.0000 0.42057  0.75350  0.02330  Biso   1.000  C
  H321     1.0000 0.42400  0.69780  0.05390  Biso   1.000  H
  H322     1.0000 0.38890  0.75940  0.99250  Biso   1.000  H
  C234     1.0000 0.66849  0.12170  0.89604  Biso   1.000  C
  H323     1.0000 0.65650  0.22110  0.89390  Biso   1.000  H
  H324     1.0000 0.64380  0.05060  0.87700  Biso   1.000  H
  C235     1.0000 0.70470  0.97400  0.86670  Biso   1.000  C
  H325     1.0000 0.67900  0.90930  0.84210  Biso   1.000  H
  H326     1.0000 0.72110  0.98080  0.85090  Biso   1.000  H
  C236     1.0000 0.73447  0.90140  0.92470  Biso   1.000  C
  H327     1.0000 0.73800  0.79470  0.92050  Biso   1.000  H
  H328     1.0000 0.76380  0.94790  0.94590  Biso   1.000  H
  C237     1.0000 0.71517  0.91860  0.95730  Biso   1.000  C
  H329     1.0000 0.73750  0.88720  0.99610  Biso   1.000  H
  H330     1.0000 0.68960  0.85190  0.94100  Biso   1.000  H
  C238     1.0000 0.67995  0.08050  0.98630  Biso   1.000  C
  H331     1.0000 0.65940  0.16540  0.97250  Biso   1.000  H
  H332     1.0000 0.66300  0.98830  0.97820  Biso   1.000  H
  C239     1.0000 0.71538  0.09570  0.04964  Biso   1.000  C
  H333     1.0000 0.73560  0.01000  0.06390  Biso   1.000  H
  H334     1.0000 0.70140  0.09780  0.06860  Biso   1.000  H
  C240     1.0000 0.78146  0.24930  0.12038  Biso   1.000  C
  H335     1.0000 0.79830  0.15610  0.12990  Biso   1.000  H
  H336     1.0000 0.77230  0.25710  0.14490  Biso   1.000  H
  Ni1      1.0000 0.00000  0.50000  0.50000  Biso   1.000  Ni
  Ni2      1.0000 0.50000  0.00000  0.50000  Biso   1.000  Ni
  Ni3      1.0000 0.00000  0.50000  0.00000  Biso   1.000  Ni
  Ni4      1.0000 0.50000  0.00000  0.00000  Biso   1.000  Ni
  Ni5      1.0000 0.25000  0.25000  0.50000  Biso   1.000  Ni
  Ni6      1.0000 0.75000  0.25000  0.00000  Biso   1.000  Ni
  Ni7      1.0000 0.75000  0.75000  0.50000  Biso   1.000  Ni
  Ni8      1.0000 0.25000  0.75000  0.00000  Biso   1.000  Ni
  C241     1.0000 0.00000  0.38300  0.25000  Biso   1.000  C
  C242     1.0000 0.50000  0.88300  0.25000  Biso   1.000  C
  C243     1.0000 0.00000  0.61700  0.75000  Biso   1.000  C
  C244     1.0000 0.50000  0.11700  0.75000  Biso   1.000  C
