data_image0
_cell_length_a       13.812
_cell_length_b       27.54
_cell_length_c       45.022
_cell_angle_alpha    90
_cell_angle_beta     90
_cell_angle_gamma    90

_symmetry_space_group_name_H-M    P 1
_symmetry_int_tables_number       1

loop_
  _symmetry_equiv_pos_as_xyz
  'x, y, z'

loop_
  _atom_site_label
  _atom_site_occupancy
  _atom_site_fract_x
  _atom_site_fract_y
  _atom_site_fract_z
  _atom_site_thermal_displace_type
  _atom_site_B_iso_or_equiv
  _atom_site_type_symbol
  Zn1      1.0000 0.14989  0.54598  0.08331  Biso   1.000  Zn
  Zn2      1.0000 0.37732  0.52592  0.91475  Biso   1.000  Zn
  Zn3      1.0000 0.67336  0.25762  0.68205  Biso   1.000  Zn
  Zn4      1.0000 0.85011  0.95402  0.58331  Biso   1.000  Zn
  Zn5      1.0000 0.62268  0.97408  0.41475  Biso   1.000  Zn
  Zn6      1.0000 0.32664  0.24238  0.18205  Biso   1.000  Zn
  Zn7      1.0000 0.64989  0.45402  0.41669  Biso   1.000  Zn
  Zn8      1.0000 0.87732  0.47408  0.58525  Biso   1.000  Zn
  Zn9      1.0000 0.17336  0.74238  0.81795  Biso   1.000  Zn
  Zn10     1.0000 0.35011  0.04598  0.91669  Biso   1.000  Zn
  Zn11     1.0000 0.12268  0.02592  0.08525  Biso   1.000  Zn
  Zn12     1.0000 0.82664  0.75762  0.31795  Biso   1.000  Zn
  H1       1.0000 0.95960  0.52840  0.05400  Biso   1.000  H
  H2       1.0000 0.87570  0.54920  0.01070  Biso   1.000  H
  H3       1.0000 0.12690  0.60380  0.97770  Biso   1.000  H
  H4       1.0000 0.20230  0.57940  0.02100  Biso   1.000  H
  H5       1.0000 0.52810  0.58280  0.88310  Biso   1.000  H
  H6       1.0000 0.68790  0.60880  0.88920  Biso   1.000  H
  H7       1.0000 0.67340  0.56390  0.97520  Biso   1.000  H
  H8       1.0000 0.51790  0.53650  0.96560  Biso   1.000  H
  H9       1.0000 0.20900  0.68880  0.87380  Biso   1.000  H
  H10      1.0000 0.12630  0.65150  0.91200  Biso   1.000  H
  H11      1.0000 0.87490  0.68500  0.87100  Biso   1.000  H
  H12      1.0000 0.96500  0.72220  0.83400  Biso   1.000  H
  H13      1.0000 0.39740  0.41900  0.92950  Biso   1.000  H
  H14      1.0000 0.41300  0.34420  0.90580  Biso   1.000  H
  H15      1.0000 0.45940  0.41610  0.82930  Biso   1.000  H
  H16      1.0000 0.43820  0.48830  0.85430  Biso   1.000  H
  H17      1.0000 0.43560  0.08050  0.85940  Biso   1.000  H
  H18      1.0000 0.46600  0.15100  0.83380  Biso   1.000  H
  H19      1.0000 0.40160  0.22650  0.90860  Biso   1.000  H
  H20      1.0000 0.37350  0.15260  0.93200  Biso   1.000  H
  H21      1.0000 0.60540  0.33820  0.72170  Biso   1.000  H
  H22      1.0000 0.54610  0.34910  0.76950  Biso   1.000  H
  H23      1.0000 0.49960  0.20350  0.77370  Biso   1.000  H
  H24      1.0000 0.55790  0.19780  0.72530  Biso   1.000  H
  H25      1.0000 0.04040  0.97160  0.55400  Biso   1.000  H
  H26      1.0000 0.12430  0.95080  0.51070  Biso   1.000  H
  H27      1.0000 0.87310  0.89620  0.47770  Biso   1.000  H
  H28      1.0000 0.79770  0.92060  0.52100  Biso   1.000  H
  H29      1.0000 0.47190  0.91720  0.38310  Biso   1.000  H
  H30      1.0000 0.31210  0.89120  0.38920  Biso   1.000  H
  H31      1.0000 0.32660  0.93610  0.47520  Biso   1.000  H
  H32      1.0000 0.48210  0.96350  0.46560  Biso   1.000  H
  H33      1.0000 0.79100  0.81120  0.37380  Biso   1.000  H
  H34      1.0000 0.87370  0.84850  0.41200  Biso   1.000  H
  H35      1.0000 0.12510  0.81500  0.37100  Biso   1.000  H
  H36      1.0000 0.03500  0.77780  0.33400  Biso   1.000  H
  H37      1.0000 0.60260  0.08100  0.42950  Biso   1.000  H
  H38      1.0000 0.58700  0.15580  0.40580  Biso   1.000  H
  H39      1.0000 0.54060  0.08390  0.32930  Biso   1.000  H
  H40      1.0000 0.56180  0.01170  0.35430  Biso   1.000  H
  H41      1.0000 0.56440  0.41950  0.35940  Biso   1.000  H
  H42      1.0000 0.53400  0.34900  0.33380  Biso   1.000  H
  H43      1.0000 0.59840  0.27350  0.40860  Biso   1.000  H
  H44      1.0000 0.62650  0.34740  0.43200  Biso   1.000  H
  H45      1.0000 0.39460  0.16180  0.22170  Biso   1.000  H
  H46      1.0000 0.45390  0.15090  0.26950  Biso   1.000  H
  H47      1.0000 0.50040  0.29650  0.27370  Biso   1.000  H
  H48      1.0000 0.44210  0.30220  0.22530  Biso   1.000  H
  H49      1.0000 0.45960  0.47160  0.44600  Biso   1.000  H
  H50      1.0000 0.37570  0.45080  0.48930  Biso   1.000  H
  H51      1.0000 0.62690  0.39620  0.52230  Biso   1.000  H
  H52      1.0000 0.70230  0.42060  0.47900  Biso   1.000  H
  H53      1.0000 0.02810  0.41720  0.61690  Biso   1.000  H
  H54      1.0000 0.18790  0.39120  0.61080  Biso   1.000  H
  H55      1.0000 0.17340  0.43610  0.52480  Biso   1.000  H
  H56      1.0000 0.01790  0.46350  0.53440  Biso   1.000  H
  H57      1.0000 0.70900  0.31120  0.62620  Biso   1.000  H
  H58      1.0000 0.62630  0.34850  0.58800  Biso   1.000  H
  H59      1.0000 0.37490  0.31500  0.62900  Biso   1.000  H
  H60      1.0000 0.46500  0.27780  0.66600  Biso   1.000  H
  H61      1.0000 0.89740  0.58100  0.57050  Biso   1.000  H
  H62      1.0000 0.91300  0.65580  0.59420  Biso   1.000  H
  H63      1.0000 0.95940  0.58390  0.67070  Biso   1.000  H
  H64      1.0000 0.93820  0.51170  0.64570  Biso   1.000  H
  H65      1.0000 0.93560  0.91950  0.64060  Biso   1.000  H
  H66      1.0000 0.96600  0.84900  0.66620  Biso   1.000  H
  H67      1.0000 0.90160  0.77350  0.59140  Biso   1.000  H
  H68      1.0000 0.87350  0.84740  0.56800  Biso   1.000  H
  H69      1.0000 0.10540  0.66180  0.77830  Biso   1.000  H
  H70      1.0000 0.04610  0.65090  0.73050  Biso   1.000  H
  H71      1.0000 0.99960  0.79650  0.72630  Biso   1.000  H
  H72      1.0000 0.05790  0.80220  0.77470  Biso   1.000  H
  H73      1.0000 0.54040  0.02840  0.94600  Biso   1.000  H
  H74      1.0000 0.62430  0.04920  0.98930  Biso   1.000  H
  H75      1.0000 0.37310  0.10380  0.02230  Biso   1.000  H
  H76      1.0000 0.29770  0.07940  0.97900  Biso   1.000  H
  H77      1.0000 0.97190  0.08280  0.11690  Biso   1.000  H
  H78      1.0000 0.81210  0.10880  0.11080  Biso   1.000  H
  H79      1.0000 0.82660  0.06390  0.02480  Biso   1.000  H
  H80      1.0000 0.98210  0.03650  0.03440  Biso   1.000  H
  H81      1.0000 0.29100  0.18880  0.12620  Biso   1.000  H
  H82      1.0000 0.37370  0.15150  0.08800  Biso   1.000  H
  H83      1.0000 0.62510  0.18500  0.12900  Biso   1.000  H
  H84      1.0000 0.53500  0.22220  0.16600  Biso   1.000  H
  H85      1.0000 0.10260  0.91900  0.07050  Biso   1.000  H
  H86      1.0000 0.08700  0.84420  0.09420  Biso   1.000  H
  H87      1.0000 0.04060  0.91610  0.17070  Biso   1.000  H
  H88      1.0000 0.06180  0.98830  0.14570  Biso   1.000  H
  H89      1.0000 0.06440  0.58050  0.14060  Biso   1.000  H
  H90      1.0000 0.03400  0.65100  0.16620  Biso   1.000  H
  H91      1.0000 0.09840  0.72650  0.09140  Biso   1.000  H
  H92      1.0000 0.12650  0.65260  0.06800  Biso   1.000  H
  H93      1.0000 0.89460  0.83820  0.27830  Biso   1.000  H
  H94      1.0000 0.95390  0.84910  0.23050  Biso   1.000  H
  H95      1.0000 0.00040  0.70350  0.22630  Biso   1.000  H
  H96      1.0000 0.94210  0.69780  0.27470  Biso   1.000  H
  C1       1.0000 0.99330  0.54430  0.03840  Biso   1.000  C
  C2       1.0000 0.94240  0.55690  0.01270  Biso   1.000  C
  C3       1.0000 0.99200  0.58110  0.99023  Biso   1.000  C
  C4       1.0000 0.09060  0.58890  0.99310  Biso   1.000  C
  C5       1.0000 0.13450  0.57440  0.01920  Biso   1.000  C
  C6       1.0000 0.55910  0.57810  0.90170  Biso   1.000  C
  C7       1.0000 0.65400  0.59450  0.90540  Biso   1.000  C
  C8       1.0000 0.69820  0.58980  0.93260  Biso   1.000  C
  C9       1.0000 0.64570  0.56760  0.95600  Biso   1.000  C
  C10      1.0000 0.55330  0.55160  0.95010  Biso   1.000  C
  C11      1.0000 0.14030  0.68780  0.87330  Biso   1.000  C
  C12      1.0000 0.09110  0.66570  0.89610  Biso   1.000  C
  C13      1.0000 0.99220  0.66380  0.89610  Biso   1.000  C
  C14      1.0000 0.94360  0.68540  0.87210  Biso   1.000  C
  C15      1.0000 0.99810  0.70720  0.85010  Biso   1.000  C
  C16      1.0000 0.93870  0.59770  0.96330  Biso   1.000  C
  C17      1.0000 0.80110  0.60420  0.93710  Biso   1.000  C
  C18      1.0000 0.93680  0.63870  0.91986  Biso   1.000  C
  C19      1.0000 0.40770  0.41830  0.90860  Biso   1.000  C
  C20      1.0000 0.41940  0.37350  0.89480  Biso   1.000  C
  C21      1.0000 0.44010  0.37250  0.86530  Biso   1.000  C
  C22      1.0000 0.44590  0.41590  0.85000  Biso   1.000  C
  C23      1.0000 0.43210  0.45860  0.86500  Biso   1.000  C
  C24      1.0000 0.42770  0.11070  0.86930  Biso   1.000  C
  C25      1.0000 0.44640  0.15250  0.85400  Biso   1.000  C
  C26      1.0000 0.43670  0.19700  0.86801  Biso   1.000  C
  C27      1.0000 0.40860  0.19690  0.89800  Biso   1.000  C
  C28      1.0000 0.39140  0.15270  0.91160  Biso   1.000  C
  C29      1.0000 0.58530  0.31060  0.73270  Biso   1.000  C
  C30      1.0000 0.54980  0.31740  0.76120  Biso   1.000  C
  C31      1.0000 0.52010  0.27780  0.77754  Biso   1.000  C
  C32      1.0000 0.52210  0.23160  0.76360  Biso   1.000  C
  C33      1.0000 0.55780  0.22850  0.73490  Biso   1.000  C
  C34      1.0000 0.45330  0.32510  0.84980  Biso   1.000  C
  C35      1.0000 0.45190  0.24310  0.85136  Biso   1.000  C
  C36      1.0000 0.48880  0.28130  0.80900  Biso   1.000  C
  C37      1.0000 0.00670  0.95570  0.53840  Biso   1.000  C
  C38      1.0000 0.05760  0.94310  0.51270  Biso   1.000  C
  C39      1.0000 0.00800  0.91890  0.49023  Biso   1.000  C
  C40      1.0000 0.90940  0.91110  0.49310  Biso   1.000  C
  C41      1.0000 0.86550  0.92560  0.51920  Biso   1.000  C
  C42      1.0000 0.44090  0.92190  0.40170  Biso   1.000  C
  C43      1.0000 0.34600  0.90550  0.40540  Biso   1.000  C
  C44      1.0000 0.30180  0.91020  0.43260  Biso   1.000  C
  C45      1.0000 0.35430  0.93240  0.45600  Biso   1.000  C
  C46      1.0000 0.44670  0.94840  0.45010  Biso   1.000  C
  C47      1.0000 0.85970  0.81220  0.37330  Biso   1.000  C
  C48      1.0000 0.90890  0.83430  0.39610  Biso   1.000  C
  C49      1.0000 0.00780  0.83620  0.39610  Biso   1.000  C
  C50      1.0000 0.05640  0.81460  0.37210  Biso   1.000  C
  C51      1.0000 0.00190  0.79280  0.35010  Biso   1.000  C
  C52      1.0000 0.06130  0.90230  0.46330  Biso   1.000  C
  C53      1.0000 0.19890  0.89580  0.43710  Biso   1.000  C
  C54      1.0000 0.06320  0.86130  0.41986  Biso   1.000  C
  C55      1.0000 0.59230  0.08170  0.40860  Biso   1.000  C
  C56      1.0000 0.58060  0.12650  0.39480  Biso   1.000  C
  C57      1.0000 0.55990  0.12750  0.36530  Biso   1.000  C
  C58      1.0000 0.55410  0.08410  0.35000  Biso   1.000  C
  C59      1.0000 0.56790  0.04140  0.36500  Biso   1.000  C
  C60      1.0000 0.57230  0.38930  0.36930  Biso   1.000  C
  C61      1.0000 0.55360  0.34750  0.35400  Biso   1.000  C
  C62      1.0000 0.56330  0.30300  0.36801  Biso   1.000  C
  C63      1.0000 0.59140  0.30310  0.39800  Biso   1.000  C
  C64      1.0000 0.60860  0.34730  0.41160  Biso   1.000  C
  C65      1.0000 0.41470  0.18940  0.23270  Biso   1.000  C
  C66      1.0000 0.45020  0.18260  0.26120  Biso   1.000  C
  C67      1.0000 0.47990  0.22220  0.27754  Biso   1.000  C
  C68      1.0000 0.47790  0.26840  0.26360  Biso   1.000  C
  C69      1.0000 0.44220  0.27150  0.23490  Biso   1.000  C
  C70      1.0000 0.54670  0.17490  0.34980  Biso   1.000  C
  C71      1.0000 0.54810  0.25690  0.35136  Biso   1.000  C
  C72      1.0000 0.51120  0.21870  0.30900  Biso   1.000  C
  C73      1.0000 0.49330  0.45570  0.46160  Biso   1.000  C
  C74      1.0000 0.44240  0.44310  0.48730  Biso   1.000  C
  C75      1.0000 0.49200  0.41890  0.50977  Biso   1.000  C
  C76      1.0000 0.59060  0.41110  0.50690  Biso   1.000  C
  C77      1.0000 0.63450  0.42560  0.48080  Biso   1.000  C
  C78      1.0000 0.05910  0.42190  0.59830  Biso   1.000  C
  C79      1.0000 0.15400  0.40550  0.59460  Biso   1.000  C
  C80      1.0000 0.19820  0.41020  0.56740  Biso   1.000  C
  C81      1.0000 0.14570  0.43240  0.54400  Biso   1.000  C
  C82      1.0000 0.05330  0.44840  0.54990  Biso   1.000  C
  C83      1.0000 0.64030  0.31220  0.62670  Biso   1.000  C
  C84      1.0000 0.59110  0.33430  0.60390  Biso   1.000  C
  C85      1.0000 0.49220  0.33620  0.60390  Biso   1.000  C
  C86      1.0000 0.44360  0.31460  0.62790  Biso   1.000  C
  C87      1.0000 0.49810  0.29280  0.64990  Biso   1.000  C
  C88      1.0000 0.43870  0.40230  0.53670  Biso   1.000  C
  C89      1.0000 0.30110  0.39580  0.56290  Biso   1.000  C
  C90      1.0000 0.43680  0.36130  0.58014  Biso   1.000  C
  C91      1.0000 0.90770  0.58170  0.59140  Biso   1.000  C
  C92      1.0000 0.91940  0.62650  0.60520  Biso   1.000  C
  C93      1.0000 0.94010  0.62750  0.63470  Biso   1.000  C
  C94      1.0000 0.94590  0.58410  0.65000  Biso   1.000  C
  C95      1.0000 0.93210  0.54140  0.63500  Biso   1.000  C
  C96      1.0000 0.92770  0.88930  0.63070  Biso   1.000  C
  C97      1.0000 0.94640  0.84750  0.64600  Biso   1.000  C
  C98      1.0000 0.93670  0.80300  0.63199  Biso   1.000  C
  C99      1.0000 0.90860  0.80310  0.60200  Biso   1.000  C
  C100     1.0000 0.89140  0.84730  0.58840  Biso   1.000  C
  C101     1.0000 0.08530  0.68940  0.76730  Biso   1.000  C
  C102     1.0000 0.04980  0.68260  0.73880  Biso   1.000  C
  C103     1.0000 0.02010  0.72220  0.72246  Biso   1.000  C
  C104     1.0000 0.02210  0.76840  0.73640  Biso   1.000  C
  C105     1.0000 0.05780  0.77150  0.76510  Biso   1.000  C
  C106     1.0000 0.95330  0.67490  0.65020  Biso   1.000  C
  C107     1.0000 0.95190  0.75690  0.64864  Biso   1.000  C
  C108     1.0000 0.98880  0.71870  0.69100  Biso   1.000  C
  C109     1.0000 0.50670  0.04430  0.96160  Biso   1.000  C
  C110     1.0000 0.55760  0.05690  0.98730  Biso   1.000  C
  C111     1.0000 0.50800  0.08110  0.00977  Biso   1.000  C
  C112     1.0000 0.40940  0.08890  0.00690  Biso   1.000  C
  C113     1.0000 0.36550  0.07440  0.98080  Biso   1.000  C
  C114     1.0000 0.94090  0.07810  0.09830  Biso   1.000  C
  C115     1.0000 0.84600  0.09450  0.09460  Biso   1.000  C
  C116     1.0000 0.80180  0.08980  0.06740  Biso   1.000  C
  C117     1.0000 0.85430  0.06760  0.04400  Biso   1.000  C
  C118     1.0000 0.94670  0.05160  0.04990  Biso   1.000  C
  C119     1.0000 0.35970  0.18780  0.12670  Biso   1.000  C
  C120     1.0000 0.40890  0.16570  0.10390  Biso   1.000  C
  C121     1.0000 0.50780  0.16380  0.10390  Biso   1.000  C
  C122     1.0000 0.55640  0.18540  0.12790  Biso   1.000  C
  C123     1.0000 0.50190  0.20720  0.14990  Biso   1.000  C
  C124     1.0000 0.56130  0.09770  0.03670  Biso   1.000  C
  C125     1.0000 0.69890  0.10420  0.06290  Biso   1.000  C
  C126     1.0000 0.56320  0.13870  0.08014  Biso   1.000  C
  C127     1.0000 0.09230  0.91830  0.09140  Biso   1.000  C
  C128     1.0000 0.08060  0.87350  0.10520  Biso   1.000  C
  C129     1.0000 0.05990  0.87250  0.13470  Biso   1.000  C
  C130     1.0000 0.05410  0.91590  0.15000  Biso   1.000  C
  C131     1.0000 0.06790  0.95860  0.13500  Biso   1.000  C
  C132     1.0000 0.07230  0.61070  0.13070  Biso   1.000  C
  C133     1.0000 0.05360  0.65250  0.14600  Biso   1.000  C
  C134     1.0000 0.06330  0.69700  0.13199  Biso   1.000  C
  C135     1.0000 0.09140  0.69690  0.10200  Biso   1.000  C
  C136     1.0000 0.10860  0.65270  0.08840  Biso   1.000  C
  C137     1.0000 0.91470  0.81060  0.26730  Biso   1.000  C
  C138     1.0000 0.95020  0.81740  0.23880  Biso   1.000  C
  C139     1.0000 0.97990  0.77780  0.22246  Biso   1.000  C
  C140     1.0000 0.97790  0.73160  0.23640  Biso   1.000  C
  C141     1.0000 0.94220  0.72850  0.26510  Biso   1.000  C
  C142     1.0000 0.04670  0.82510  0.15020  Biso   1.000  C
  C143     1.0000 0.04810  0.74310  0.14864  Biso   1.000  C
  C144     1.0000 0.01120  0.78130  0.19100  Biso   1.000  C
  I1       1.0000 0.06496  0.47932  0.11211  Biso   1.000  I
  I2       1.0000 0.33109  0.55938  0.07815  Biso   1.000  I
  I3       1.0000 0.30024  0.50523  0.96516  Biso   1.000  I
  I4       1.0000 0.29270  0.57615  0.87599  Biso   1.000  I
  I5       1.0000 0.68515  0.16696  0.67110  Biso   1.000  I
  I6       1.0000 0.83040  0.30501  0.69032  Biso   1.000  I
  I7       1.0000 0.93504  0.02068  0.61211  Biso   1.000  I
  I8       1.0000 0.66891  0.94062  0.57815  Biso   1.000  I
  I9       1.0000 0.69976  0.99477  0.46516  Biso   1.000  I
  I10      1.0000 0.70730  0.92385  0.37599  Biso   1.000  I
  I11      1.0000 0.31485  0.33304  0.17110  Biso   1.000  I
  I12      1.0000 0.16960  0.19499  0.19032  Biso   1.000  I
  I13      1.0000 0.56496  0.52068  0.38789  Biso   1.000  I
  I14      1.0000 0.83109  0.44062  0.42185  Biso   1.000  I
  I15      1.0000 0.80024  0.49477  0.53484  Biso   1.000  I
  I16      1.0000 0.79270  0.42385  0.62401  Biso   1.000  I
  I17      1.0000 0.18515  0.83304  0.82890  Biso   1.000  I
  I18      1.0000 0.33040  0.69499  0.80968  Biso   1.000  I
  I19      1.0000 0.43504  0.97932  0.88789  Biso   1.000  I
  I20      1.0000 0.16891  0.05938  0.92185  Biso   1.000  I
  I21      1.0000 0.19976  0.00523  0.03484  Biso   1.000  I
  I22      1.0000 0.20730  0.07615  0.12401  Biso   1.000  I
  I23      1.0000 0.81485  0.66696  0.32890  Biso   1.000  I
  I24      1.0000 0.66960  0.80501  0.30968  Biso   1.000  I
  N1       1.0000 0.08830  0.55380  0.04191  Biso   1.000  N
  N2       1.0000 0.51050  0.55610  0.92329  Biso   1.000  N
  N3       1.0000 0.09360  0.70820  0.85016  Biso   1.000  N
  N4       1.0000 0.84490  0.58610  0.96147  Biso   1.000  N
  N5       1.0000 0.84200  0.63130  0.91614  Biso   1.000  N
  N6       1.0000 0.98990  0.62280  0.94315  Biso   1.000  N
  N7       1.0000 0.41050  0.46040  0.89382  Biso   1.000  N
  N8       1.0000 0.39870  0.11050  0.89759  Biso   1.000  N
  N9       1.0000 0.59220  0.26720  0.72005  Biso   1.000  N
  N10      1.0000 0.47830  0.32550  0.82083  Biso   1.000  N
  N11      1.0000 0.44030  0.28500  0.86630  Biso   1.000  N
  N12      1.0000 0.47620  0.23930  0.82304  Biso   1.000  N
  N13      1.0000 0.91170  0.94620  0.54191  Biso   1.000  N
  N14      1.0000 0.48950  0.94390  0.42329  Biso   1.000  N
  N15      1.0000 0.90640  0.79180  0.35016  Biso   1.000  N
  N16      1.0000 0.15510  0.91390  0.46147  Biso   1.000  N
  N17      1.0000 0.15800  0.86870  0.41614  Biso   1.000  N
  N18      1.0000 0.01010  0.87720  0.44315  Biso   1.000  N
  N19      1.0000 0.58950  0.03960  0.39382  Biso   1.000  N
  N20      1.0000 0.60130  0.38950  0.39759  Biso   1.000  N
  N21      1.0000 0.40780  0.23280  0.22005  Biso   1.000  N
  N22      1.0000 0.52170  0.17450  0.32083  Biso   1.000  N
  N23      1.0000 0.55970  0.21500  0.36630  Biso   1.000  N
  N24      1.0000 0.52380  0.26070  0.32304  Biso   1.000  N
  N25      1.0000 0.58830  0.44620  0.45809  Biso   1.000  N
  N26      1.0000 0.01050  0.44390  0.57671  Biso   1.000  N
  N27      1.0000 0.59360  0.29180  0.64984  Biso   1.000  N
  N28      1.0000 0.34490  0.41390  0.53853  Biso   1.000  N
  N29      1.0000 0.34200  0.36870  0.58386  Biso   1.000  N
  N30      1.0000 0.48990  0.37720  0.55685  Biso   1.000  N
  N31      1.0000 0.91050  0.53960  0.60618  Biso   1.000  N
  N32      1.0000 0.89870  0.88950  0.60241  Biso   1.000  N
  N33      1.0000 0.09220  0.73280  0.77995  Biso   1.000  N
  N34      1.0000 0.97830  0.67450  0.67917  Biso   1.000  N
  N35      1.0000 0.94030  0.71500  0.63370  Biso   1.000  N
  N36      1.0000 0.97620  0.76070  0.67696  Biso   1.000  N
  N37      1.0000 0.41170  0.05380  0.95809  Biso   1.000  N
  N38      1.0000 0.98950  0.05610  0.07671  Biso   1.000  N
  N39      1.0000 0.40640  0.20820  0.14984  Biso   1.000  N
  N40      1.0000 0.65510  0.08610  0.03853  Biso   1.000  N
  N41      1.0000 0.65800  0.13130  0.08386  Biso   1.000  N
  N42      1.0000 0.51010  0.12280  0.05685  Biso   1.000  N
  N43      1.0000 0.08950  0.96040  0.10618  Biso   1.000  N
  N44      1.0000 0.10130  0.61050  0.10241  Biso   1.000  N
  N45      1.0000 0.90780  0.76720  0.27995  Biso   1.000  N
  N46      1.0000 0.02170  0.82550  0.17917  Biso   1.000  N
  N47      1.0000 0.05970  0.78500  0.13370  Biso   1.000  N
  N48      1.0000 0.02380  0.73930  0.17696  Biso   1.000  N
  Zn13     1.0000 0.85011  0.45402  0.91669  Biso   1.000  Zn
  Zn14     1.0000 0.62268  0.47408  0.08525  Biso   1.000  Zn
  Zn15     1.0000 0.32664  0.74238  0.31795  Biso   1.000  Zn
  Zn16     1.0000 0.14989  0.04598  0.41669  Biso   1.000  Zn
  Zn17     1.0000 0.37732  0.02592  0.58525  Biso   1.000  Zn
  Zn18     1.0000 0.67336  0.75762  0.81795  Biso   1.000  Zn
  Zn19     1.0000 0.35011  0.54598  0.58331  Biso   1.000  Zn
  Zn20     1.0000 0.12268  0.52592  0.41475  Biso   1.000  Zn
  Zn21     1.0000 0.82664  0.25762  0.18205  Biso   1.000  Zn
  Zn22     1.0000 0.64989  0.95402  0.08331  Biso   1.000  Zn
  Zn23     1.0000 0.87732  0.97408  0.91475  Biso   1.000  Zn
  Zn24     1.0000 0.17336  0.24238  0.68205  Biso   1.000  Zn
  H97      1.0000 0.04040  0.47160  0.94600  Biso   1.000  H
  H98      1.0000 0.12430  0.45080  0.98930  Biso   1.000  H
  H99      1.0000 0.87310  0.39620  0.02230  Biso   1.000  H
  H100     1.0000 0.79770  0.42060  0.97900  Biso   1.000  H
  H101     1.0000 0.47190  0.41720  0.11690  Biso   1.000  H
  H102     1.0000 0.31210  0.39120  0.11080  Biso   1.000  H
  H103     1.0000 0.32660  0.43610  0.02480  Biso   1.000  H
  H104     1.0000 0.48210  0.46350  0.03440  Biso   1.000  H
  H105     1.0000 0.79100  0.31120  0.12620  Biso   1.000  H
  H106     1.0000 0.87370  0.34850  0.08800  Biso   1.000  H
  H107     1.0000 0.12510  0.31500  0.12900  Biso   1.000  H
  H108     1.0000 0.03500  0.27780  0.16600  Biso   1.000  H
  H109     1.0000 0.60260  0.58100  0.07050  Biso   1.000  H
  H110     1.0000 0.58700  0.65580  0.09420  Biso   1.000  H
  H111     1.0000 0.54060  0.58390  0.17070  Biso   1.000  H
  H112     1.0000 0.56180  0.51170  0.14570  Biso   1.000  H
  H113     1.0000 0.56440  0.91950  0.14060  Biso   1.000  H
  H114     1.0000 0.53400  0.84900  0.16620  Biso   1.000  H
  H115     1.0000 0.59840  0.77350  0.09140  Biso   1.000  H
  H116     1.0000 0.62650  0.84740  0.06800  Biso   1.000  H
  H117     1.0000 0.39460  0.66180  0.27830  Biso   1.000  H
  H118     1.0000 0.45390  0.65090  0.23050  Biso   1.000  H
  H119     1.0000 0.50040  0.79650  0.22630  Biso   1.000  H
  H120     1.0000 0.44210  0.80220  0.27470  Biso   1.000  H
  H121     1.0000 0.95960  0.02840  0.44600  Biso   1.000  H
  H122     1.0000 0.87570  0.04920  0.48930  Biso   1.000  H
  H123     1.0000 0.12690  0.10380  0.52230  Biso   1.000  H
  H124     1.0000 0.20230  0.07940  0.47900  Biso   1.000  H
  H125     1.0000 0.52810  0.08280  0.61690  Biso   1.000  H
  H126     1.0000 0.68790  0.10880  0.61080  Biso   1.000  H
  H127     1.0000 0.67340  0.06390  0.52480  Biso   1.000  H
  H128     1.0000 0.51790  0.03650  0.53440  Biso   1.000  H
  H129     1.0000 0.20900  0.18880  0.62620  Biso   1.000  H
  H130     1.0000 0.12630  0.15150  0.58800  Biso   1.000  H
  H131     1.0000 0.87490  0.18500  0.62900  Biso   1.000  H
  H132     1.0000 0.96500  0.22220  0.66600  Biso   1.000  H
  H133     1.0000 0.39740  0.91900  0.57050  Biso   1.000  H
  H134     1.0000 0.41300  0.84420  0.59420  Biso   1.000  H
  H135     1.0000 0.45940  0.91610  0.67070  Biso   1.000  H
  H136     1.0000 0.43820  0.98830  0.64570  Biso   1.000  H
  H137     1.0000 0.43560  0.58050  0.64060  Biso   1.000  H
  H138     1.0000 0.46600  0.65100  0.66620  Biso   1.000  H
  H139     1.0000 0.40160  0.72650  0.59140  Biso   1.000  H
  H140     1.0000 0.37350  0.65260  0.56800  Biso   1.000  H
  H141     1.0000 0.60540  0.83820  0.77830  Biso   1.000  H
  H142     1.0000 0.54610  0.84910  0.73050  Biso   1.000  H
  H143     1.0000 0.49960  0.70350  0.72630  Biso   1.000  H
  H144     1.0000 0.55790  0.69780  0.77470  Biso   1.000  H
  H145     1.0000 0.54040  0.52840  0.55400  Biso   1.000  H
  H146     1.0000 0.62430  0.54920  0.51070  Biso   1.000  H
  H147     1.0000 0.37310  0.60380  0.47770  Biso   1.000  H
  H148     1.0000 0.29770  0.57940  0.52100  Biso   1.000  H
  H149     1.0000 0.97190  0.58280  0.38310  Biso   1.000  H
  H150     1.0000 0.81210  0.60880  0.38920  Biso   1.000  H
  H151     1.0000 0.82660  0.56390  0.47520  Biso   1.000  H
  H152     1.0000 0.98210  0.53650  0.46560  Biso   1.000  H
  H153     1.0000 0.29100  0.68880  0.37380  Biso   1.000  H
  H154     1.0000 0.37370  0.65150  0.41200  Biso   1.000  H
  H155     1.0000 0.62510  0.68500  0.37100  Biso   1.000  H
  H156     1.0000 0.53500  0.72220  0.33400  Biso   1.000  H
  H157     1.0000 0.10260  0.41900  0.42950  Biso   1.000  H
  H158     1.0000 0.08700  0.34420  0.40580  Biso   1.000  H
  H159     1.0000 0.04060  0.41610  0.32930  Biso   1.000  H
  H160     1.0000 0.06180  0.48830  0.35430  Biso   1.000  H
  H161     1.0000 0.06440  0.08050  0.35940  Biso   1.000  H
  H162     1.0000 0.03400  0.15100  0.33380  Biso   1.000  H
  H163     1.0000 0.09840  0.22650  0.40860  Biso   1.000  H
  H164     1.0000 0.12650  0.15260  0.43200  Biso   1.000  H
  H165     1.0000 0.89460  0.33820  0.22170  Biso   1.000  H
  H166     1.0000 0.95390  0.34910  0.26950  Biso   1.000  H
  H167     1.0000 0.00040  0.20350  0.27370  Biso   1.000  H
  H168     1.0000 0.94210  0.19780  0.22530  Biso   1.000  H
  H169     1.0000 0.45960  0.97160  0.05400  Biso   1.000  H
  H170     1.0000 0.37570  0.95080  0.01070  Biso   1.000  H
  H171     1.0000 0.62690  0.89620  0.97770  Biso   1.000  H
  H172     1.0000 0.70230  0.92060  0.02100  Biso   1.000  H
  H173     1.0000 0.02810  0.91720  0.88310  Biso   1.000  H
  H174     1.0000 0.18790  0.89120  0.88920  Biso   1.000  H
  H175     1.0000 0.17340  0.93610  0.97520  Biso   1.000  H
  H176     1.0000 0.01790  0.96350  0.96560  Biso   1.000  H
  H177     1.0000 0.70900  0.81120  0.87380  Biso   1.000  H
  H178     1.0000 0.62630  0.84850  0.91200  Biso   1.000  H
  H179     1.0000 0.37490  0.81500  0.87100  Biso   1.000  H
  H180     1.0000 0.46500  0.77780  0.83400  Biso   1.000  H
  H181     1.0000 0.89740  0.08100  0.92950  Biso   1.000  H
  H182     1.0000 0.91300  0.15580  0.90580  Biso   1.000  H
  H183     1.0000 0.95940  0.08390  0.82930  Biso   1.000  H
  H184     1.0000 0.93820  0.01170  0.85430  Biso   1.000  H
  H185     1.0000 0.93560  0.41950  0.85940  Biso   1.000  H
  H186     1.0000 0.96600  0.34900  0.83380  Biso   1.000  H
  H187     1.0000 0.90160  0.27350  0.90860  Biso   1.000  H
  H188     1.0000 0.87350  0.34740  0.93200  Biso   1.000  H
  H189     1.0000 0.10540  0.16180  0.72170  Biso   1.000  H
  H190     1.0000 0.04610  0.15090  0.76950  Biso   1.000  H
  H191     1.0000 0.99960  0.29650  0.77370  Biso   1.000  H
  H192     1.0000 0.05790  0.30220  0.72530  Biso   1.000  H
  C145     1.0000 0.00670  0.45570  0.96160  Biso   1.000  C
  C146     1.0000 0.05760  0.44310  0.98730  Biso   1.000  C
  C147     1.0000 0.00800  0.41890  0.00977  Biso   1.000  C
  C148     1.0000 0.90940  0.41110  0.00690  Biso   1.000  C
  C149     1.0000 0.86550  0.42560  0.98080  Biso   1.000  C
  C150     1.0000 0.44090  0.42190  0.09830  Biso   1.000  C
  C151     1.0000 0.34600  0.40550  0.09460  Biso   1.000  C
  C152     1.0000 0.30180  0.41020  0.06740  Biso   1.000  C
  C153     1.0000 0.35430  0.43240  0.04400  Biso   1.000  C
  C154     1.0000 0.44670  0.44840  0.04990  Biso   1.000  C
  C155     1.0000 0.85970  0.31220  0.12670  Biso   1.000  C
  C156     1.0000 0.90890  0.33430  0.10390  Biso   1.000  C
  C157     1.0000 0.00780  0.33620  0.10390  Biso   1.000  C
  C158     1.0000 0.05640  0.31460  0.12790  Biso   1.000  C
  C159     1.0000 0.00190  0.29280  0.14990  Biso   1.000  C
  C160     1.0000 0.06130  0.40230  0.03670  Biso   1.000  C
  C161     1.0000 0.19890  0.39580  0.06290  Biso   1.000  C
  C162     1.0000 0.06320  0.36130  0.08014  Biso   1.000  C
  C163     1.0000 0.59230  0.58170  0.09140  Biso   1.000  C
  C164     1.0000 0.58060  0.62650  0.10520  Biso   1.000  C
  C165     1.0000 0.55990  0.62750  0.13470  Biso   1.000  C
  C166     1.0000 0.55410  0.58410  0.15000  Biso   1.000  C
  C167     1.0000 0.56790  0.54140  0.13500  Biso   1.000  C
  C168     1.0000 0.57230  0.88930  0.13070  Biso   1.000  C
  C169     1.0000 0.55360  0.84750  0.14600  Biso   1.000  C
  C170     1.0000 0.56330  0.80300  0.13199  Biso   1.000  C
  C171     1.0000 0.59140  0.80310  0.10200  Biso   1.000  C
  C172     1.0000 0.60860  0.84730  0.08840  Biso   1.000  C
  C173     1.0000 0.41470  0.68940  0.26730  Biso   1.000  C
  C174     1.0000 0.45020  0.68260  0.23880  Biso   1.000  C
  C175     1.0000 0.47990  0.72220  0.22246  Biso   1.000  C
  C176     1.0000 0.47790  0.76840  0.23640  Biso   1.000  C
  C177     1.0000 0.44220  0.77150  0.26510  Biso   1.000  C
  C178     1.0000 0.54670  0.67490  0.15020  Biso   1.000  C
  C179     1.0000 0.54810  0.75690  0.14864  Biso   1.000  C
  C180     1.0000 0.51120  0.71870  0.19100  Biso   1.000  C
  C181     1.0000 0.99330  0.04430  0.46160  Biso   1.000  C
  C182     1.0000 0.94240  0.05690  0.48730  Biso   1.000  C
  C183     1.0000 0.99200  0.08110  0.50977  Biso   1.000  C
  C184     1.0000 0.09060  0.08890  0.50690  Biso   1.000  C
  C185     1.0000 0.13450  0.07440  0.48080  Biso   1.000  C
  C186     1.0000 0.55910  0.07810  0.59830  Biso   1.000  C
  C187     1.0000 0.65400  0.09450  0.59460  Biso   1.000  C
  C188     1.0000 0.69820  0.08980  0.56740  Biso   1.000  C
  C189     1.0000 0.64570  0.06760  0.54400  Biso   1.000  C
  C190     1.0000 0.55330  0.05160  0.54990  Biso   1.000  C
  C191     1.0000 0.14030  0.18780  0.62670  Biso   1.000  C
  C192     1.0000 0.09110  0.16570  0.60390  Biso   1.000  C
  C193     1.0000 0.99220  0.16380  0.60390  Biso   1.000  C
  C194     1.0000 0.94360  0.18540  0.62790  Biso   1.000  C
  C195     1.0000 0.99810  0.20720  0.64990  Biso   1.000  C
  C196     1.0000 0.93870  0.09770  0.53670  Biso   1.000  C
  C197     1.0000 0.80110  0.10420  0.56290  Biso   1.000  C
  C198     1.0000 0.93680  0.13870  0.58014  Biso   1.000  C
  C199     1.0000 0.40770  0.91830  0.59140  Biso   1.000  C
  C200     1.0000 0.41940  0.87350  0.60520  Biso   1.000  C
  C201     1.0000 0.44010  0.87250  0.63470  Biso   1.000  C
  C202     1.0000 0.44590  0.91590  0.65000  Biso   1.000  C
  C203     1.0000 0.43210  0.95860  0.63500  Biso   1.000  C
  C204     1.0000 0.42770  0.61070  0.63070  Biso   1.000  C
  C205     1.0000 0.44640  0.65250  0.64600  Biso   1.000  C
  C206     1.0000 0.43670  0.69700  0.63199  Biso   1.000  C
  C207     1.0000 0.40860  0.69690  0.60200  Biso   1.000  C
  C208     1.0000 0.39140  0.65270  0.58840  Biso   1.000  C
  C209     1.0000 0.58530  0.81060  0.76730  Biso   1.000  C
  C210     1.0000 0.54980  0.81740  0.73880  Biso   1.000  C
  C211     1.0000 0.52010  0.77780  0.72246  Biso   1.000  C
  C212     1.0000 0.52210  0.73160  0.73640  Biso   1.000  C
  C213     1.0000 0.55780  0.72850  0.76510  Biso   1.000  C
  C214     1.0000 0.45330  0.82510  0.65020  Biso   1.000  C
  C215     1.0000 0.45190  0.74310  0.64864  Biso   1.000  C
  C216     1.0000 0.48880  0.78130  0.69100  Biso   1.000  C
  C217     1.0000 0.50670  0.54430  0.53840  Biso   1.000  C
  C218     1.0000 0.55760  0.55690  0.51270  Biso   1.000  C
  C219     1.0000 0.50800  0.58110  0.49023  Biso   1.000  C
  C220     1.0000 0.40940  0.58890  0.49310  Biso   1.000  C
  C221     1.0000 0.36550  0.57440  0.51920  Biso   1.000  C
  C222     1.0000 0.94090  0.57810  0.40170  Biso   1.000  C
  C223     1.0000 0.84600  0.59450  0.40540  Biso   1.000  C
  C224     1.0000 0.80180  0.58980  0.43260  Biso   1.000  C
  C225     1.0000 0.85430  0.56760  0.45600  Biso   1.000  C
  C226     1.0000 0.94670  0.55160  0.45010  Biso   1.000  C
  C227     1.0000 0.35970  0.68780  0.37330  Biso   1.000  C
  C228     1.0000 0.40890  0.66570  0.39610  Biso   1.000  C
  C229     1.0000 0.50780  0.66380  0.39610  Biso   1.000  C
  C230     1.0000 0.55640  0.68540  0.37210  Biso   1.000  C
  C231     1.0000 0.50190  0.70720  0.35010  Biso   1.000  C
  C232     1.0000 0.56130  0.59770  0.46330  Biso   1.000  C
  C233     1.0000 0.69890  0.60420  0.43710  Biso   1.000  C
  C234     1.0000 0.56320  0.63870  0.41986  Biso   1.000  C
  C235     1.0000 0.09230  0.41830  0.40860  Biso   1.000  C
  C236     1.0000 0.08060  0.37350  0.39480  Biso   1.000  C
  C237     1.0000 0.05990  0.37250  0.36530  Biso   1.000  C
  C238     1.0000 0.05410  0.41590  0.35000  Biso   1.000  C
  C239     1.0000 0.06790  0.45860  0.36500  Biso   1.000  C
  C240     1.0000 0.07230  0.11070  0.36930  Biso   1.000  C
  C241     1.0000 0.05360  0.15250  0.35400  Biso   1.000  C
  C242     1.0000 0.06330  0.19700  0.36801  Biso   1.000  C
  C243     1.0000 0.09140  0.19690  0.39800  Biso   1.000  C
  C244     1.0000 0.10860  0.15270  0.41160  Biso   1.000  C
  C245     1.0000 0.91470  0.31060  0.23270  Biso   1.000  C
  C246     1.0000 0.95020  0.31740  0.26120  Biso   1.000  C
  C247     1.0000 0.97990  0.27780  0.27754  Biso   1.000  C
  C248     1.0000 0.97790  0.23160  0.26360  Biso   1.000  C
  C249     1.0000 0.94220  0.22850  0.23490  Biso   1.000  C
  C250     1.0000 0.04670  0.32510  0.34980  Biso   1.000  C
  C251     1.0000 0.04810  0.24310  0.35136  Biso   1.000  C
  C252     1.0000 0.01120  0.28130  0.30900  Biso   1.000  C
  C253     1.0000 0.49330  0.95570  0.03840  Biso   1.000  C
  C254     1.0000 0.44240  0.94310  0.01270  Biso   1.000  C
  C255     1.0000 0.49200  0.91890  0.99023  Biso   1.000  C
  C256     1.0000 0.59060  0.91110  0.99310  Biso   1.000  C
  C257     1.0000 0.63450  0.92560  0.01920  Biso   1.000  C
  C258     1.0000 0.05910  0.92190  0.90170  Biso   1.000  C
  C259     1.0000 0.15400  0.90550  0.90540  Biso   1.000  C
  C260     1.0000 0.19820  0.91020  0.93260  Biso   1.000  C
  C261     1.0000 0.14570  0.93240  0.95600  Biso   1.000  C
  C262     1.0000 0.05330  0.94840  0.95010  Biso   1.000  C
  C263     1.0000 0.64030  0.81220  0.87330  Biso   1.000  C
  C264     1.0000 0.59110  0.83430  0.89610  Biso   1.000  C
  C265     1.0000 0.49220  0.83620  0.89610  Biso   1.000  C
  C266     1.0000 0.44360  0.81460  0.87210  Biso   1.000  C
  C267     1.0000 0.49810  0.79280  0.85010  Biso   1.000  C
  C268     1.0000 0.43870  0.90230  0.96330  Biso   1.000  C
  C269     1.0000 0.30110  0.89580  0.93710  Biso   1.000  C
  C270     1.0000 0.43680  0.86130  0.91986  Biso   1.000  C
  C271     1.0000 0.90770  0.08170  0.90860  Biso   1.000  C
  C272     1.0000 0.91940  0.12650  0.89480  Biso   1.000  C
  C273     1.0000 0.94010  0.12750  0.86530  Biso   1.000  C
  C274     1.0000 0.94590  0.08410  0.85000  Biso   1.000  C
  C275     1.0000 0.93210  0.04140  0.86500  Biso   1.000  C
  C276     1.0000 0.92770  0.38930  0.86930  Biso   1.000  C
  C277     1.0000 0.94640  0.34750  0.85400  Biso   1.000  C
  C278     1.0000 0.93670  0.30300  0.86801  Biso   1.000  C
  C279     1.0000 0.90860  0.30310  0.89800  Biso   1.000  C
  C280     1.0000 0.89140  0.34730  0.91160  Biso   1.000  C
  C281     1.0000 0.08530  0.18940  0.73270  Biso   1.000  C
  C282     1.0000 0.04980  0.18260  0.76120  Biso   1.000  C
  C283     1.0000 0.02010  0.22220  0.77754  Biso   1.000  C
  C284     1.0000 0.02210  0.26840  0.76360  Biso   1.000  C
  C285     1.0000 0.05780  0.27150  0.73490  Biso   1.000  C
  C286     1.0000 0.95330  0.17490  0.84980  Biso   1.000  C
  C287     1.0000 0.95190  0.25690  0.85136  Biso   1.000  C
  C288     1.0000 0.98880  0.21870  0.80900  Biso   1.000  C
  I25      1.0000 0.93504  0.52068  0.88789  Biso   1.000  I
  I26      1.0000 0.66891  0.44062  0.92185  Biso   1.000  I
  I27      1.0000 0.69976  0.49477  0.03484  Biso   1.000  I
  I28      1.0000 0.70730  0.42385  0.12401  Biso   1.000  I
  I29      1.0000 0.31485  0.83304  0.32890  Biso   1.000  I
  I30      1.0000 0.16960  0.69499  0.30968  Biso   1.000  I
  I31      1.0000 0.06496  0.97932  0.38789  Biso   1.000  I
  I32      1.0000 0.33109  0.05938  0.42185  Biso   1.000  I
  I33      1.0000 0.30024  0.00523  0.53484  Biso   1.000  I
  I34      1.0000 0.29270  0.07615  0.62401  Biso   1.000  I
  I35      1.0000 0.68515  0.66696  0.82890  Biso   1.000  I
  I36      1.0000 0.83040  0.80501  0.80968  Biso   1.000  I
  I37      1.0000 0.43504  0.47932  0.61211  Biso   1.000  I
  I38      1.0000 0.16891  0.55938  0.57815  Biso   1.000  I
  I39      1.0000 0.19976  0.50523  0.46516  Biso   1.000  I
  I40      1.0000 0.20730  0.57615  0.37599  Biso   1.000  I
  I41      1.0000 0.81485  0.16696  0.17110  Biso   1.000  I
  I42      1.0000 0.66960  0.30501  0.19032  Biso   1.000  I
  I43      1.0000 0.56496  0.02068  0.11211  Biso   1.000  I
  I44      1.0000 0.83109  0.94062  0.07815  Biso   1.000  I
  I45      1.0000 0.80024  0.99477  0.96516  Biso   1.000  I
  I46      1.0000 0.79270  0.92385  0.87599  Biso   1.000  I
  I47      1.0000 0.18515  0.33304  0.67110  Biso   1.000  I
  I48      1.0000 0.33040  0.19499  0.69032  Biso   1.000  I
  N49      1.0000 0.91170  0.44620  0.95809  Biso   1.000  N
  N50      1.0000 0.48950  0.44390  0.07671  Biso   1.000  N
  N51      1.0000 0.90640  0.29180  0.14984  Biso   1.000  N
  N52      1.0000 0.15510  0.41390  0.03853  Biso   1.000  N
  N53      1.0000 0.15800  0.36870  0.08386  Biso   1.000  N
  N54      1.0000 0.01010  0.37720  0.05685  Biso   1.000  N
  N55      1.0000 0.58950  0.53960  0.10618  Biso   1.000  N
  N56      1.0000 0.60130  0.88950  0.10241  Biso   1.000  N
  N57      1.0000 0.40780  0.73280  0.27995  Biso   1.000  N
  N58      1.0000 0.52170  0.67450  0.17917  Biso   1.000  N
  N59      1.0000 0.55970  0.71500  0.13370  Biso   1.000  N
  N60      1.0000 0.52380  0.76070  0.17696  Biso   1.000  N
  N61      1.0000 0.08830  0.05380  0.45809  Biso   1.000  N
  N62      1.0000 0.51050  0.05610  0.57671  Biso   1.000  N
  N63      1.0000 0.09360  0.20820  0.64984  Biso   1.000  N
  N64      1.0000 0.84490  0.08610  0.53853  Biso   1.000  N
  N65      1.0000 0.84200  0.13130  0.58386  Biso   1.000  N
  N66      1.0000 0.98990  0.12280  0.55685  Biso   1.000  N
  N67      1.0000 0.41050  0.96040  0.60618  Biso   1.000  N
  N68      1.0000 0.39870  0.61050  0.60241  Biso   1.000  N
  N69      1.0000 0.59220  0.76720  0.77995  Biso   1.000  N
  N70      1.0000 0.47830  0.82550  0.67917  Biso   1.000  N
  N71      1.0000 0.44030  0.78500  0.63370  Biso   1.000  N
  N72      1.0000 0.47620  0.73930  0.67696  Biso   1.000  N
  N73      1.0000 0.41170  0.55380  0.54191  Biso   1.000  N
  N74      1.0000 0.98950  0.55610  0.42329  Biso   1.000  N
  N75      1.0000 0.40640  0.70820  0.35016  Biso   1.000  N
  N76      1.0000 0.65510  0.58610  0.46147  Biso   1.000  N
  N77      1.0000 0.65800  0.63130  0.41614  Biso   1.000  N
  N78      1.0000 0.51010  0.62280  0.44315  Biso   1.000  N
  N79      1.0000 0.08950  0.46040  0.39382  Biso   1.000  N
  N80      1.0000 0.10130  0.11050  0.39759  Biso   1.000  N
  N81      1.0000 0.90780  0.26720  0.22005  Biso   1.000  N
  N82      1.0000 0.02170  0.32550  0.32083  Biso   1.000  N
  N83      1.0000 0.05970  0.28500  0.36630  Biso   1.000  N
  N84      1.0000 0.02380  0.23930  0.32304  Biso   1.000  N
  N85      1.0000 0.58830  0.94620  0.04191  Biso   1.000  N
  N86      1.0000 0.01050  0.94390  0.92329  Biso   1.000  N
  N87      1.0000 0.59360  0.79180  0.85016  Biso   1.000  N
  N88      1.0000 0.34490  0.91390  0.96147  Biso   1.000  N
  N89      1.0000 0.34200  0.86870  0.91614  Biso   1.000  N
  N90      1.0000 0.48990  0.87720  0.94315  Biso   1.000  N
  N91      1.0000 0.91050  0.03960  0.89382  Biso   1.000  N
  N92      1.0000 0.89870  0.38950  0.89759  Biso   1.000  N
  N93      1.0000 0.09220  0.23280  0.72005  Biso   1.000  N
  N94      1.0000 0.97830  0.17450  0.82083  Biso   1.000  N
  N95      1.0000 0.94030  0.21500  0.86630  Biso   1.000  N
  N96      1.0000 0.97620  0.26070  0.82304  Biso   1.000  N
