data_image0
_cell_length_a       13.7377
_cell_length_b       27.394
_cell_length_c       45.072
_cell_angle_alpha    90
_cell_angle_beta     90
_cell_angle_gamma    90

_symmetry_space_group_name_H-M    P 1
_symmetry_int_tables_number       1

loop_
  _symmetry_equiv_pos_as_xyz
  'x, y, z'

loop_
  _atom_site_label
  _atom_site_occupancy
  _atom_site_fract_x
  _atom_site_fract_y
  _atom_site_fract_z
  _atom_site_thermal_displace_type
  _atom_site_B_iso_or_equiv
  _atom_site_type_symbol
  Zn1      1.0000 0.82900  0.25695  0.81670  Biso   1.000  Zn
  Zn2      1.0000 0.85259  0.45403  0.08130  Biso   1.000  Zn
  Zn3      1.0000 0.12407  0.52598  0.58518  Biso   1.000  Zn
  Zn4      1.0000 0.17100  0.24305  0.31670  Biso   1.000  Zn
  Zn5      1.0000 0.14741  0.04597  0.58130  Biso   1.000  Zn
  Zn6      1.0000 0.87593  0.97402  0.08518  Biso   1.000  Zn
  Zn7      1.0000 0.32900  0.74305  0.68330  Biso   1.000  Zn
  Zn8      1.0000 0.35259  0.54597  0.41870  Biso   1.000  Zn
  Zn9      1.0000 0.62407  0.47402  0.91482  Biso   1.000  Zn
  Zn10     1.0000 0.67100  0.75695  0.18330  Biso   1.000  Zn
  Zn11     1.0000 0.64741  0.95403  0.91870  Biso   1.000  Zn
  Zn12     1.0000 0.37593  0.02598  0.41482  Biso   1.000  Zn
  H1       1.0000 0.03800  0.27210  0.83490  Biso   1.000  H
  H2       1.0000 0.12650  0.31080  0.87090  Biso   1.000  H
  H3       1.0000 0.87520  0.35180  0.90850  Biso   1.000  H
  H4       1.0000 0.79290  0.31540  0.87060  Biso   1.000  H
  H5       1.0000 0.79960  0.41700  0.02090  Biso   1.000  H
  H6       1.0000 0.87660  0.39030  0.97790  Biso   1.000  H
  H7       1.0000 0.12210  0.45160  0.00790  Biso   1.000  H
  H8       1.0000 0.04180  0.47150  0.05170  Biso   1.000  H
  H9       1.0000 0.48260  0.46140  0.96530  Biso   1.000  H
  H10      1.0000 0.32680  0.43310  0.97380  Biso   1.000  H
  H11      1.0000 0.31610  0.38920  0.88840  Biso   1.000  H
  H12      1.0000 0.47120  0.41770  0.88210  Biso   1.000  H
  H13      1.0000 0.06110  0.08010  0.63880  Biso   1.000  H
  H14      1.0000 0.03230  0.15000  0.66490  Biso   1.000  H
  H15      1.0000 0.10320  0.22740  0.59160  Biso   1.000  H
  H16      1.0000 0.13220  0.15390  0.56750  Biso   1.000  H
  H17      1.0000 0.10520  0.41910  0.57020  Biso   1.000  H
  H18      1.0000 0.08580  0.34440  0.59370  Biso   1.000  H
  H19      1.0000 0.04260  0.41590  0.67050  Biso   1.000  H
  H20      1.0000 0.06800  0.48780  0.64550  Biso   1.000  H
  H21      1.0000 0.90140  0.33760  0.77740  Biso   1.000  H
  H22      1.0000 0.95860  0.34820  0.72990  Biso   1.000  H
  H23      1.0000 0.99980  0.20330  0.72530  Biso   1.000  H
  H24      1.0000 0.94350  0.19680  0.77310  Biso   1.000  H
  H25      1.0000 0.96200  0.22790  0.33490  Biso   1.000  H
  H26      1.0000 0.87350  0.18920  0.37090  Biso   1.000  H
  H27      1.0000 0.12480  0.14820  0.40850  Biso   1.000  H
  H28      1.0000 0.20710  0.18460  0.37060  Biso   1.000  H
  H29      1.0000 0.20040  0.08300  0.52090  Biso   1.000  H
  H30      1.0000 0.12340  0.10970  0.47790  Biso   1.000  H
  H31      1.0000 0.87790  0.04840  0.50790  Biso   1.000  H
  H32      1.0000 0.95820  0.02850  0.55170  Biso   1.000  H
  H33      1.0000 0.51740  0.03860  0.46530  Biso   1.000  H
  H34      1.0000 0.67320  0.06690  0.47380  Biso   1.000  H
  H35      1.0000 0.68390  0.11080  0.38840  Biso   1.000  H
  H36      1.0000 0.52880  0.08230  0.38210  Biso   1.000  H
  H37      1.0000 0.93890  0.41990  0.13880  Biso   1.000  H
  H38      1.0000 0.96770  0.35000  0.16490  Biso   1.000  H
  H39      1.0000 0.89680  0.27260  0.09160  Biso   1.000  H
  H40      1.0000 0.86780  0.34610  0.06750  Biso   1.000  H
  H41      1.0000 0.89480  0.08090  0.07020  Biso   1.000  H
  H42      1.0000 0.91420  0.15560  0.09370  Biso   1.000  H
  H43      1.0000 0.95740  0.08410  0.17050  Biso   1.000  H
  H44      1.0000 0.93200  0.01220  0.14550  Biso   1.000  H
  H45      1.0000 0.09860  0.16240  0.27740  Biso   1.000  H
  H46      1.0000 0.04140  0.15180  0.22990  Biso   1.000  H
  H47      1.0000 0.00020  0.29670  0.22530  Biso   1.000  H
  H48      1.0000 0.05650  0.30320  0.27310  Biso   1.000  H
  H49      1.0000 0.53800  0.72790  0.66510  Biso   1.000  H
  H50      1.0000 0.62650  0.68920  0.62910  Biso   1.000  H
  H51      1.0000 0.37520  0.64820  0.59150  Biso   1.000  H
  H52      1.0000 0.29290  0.68460  0.62940  Biso   1.000  H
  H53      1.0000 0.29960  0.58300  0.47910  Biso   1.000  H
  H54      1.0000 0.37660  0.60970  0.52210  Biso   1.000  H
  H55      1.0000 0.62210  0.54840  0.49210  Biso   1.000  H
  H56      1.0000 0.54180  0.52850  0.44830  Biso   1.000  H
  H57      1.0000 0.98260  0.53860  0.53470  Biso   1.000  H
  H58      1.0000 0.82680  0.56690  0.52620  Biso   1.000  H
  H59      1.0000 0.81610  0.61080  0.61160  Biso   1.000  H
  H60      1.0000 0.97120  0.58230  0.61790  Biso   1.000  H
  H61      1.0000 0.56110  0.91990  0.86120  Biso   1.000  H
  H62      1.0000 0.53230  0.85000  0.83510  Biso   1.000  H
  H63      1.0000 0.60320  0.77260  0.90840  Biso   1.000  H
  H64      1.0000 0.63220  0.84610  0.93250  Biso   1.000  H
  H65      1.0000 0.60520  0.58090  0.92980  Biso   1.000  H
  H66      1.0000 0.58580  0.65560  0.90630  Biso   1.000  H
  H67      1.0000 0.54260  0.58410  0.82950  Biso   1.000  H
  H68      1.0000 0.56800  0.51220  0.85450  Biso   1.000  H
  H69      1.0000 0.40140  0.66240  0.72260  Biso   1.000  H
  H70      1.0000 0.45860  0.65180  0.77010  Biso   1.000  H
  H71      1.0000 0.49980  0.79670  0.77470  Biso   1.000  H
  H72      1.0000 0.44350  0.80320  0.72690  Biso   1.000  H
  H73      1.0000 0.46200  0.77210  0.16510  Biso   1.000  H
  H74      1.0000 0.37350  0.81080  0.12910  Biso   1.000  H
  H75      1.0000 0.62480  0.85180  0.09150  Biso   1.000  H
  H76      1.0000 0.70710  0.81540  0.12940  Biso   1.000  H
  H77      1.0000 0.70040  0.91700  0.97910  Biso   1.000  H
  H78      1.0000 0.62340  0.89030  0.02210  Biso   1.000  H
  H79      1.0000 0.37790  0.95160  0.99210  Biso   1.000  H
  H80      1.0000 0.45820  0.97150  0.94830  Biso   1.000  H
  H81      1.0000 0.01740  0.96140  0.03470  Biso   1.000  H
  H82      1.0000 0.17320  0.93310  0.02620  Biso   1.000  H
  H83      1.0000 0.18390  0.88920  0.11160  Biso   1.000  H
  H84      1.0000 0.02880  0.91770  0.11790  Biso   1.000  H
  H85      1.0000 0.43890  0.58010  0.36120  Biso   1.000  H
  H86      1.0000 0.46770  0.65000  0.33510  Biso   1.000  H
  H87      1.0000 0.39680  0.72740  0.40840  Biso   1.000  H
  H88      1.0000 0.36780  0.65390  0.43250  Biso   1.000  H
  H89      1.0000 0.39480  0.91910  0.42980  Biso   1.000  H
  H90      1.0000 0.41420  0.84440  0.40630  Biso   1.000  H
  H91      1.0000 0.45740  0.91590  0.32950  Biso   1.000  H
  H92      1.0000 0.43200  0.98780  0.35450  Biso   1.000  H
  H93      1.0000 0.59860  0.83760  0.22260  Biso   1.000  H
  H94      1.0000 0.54140  0.84820  0.27010  Biso   1.000  H
  H95      1.0000 0.50020  0.70330  0.27470  Biso   1.000  H
  H96      1.0000 0.55650  0.69680  0.22690  Biso   1.000  H
  C1       1.0000 0.00440  0.28940  0.85010  Biso   1.000  C
  C2       1.0000 0.05740  0.31150  0.87160  Biso   1.000  C
  C3       1.0000 0.00990  0.33510  0.89460  Biso   1.000  C
  C4       1.0000 0.91080  0.33570  0.89330  Biso   1.000  C
  C5       1.0000 0.86200  0.31400  0.87090  Biso   1.000  C
  C6       1.0000 0.86730  0.42290  0.01870  Biso   1.000  C
  C7       1.0000 0.91230  0.40740  0.99260  Biso   1.000  C
  C8       1.0000 0.00900  0.41740  0.98890  Biso   1.000  C
  C9       1.0000 0.05590  0.44260  0.01050  Biso   1.000  C
  C10      1.0000 0.00720  0.45530  0.03630  Biso   1.000  C
  C11      1.0000 0.44800  0.44660  0.94950  Biso   1.000  C
  C12      1.0000 0.35510  0.42990  0.95470  Biso   1.000  C
  C13      1.0000 0.30320  0.40850  0.93180  Biso   1.000  C
  C14      1.0000 0.34910  0.40410  0.90460  Biso   1.000  C
  C15      1.0000 0.44130  0.42120  0.90100  Biso   1.000  C
  C16      1.0000 0.06490  0.36030  0.91850  Biso   1.000  C
  C17      1.0000 0.06150  0.39960  0.96230  Biso   1.000  C
  C18      1.0000 0.20000  0.39350  0.93600  Biso   1.000  C
  C19      1.0000 0.07090  0.11070  0.62930  Biso   1.000  C
  C20      1.0000 0.05360  0.15170  0.64490  Biso   1.000  C
  C21      1.0000 0.06750  0.19620  0.63110  Biso   1.000  C
  C22      1.0000 0.09550  0.19730  0.60180  Biso   1.000  C
  C23      1.0000 0.11210  0.15340  0.58770  Biso   1.000  C
  C24      1.0000 0.09410  0.41840  0.59100  Biso   1.000  C
  C25      1.0000 0.08090  0.37380  0.60490  Biso   1.000  C
  C26      1.0000 0.06090  0.37200  0.63460  Biso   1.000  C
  C27      1.0000 0.05630  0.41540  0.64990  Biso   1.000  C
  C28      1.0000 0.07180  0.45800  0.63480  Biso   1.000  C
  C29      1.0000 0.92010  0.30970  0.76620  Biso   1.000  C
  C30      1.0000 0.95440  0.31630  0.73810  Biso   1.000  C
  C31      1.0000 0.98290  0.27670  0.72180  Biso   1.000  C
  C32      1.0000 0.97860  0.23170  0.73550  Biso   1.000  C
  C33      1.0000 0.94400  0.22790  0.76390  Biso   1.000  C
  C34      1.0000 0.05180  0.24310  0.64770  Biso   1.000  C
  C35      1.0000 0.04960  0.32440  0.64960  Biso   1.000  C
  C36      1.0000 0.01360  0.28010  0.69010  Biso   1.000  C
  C37      1.0000 0.99560  0.21060  0.35010  Biso   1.000  C
  C38      1.0000 0.94260  0.18850  0.37160  Biso   1.000  C
  C39      1.0000 0.99010  0.16490  0.39460  Biso   1.000  C
  C40      1.0000 0.08920  0.16430  0.39330  Biso   1.000  C
  C41      1.0000 0.13800  0.18600  0.37090  Biso   1.000  C
  C42      1.0000 0.13270  0.07710  0.51870  Biso   1.000  C
  C43      1.0000 0.08770  0.09260  0.49260  Biso   1.000  C
  C44      1.0000 0.99100  0.08260  0.48890  Biso   1.000  C
  C45      1.0000 0.94410  0.05740  0.51050  Biso   1.000  C
  C46      1.0000 0.99280  0.04470  0.53630  Biso   1.000  C
  C47      1.0000 0.55200  0.05340  0.44950  Biso   1.000  C
  C48      1.0000 0.64490  0.07010  0.45470  Biso   1.000  C
  C49      1.0000 0.69680  0.09150  0.43180  Biso   1.000  C
  C50      1.0000 0.65090  0.09590  0.40460  Biso   1.000  C
  C51      1.0000 0.55870  0.07880  0.40100  Biso   1.000  C
  C52      1.0000 0.93510  0.13970  0.41850  Biso   1.000  C
  C53      1.0000 0.93850  0.10040  0.46230  Biso   1.000  C
  C54      1.0000 0.80000  0.10650  0.43600  Biso   1.000  C
  C55      1.0000 0.92910  0.38930  0.12930  Biso   1.000  C
  C56      1.0000 0.94640  0.34830  0.14490  Biso   1.000  C
  C57      1.0000 0.93250  0.30380  0.13110  Biso   1.000  C
  C58      1.0000 0.90450  0.30270  0.10180  Biso   1.000  C
  C59      1.0000 0.88790  0.34660  0.08770  Biso   1.000  C
  C60      1.0000 0.90590  0.08160  0.09100  Biso   1.000  C
  C61      1.0000 0.91910  0.12620  0.10490  Biso   1.000  C
  C62      1.0000 0.93910  0.12800  0.13460  Biso   1.000  C
  C63      1.0000 0.94370  0.08460  0.14990  Biso   1.000  C
  C64      1.0000 0.92820  0.04200  0.13480  Biso   1.000  C
  C65      1.0000 0.07990  0.19030  0.26620  Biso   1.000  C
  C66      1.0000 0.04560  0.18370  0.23810  Biso   1.000  C
  C67      1.0000 0.01710  0.22330  0.22180  Biso   1.000  C
  C68      1.0000 0.02140  0.26830  0.23550  Biso   1.000  C
  C69      1.0000 0.05600  0.27210  0.26390  Biso   1.000  C
  C70      1.0000 0.94820  0.25690  0.14770  Biso   1.000  C
  C71      1.0000 0.95040  0.17560  0.14960  Biso   1.000  C
  C72      1.0000 0.98640  0.21990  0.19010  Biso   1.000  C
  C73      1.0000 0.50440  0.71060  0.64990  Biso   1.000  C
  C74      1.0000 0.55740  0.68850  0.62840  Biso   1.000  C
  C75      1.0000 0.50990  0.66490  0.60540  Biso   1.000  C
  C76      1.0000 0.41080  0.66430  0.60670  Biso   1.000  C
  C77      1.0000 0.36200  0.68600  0.62910  Biso   1.000  C
  C78      1.0000 0.36730  0.57710  0.48130  Biso   1.000  C
  C79      1.0000 0.41230  0.59260  0.50740  Biso   1.000  C
  C80      1.0000 0.50900  0.58260  0.51110  Biso   1.000  C
  C81      1.0000 0.55590  0.55740  0.48950  Biso   1.000  C
  C82      1.0000 0.50720  0.54470  0.46370  Biso   1.000  C
  C83      1.0000 0.94800  0.55340  0.55050  Biso   1.000  C
  C84      1.0000 0.85510  0.57010  0.54530  Biso   1.000  C
  C85      1.0000 0.80320  0.59150  0.56820  Biso   1.000  C
  C86      1.0000 0.84910  0.59590  0.59540  Biso   1.000  C
  C87      1.0000 0.94130  0.57880  0.59900  Biso   1.000  C
  C88      1.0000 0.56490  0.63970  0.58150  Biso   1.000  C
  C89      1.0000 0.56150  0.60040  0.53770  Biso   1.000  C
  C90      1.0000 0.70000  0.60650  0.56400  Biso   1.000  C
  C91      1.0000 0.57090  0.88930  0.87070  Biso   1.000  C
  C92      1.0000 0.55360  0.84830  0.85510  Biso   1.000  C
  C93      1.0000 0.56750  0.80380  0.86890  Biso   1.000  C
  C94      1.0000 0.59550  0.80270  0.89820  Biso   1.000  C
  C95      1.0000 0.61210  0.84660  0.91230  Biso   1.000  C
  C96      1.0000 0.59410  0.58160  0.90900  Biso   1.000  C
  C97      1.0000 0.58090  0.62620  0.89510  Biso   1.000  C
  C98      1.0000 0.56090  0.62800  0.86540  Biso   1.000  C
  C99      1.0000 0.55630  0.58460  0.85010  Biso   1.000  C
  C100     1.0000 0.57180  0.54200  0.86520  Biso   1.000  C
  C101     1.0000 0.42010  0.69030  0.73380  Biso   1.000  C
  C102     1.0000 0.45440  0.68370  0.76190  Biso   1.000  C
  C103     1.0000 0.48290  0.72330  0.77820  Biso   1.000  C
  C104     1.0000 0.47860  0.76830  0.76450  Biso   1.000  C
  C105     1.0000 0.44400  0.77210  0.73610  Biso   1.000  C
  C106     1.0000 0.55180  0.75690  0.85230  Biso   1.000  C
  C107     1.0000 0.54960  0.67560  0.85040  Biso   1.000  C
  C108     1.0000 0.51360  0.71990  0.80990  Biso   1.000  C
  C109     1.0000 0.49560  0.78940  0.14990  Biso   1.000  C
  C110     1.0000 0.44260  0.81150  0.12840  Biso   1.000  C
  C111     1.0000 0.49010  0.83510  0.10540  Biso   1.000  C
  C112     1.0000 0.58920  0.83570  0.10670  Biso   1.000  C
  C113     1.0000 0.63800  0.81400  0.12910  Biso   1.000  C
  C114     1.0000 0.63270  0.92290  0.98130  Biso   1.000  C
  C115     1.0000 0.58770  0.90740  0.00740  Biso   1.000  C
  C116     1.0000 0.49100  0.91740  0.01110  Biso   1.000  C
  C117     1.0000 0.44410  0.94260  0.98950  Biso   1.000  C
  C118     1.0000 0.49280  0.95530  0.96370  Biso   1.000  C
  C119     1.0000 0.05200  0.94660  0.05050  Biso   1.000  C
  C120     1.0000 0.14490  0.92990  0.04530  Biso   1.000  C
  C121     1.0000 0.19680  0.90850  0.06820  Biso   1.000  C
  C122     1.0000 0.15090  0.90410  0.09540  Biso   1.000  C
  C123     1.0000 0.05870  0.92120  0.09900  Biso   1.000  C
  C124     1.0000 0.43510  0.86030  0.08150  Biso   1.000  C
  C125     1.0000 0.43850  0.89960  0.03770  Biso   1.000  C
  C126     1.0000 0.30000  0.89350  0.06400  Biso   1.000  C
  C127     1.0000 0.42910  0.61070  0.37070  Biso   1.000  C
  C128     1.0000 0.44640  0.65170  0.35510  Biso   1.000  C
  C129     1.0000 0.43250  0.69620  0.36890  Biso   1.000  C
  C130     1.0000 0.40450  0.69730  0.39820  Biso   1.000  C
  C131     1.0000 0.38790  0.65340  0.41230  Biso   1.000  C
  C132     1.0000 0.40590  0.91840  0.40900  Biso   1.000  C
  C133     1.0000 0.41910  0.87380  0.39510  Biso   1.000  C
  C134     1.0000 0.43910  0.87200  0.36540  Biso   1.000  C
  C135     1.0000 0.44370  0.91540  0.35010  Biso   1.000  C
  C136     1.0000 0.42820  0.95800  0.36520  Biso   1.000  C
  C137     1.0000 0.57990  0.80970  0.23380  Biso   1.000  C
  C138     1.0000 0.54560  0.81630  0.26190  Biso   1.000  C
  C139     1.0000 0.51710  0.77670  0.27820  Biso   1.000  C
  C140     1.0000 0.52140  0.73170  0.26450  Biso   1.000  C
  C141     1.0000 0.55600  0.72790  0.23610  Biso   1.000  C
  C142     1.0000 0.44820  0.74310  0.35230  Biso   1.000  C
  C143     1.0000 0.45040  0.82440  0.35040  Biso   1.000  C
  C144     1.0000 0.48640  0.78010  0.30990  Biso   1.000  C
  I1       1.0000 0.81495  0.16630  0.82741  Biso   1.000  I
  I2       1.0000 0.67432  0.30677  0.80774  Biso   1.000  I
  I3       1.0000 0.67003  0.44230  0.07722  Biso   1.000  I
  I4       1.0000 0.94160  0.51959  0.10962  Biso   1.000  I
  I5       1.0000 0.20065  0.50592  0.53499  Biso   1.000  I
  I6       1.0000 0.20962  0.57457  0.62441  Biso   1.000  I
  I7       1.0000 0.18505  0.33370  0.32741  Biso   1.000  I
  I8       1.0000 0.32568  0.19323  0.30774  Biso   1.000  I
  I9       1.0000 0.32997  0.05770  0.57722  Biso   1.000  I
  I10      1.0000 0.05840  0.98041  0.60962  Biso   1.000  I
  I11      1.0000 0.79935  0.99408  0.03499  Biso   1.000  I
  I12      1.0000 0.79038  0.92543  0.12441  Biso   1.000  I
  I13      1.0000 0.31495  0.83370  0.67259  Biso   1.000  I
  I14      1.0000 0.17432  0.69323  0.69226  Biso   1.000  I
  I15      1.0000 0.17003  0.55770  0.42278  Biso   1.000  I
  I16      1.0000 0.44160  0.48041  0.39038  Biso   1.000  I
  I17      1.0000 0.70065  0.49408  0.96501  Biso   1.000  I
  I18      1.0000 0.70962  0.42543  0.87559  Biso   1.000  I
  I19      1.0000 0.68505  0.66630  0.17259  Biso   1.000  I
  I20      1.0000 0.82568  0.80677  0.19226  Biso   1.000  I
  I21      1.0000 0.82997  0.94230  0.92278  Biso   1.000  I
  I22      1.0000 0.55840  0.01959  0.89038  Biso   1.000  I
  I23      1.0000 0.29935  0.00592  0.46501  Biso   1.000  I
  I24      1.0000 0.29038  0.07457  0.37559  Biso   1.000  I
  N1       1.0000 0.90790  0.29080  0.84910  Biso   1.000  N
  N2       1.0000 0.91270  0.44510  0.04010  Biso   1.000  N
  N3       1.0000 0.49230  0.44280  0.92270  Biso   1.000  N
  N4       1.0000 0.15920  0.36760  0.91460  Biso   1.000  N
  N5       1.0000 0.01100  0.37490  0.94230  Biso   1.000  N
  N6       1.0000 0.15550  0.41140  0.96047  Biso   1.000  N
  N7       1.0000 0.10170  0.11090  0.60070  Biso   1.000  N
  N8       1.0000 0.09170  0.46030  0.60590  Biso   1.000  N
  N9       1.0000 0.91150  0.26570  0.77882  Biso   1.000  N
  N10      1.0000 0.02630  0.23850  0.67633  Biso   1.000  N
  N11      1.0000 0.06200  0.28500  0.63353  Biso   1.000  N
  N12      1.0000 0.02340  0.32460  0.67856  Biso   1.000  N
  N13      1.0000 0.09210  0.20920  0.34910  Biso   1.000  N
  N14      1.0000 0.08730  0.05490  0.54010  Biso   1.000  N
  N15      1.0000 0.50770  0.05720  0.42270  Biso   1.000  N
  N16      1.0000 0.84080  0.13240  0.41460  Biso   1.000  N
  N17      1.0000 0.98900  0.12510  0.44230  Biso   1.000  N
  N18      1.0000 0.84450  0.08860  0.46047  Biso   1.000  N
  N19      1.0000 0.89830  0.38910  0.10070  Biso   1.000  N
  N20      1.0000 0.90830  0.03970  0.10590  Biso   1.000  N
  N21      1.0000 0.08850  0.23430  0.27882  Biso   1.000  N
  N22      1.0000 0.97370  0.26150  0.17633  Biso   1.000  N
  N23      1.0000 0.93800  0.21500  0.13353  Biso   1.000  N
  N24      1.0000 0.97660  0.17540  0.17856  Biso   1.000  N
  N25      1.0000 0.40790  0.70920  0.65090  Biso   1.000  N
  N26      1.0000 0.41270  0.55490  0.45990  Biso   1.000  N
  N27      1.0000 0.99230  0.55720  0.57730  Biso   1.000  N
  N28      1.0000 0.65920  0.63240  0.58540  Biso   1.000  N
  N29      1.0000 0.51100  0.62510  0.55770  Biso   1.000  N
  N30      1.0000 0.65550  0.58860  0.53953  Biso   1.000  N
  N31      1.0000 0.60170  0.88910  0.89930  Biso   1.000  N
  N32      1.0000 0.59170  0.53970  0.89410  Biso   1.000  N
  N33      1.0000 0.41150  0.73430  0.72118  Biso   1.000  N
  N34      1.0000 0.52630  0.76150  0.82367  Biso   1.000  N
  N35      1.0000 0.56200  0.71500  0.86647  Biso   1.000  N
  N36      1.0000 0.52340  0.67540  0.82144  Biso   1.000  N
  N37      1.0000 0.59210  0.79080  0.15090  Biso   1.000  N
  N38      1.0000 0.58730  0.94510  0.95990  Biso   1.000  N
  N39      1.0000 0.00770  0.94280  0.07730  Biso   1.000  N
  N40      1.0000 0.34080  0.86760  0.08540  Biso   1.000  N
  N41      1.0000 0.48900  0.87490  0.05770  Biso   1.000  N
  N42      1.0000 0.34450  0.91140  0.03953  Biso   1.000  N
  N43      1.0000 0.39830  0.61090  0.39930  Biso   1.000  N
  N44      1.0000 0.40830  0.96030  0.39410  Biso   1.000  N
  N45      1.0000 0.58850  0.76570  0.22118  Biso   1.000  N
  N46      1.0000 0.47370  0.73850  0.32367  Biso   1.000  N
  N47      1.0000 0.43800  0.78500  0.36647  Biso   1.000  N
  N48      1.0000 0.47660  0.82460  0.32144  Biso   1.000  N
  Zn13     1.0000 0.17100  0.74305  0.18330  Biso   1.000  Zn
  Zn14     1.0000 0.14741  0.54597  0.91870  Biso   1.000  Zn
  Zn15     1.0000 0.87593  0.47402  0.41482  Biso   1.000  Zn
  Zn16     1.0000 0.82900  0.75695  0.68330  Biso   1.000  Zn
  Zn17     1.0000 0.85259  0.95403  0.41870  Biso   1.000  Zn
  Zn18     1.0000 0.12407  0.02598  0.91482  Biso   1.000  Zn
  Zn19     1.0000 0.67100  0.25695  0.31670  Biso   1.000  Zn
  Zn20     1.0000 0.64741  0.45403  0.58130  Biso   1.000  Zn
  Zn21     1.0000 0.37593  0.52598  0.08518  Biso   1.000  Zn
  Zn22     1.0000 0.32900  0.24305  0.81670  Biso   1.000  Zn
  Zn23     1.0000 0.35259  0.04597  0.08130  Biso   1.000  Zn
  Zn24     1.0000 0.62407  0.97402  0.58518  Biso   1.000  Zn
  H97      1.0000 0.96200  0.72790  0.16510  Biso   1.000  H
  H98      1.0000 0.87350  0.68920  0.12910  Biso   1.000  H
  H99      1.0000 0.12480  0.64820  0.09150  Biso   1.000  H
  H100     1.0000 0.20710  0.68460  0.12940  Biso   1.000  H
  H101     1.0000 0.20040  0.58300  0.97910  Biso   1.000  H
  H102     1.0000 0.12340  0.60970  0.02210  Biso   1.000  H
  H103     1.0000 0.87790  0.54840  0.99210  Biso   1.000  H
  H104     1.0000 0.95820  0.52850  0.94830  Biso   1.000  H
  H105     1.0000 0.51740  0.53860  0.03470  Biso   1.000  H
  H106     1.0000 0.67320  0.56690  0.02620  Biso   1.000  H
  H107     1.0000 0.68390  0.61080  0.11160  Biso   1.000  H
  H108     1.0000 0.52880  0.58230  0.11790  Biso   1.000  H
  H109     1.0000 0.93890  0.91990  0.36120  Biso   1.000  H
  H110     1.0000 0.96770  0.85000  0.33510  Biso   1.000  H
  H111     1.0000 0.89680  0.77260  0.40840  Biso   1.000  H
  H112     1.0000 0.86780  0.84610  0.43250  Biso   1.000  H
  H113     1.0000 0.89480  0.58090  0.42980  Biso   1.000  H
  H114     1.0000 0.91420  0.65560  0.40630  Biso   1.000  H
  H115     1.0000 0.95740  0.58410  0.32950  Biso   1.000  H
  H116     1.0000 0.93200  0.51220  0.35450  Biso   1.000  H
  H117     1.0000 0.09860  0.66240  0.22260  Biso   1.000  H
  H118     1.0000 0.04140  0.65180  0.27010  Biso   1.000  H
  H119     1.0000 0.00020  0.79670  0.27470  Biso   1.000  H
  H120     1.0000 0.05650  0.80320  0.22690  Biso   1.000  H
  H121     1.0000 0.03800  0.77210  0.66510  Biso   1.000  H
  H122     1.0000 0.12650  0.81080  0.62910  Biso   1.000  H
  H123     1.0000 0.87520  0.85180  0.59150  Biso   1.000  H
  H124     1.0000 0.79290  0.81540  0.62940  Biso   1.000  H
  H125     1.0000 0.79960  0.91700  0.47910  Biso   1.000  H
  H126     1.0000 0.87660  0.89030  0.52210  Biso   1.000  H
  H127     1.0000 0.12210  0.95160  0.49210  Biso   1.000  H
  H128     1.0000 0.04180  0.97150  0.44830  Biso   1.000  H
  H129     1.0000 0.48260  0.96140  0.53470  Biso   1.000  H
  H130     1.0000 0.32680  0.93310  0.52620  Biso   1.000  H
  H131     1.0000 0.31610  0.88920  0.61160  Biso   1.000  H
  H132     1.0000 0.47120  0.91770  0.61790  Biso   1.000  H
  H133     1.0000 0.06110  0.58010  0.86120  Biso   1.000  H
  H134     1.0000 0.03230  0.65000  0.83510  Biso   1.000  H
  H135     1.0000 0.10320  0.72740  0.90840  Biso   1.000  H
  H136     1.0000 0.13220  0.65390  0.93250  Biso   1.000  H
  H137     1.0000 0.10520  0.91910  0.92980  Biso   1.000  H
  H138     1.0000 0.08580  0.84440  0.90630  Biso   1.000  H
  H139     1.0000 0.04260  0.91590  0.82950  Biso   1.000  H
  H140     1.0000 0.06800  0.98780  0.85450  Biso   1.000  H
  H141     1.0000 0.90140  0.83760  0.72260  Biso   1.000  H
  H142     1.0000 0.95860  0.84820  0.77010  Biso   1.000  H
  H143     1.0000 0.99980  0.70330  0.77470  Biso   1.000  H
  H144     1.0000 0.94350  0.69680  0.72690  Biso   1.000  H
  H145     1.0000 0.46200  0.27210  0.33490  Biso   1.000  H
  H146     1.0000 0.37350  0.31080  0.37090  Biso   1.000  H
  H147     1.0000 0.62480  0.35180  0.40850  Biso   1.000  H
  H148     1.0000 0.70710  0.31540  0.37060  Biso   1.000  H
  H149     1.0000 0.70040  0.41700  0.52090  Biso   1.000  H
  H150     1.0000 0.62340  0.39030  0.47790  Biso   1.000  H
  H151     1.0000 0.37790  0.45160  0.50790  Biso   1.000  H
  H152     1.0000 0.45820  0.47150  0.55170  Biso   1.000  H
  H153     1.0000 0.01740  0.46140  0.46530  Biso   1.000  H
  H154     1.0000 0.17320  0.43310  0.47380  Biso   1.000  H
  H155     1.0000 0.18390  0.38920  0.38840  Biso   1.000  H
  H156     1.0000 0.02880  0.41770  0.38210  Biso   1.000  H
  H157     1.0000 0.43890  0.08010  0.13880  Biso   1.000  H
  H158     1.0000 0.46770  0.15000  0.16490  Biso   1.000  H
  H159     1.0000 0.39680  0.22740  0.09160  Biso   1.000  H
  H160     1.0000 0.36780  0.15390  0.06750  Biso   1.000  H
  H161     1.0000 0.39480  0.41910  0.07020  Biso   1.000  H
  H162     1.0000 0.41420  0.34440  0.09370  Biso   1.000  H
  H163     1.0000 0.45740  0.41590  0.17050  Biso   1.000  H
  H164     1.0000 0.43200  0.48780  0.14550  Biso   1.000  H
  H165     1.0000 0.59860  0.33760  0.27740  Biso   1.000  H
  H166     1.0000 0.54140  0.34820  0.22990  Biso   1.000  H
  H167     1.0000 0.50020  0.20330  0.22530  Biso   1.000  H
  H168     1.0000 0.55650  0.19680  0.27310  Biso   1.000  H
  H169     1.0000 0.53800  0.22790  0.83490  Biso   1.000  H
  H170     1.0000 0.62650  0.18920  0.87090  Biso   1.000  H
  H171     1.0000 0.37520  0.14820  0.90850  Biso   1.000  H
  H172     1.0000 0.29290  0.18460  0.87060  Biso   1.000  H
  H173     1.0000 0.29960  0.08300  0.02090  Biso   1.000  H
  H174     1.0000 0.37660  0.10970  0.97790  Biso   1.000  H
  H175     1.0000 0.62210  0.04840  0.00790  Biso   1.000  H
  H176     1.0000 0.54180  0.02850  0.05170  Biso   1.000  H
  H177     1.0000 0.98260  0.03860  0.96530  Biso   1.000  H
  H178     1.0000 0.82680  0.06690  0.97380  Biso   1.000  H
  H179     1.0000 0.81610  0.11080  0.88840  Biso   1.000  H
  H180     1.0000 0.97120  0.08230  0.88210  Biso   1.000  H
  H181     1.0000 0.56110  0.41990  0.63880  Biso   1.000  H
  H182     1.0000 0.53230  0.35000  0.66490  Biso   1.000  H
  H183     1.0000 0.60320  0.27260  0.59160  Biso   1.000  H
  H184     1.0000 0.63220  0.34610  0.56750  Biso   1.000  H
  H185     1.0000 0.60520  0.08090  0.57020  Biso   1.000  H
  H186     1.0000 0.58580  0.15560  0.59370  Biso   1.000  H
  H187     1.0000 0.54260  0.08410  0.67050  Biso   1.000  H
  H188     1.0000 0.56800  0.01220  0.64550  Biso   1.000  H
  H189     1.0000 0.40140  0.16240  0.77740  Biso   1.000  H
  H190     1.0000 0.45860  0.15180  0.72990  Biso   1.000  H
  H191     1.0000 0.49980  0.29670  0.72530  Biso   1.000  H
  H192     1.0000 0.44350  0.30320  0.77310  Biso   1.000  H
  C145     1.0000 0.99560  0.71060  0.14990  Biso   1.000  C
  C146     1.0000 0.94260  0.68850  0.12840  Biso   1.000  C
  C147     1.0000 0.99010  0.66490  0.10540  Biso   1.000  C
  C148     1.0000 0.08920  0.66430  0.10670  Biso   1.000  C
  C149     1.0000 0.13800  0.68600  0.12910  Biso   1.000  C
  C150     1.0000 0.13270  0.57710  0.98130  Biso   1.000  C
  C151     1.0000 0.08770  0.59260  0.00740  Biso   1.000  C
  C152     1.0000 0.99100  0.58260  0.01110  Biso   1.000  C
  C153     1.0000 0.94410  0.55740  0.98950  Biso   1.000  C
  C154     1.0000 0.99280  0.54470  0.96370  Biso   1.000  C
  C155     1.0000 0.55200  0.55340  0.05050  Biso   1.000  C
  C156     1.0000 0.64490  0.57010  0.04530  Biso   1.000  C
  C157     1.0000 0.69680  0.59150  0.06820  Biso   1.000  C
  C158     1.0000 0.65090  0.59590  0.09540  Biso   1.000  C
  C159     1.0000 0.55870  0.57880  0.09900  Biso   1.000  C
  C160     1.0000 0.93510  0.63970  0.08150  Biso   1.000  C
  C161     1.0000 0.93850  0.60040  0.03770  Biso   1.000  C
  C162     1.0000 0.80000  0.60650  0.06400  Biso   1.000  C
  C163     1.0000 0.92910  0.88930  0.37070  Biso   1.000  C
  C164     1.0000 0.94640  0.84830  0.35510  Biso   1.000  C
  C165     1.0000 0.93250  0.80380  0.36890  Biso   1.000  C
  C166     1.0000 0.90450  0.80270  0.39820  Biso   1.000  C
  C167     1.0000 0.88790  0.84660  0.41230  Biso   1.000  C
  C168     1.0000 0.90590  0.58160  0.40900  Biso   1.000  C
  C169     1.0000 0.91910  0.62620  0.39510  Biso   1.000  C
  C170     1.0000 0.93910  0.62800  0.36540  Biso   1.000  C
  C171     1.0000 0.94370  0.58460  0.35010  Biso   1.000  C
  C172     1.0000 0.92820  0.54200  0.36520  Biso   1.000  C
  C173     1.0000 0.07990  0.69030  0.23380  Biso   1.000  C
  C174     1.0000 0.04560  0.68370  0.26190  Biso   1.000  C
  C175     1.0000 0.01710  0.72330  0.27820  Biso   1.000  C
  C176     1.0000 0.02140  0.76830  0.26450  Biso   1.000  C
  C177     1.0000 0.05600  0.77210  0.23610  Biso   1.000  C
  C178     1.0000 0.94820  0.75690  0.35230  Biso   1.000  C
  C179     1.0000 0.95040  0.67560  0.35040  Biso   1.000  C
  C180     1.0000 0.98640  0.71990  0.30990  Biso   1.000  C
  C181     1.0000 0.00440  0.78940  0.64990  Biso   1.000  C
  C182     1.0000 0.05740  0.81150  0.62840  Biso   1.000  C
  C183     1.0000 0.00990  0.83510  0.60540  Biso   1.000  C
  C184     1.0000 0.91080  0.83570  0.60670  Biso   1.000  C
  C185     1.0000 0.86200  0.81400  0.62910  Biso   1.000  C
  C186     1.0000 0.86730  0.92290  0.48130  Biso   1.000  C
  C187     1.0000 0.91230  0.90740  0.50740  Biso   1.000  C
  C188     1.0000 0.00900  0.91740  0.51110  Biso   1.000  C
  C189     1.0000 0.05590  0.94260  0.48950  Biso   1.000  C
  C190     1.0000 0.00720  0.95530  0.46370  Biso   1.000  C
  C191     1.0000 0.44800  0.94660  0.55050  Biso   1.000  C
  C192     1.0000 0.35510  0.92990  0.54530  Biso   1.000  C
  C193     1.0000 0.30320  0.90850  0.56820  Biso   1.000  C
  C194     1.0000 0.34910  0.90410  0.59540  Biso   1.000  C
  C195     1.0000 0.44130  0.92120  0.59900  Biso   1.000  C
  C196     1.0000 0.06490  0.86030  0.58150  Biso   1.000  C
  C197     1.0000 0.06150  0.89960  0.53770  Biso   1.000  C
  C198     1.0000 0.20000  0.89350  0.56400  Biso   1.000  C
  C199     1.0000 0.07090  0.61070  0.87070  Biso   1.000  C
  C200     1.0000 0.05360  0.65170  0.85510  Biso   1.000  C
  C201     1.0000 0.06750  0.69620  0.86890  Biso   1.000  C
  C202     1.0000 0.09550  0.69730  0.89820  Biso   1.000  C
  C203     1.0000 0.11210  0.65340  0.91230  Biso   1.000  C
  C204     1.0000 0.09410  0.91840  0.90900  Biso   1.000  C
  C205     1.0000 0.08090  0.87380  0.89510  Biso   1.000  C
  C206     1.0000 0.06090  0.87200  0.86540  Biso   1.000  C
  C207     1.0000 0.05630  0.91540  0.85010  Biso   1.000  C
  C208     1.0000 0.07180  0.95800  0.86520  Biso   1.000  C
  C209     1.0000 0.92010  0.80970  0.73380  Biso   1.000  C
  C210     1.0000 0.95440  0.81630  0.76190  Biso   1.000  C
  C211     1.0000 0.98290  0.77670  0.77820  Biso   1.000  C
  C212     1.0000 0.97860  0.73170  0.76450  Biso   1.000  C
  C213     1.0000 0.94400  0.72790  0.73610  Biso   1.000  C
  C214     1.0000 0.05180  0.74310  0.85230  Biso   1.000  C
  C215     1.0000 0.04960  0.82440  0.85040  Biso   1.000  C
  C216     1.0000 0.01360  0.78010  0.80990  Biso   1.000  C
  C217     1.0000 0.49560  0.28940  0.35010  Biso   1.000  C
  C218     1.0000 0.44260  0.31150  0.37160  Biso   1.000  C
  C219     1.0000 0.49010  0.33510  0.39460  Biso   1.000  C
  C220     1.0000 0.58920  0.33570  0.39330  Biso   1.000  C
  C221     1.0000 0.63800  0.31400  0.37090  Biso   1.000  C
  C222     1.0000 0.63270  0.42290  0.51870  Biso   1.000  C
  C223     1.0000 0.58770  0.40740  0.49260  Biso   1.000  C
  C224     1.0000 0.49100  0.41740  0.48890  Biso   1.000  C
  C225     1.0000 0.44410  0.44260  0.51050  Biso   1.000  C
  C226     1.0000 0.49280  0.45530  0.53630  Biso   1.000  C
  C227     1.0000 0.05200  0.44660  0.44950  Biso   1.000  C
  C228     1.0000 0.14490  0.42990  0.45470  Biso   1.000  C
  C229     1.0000 0.19680  0.40850  0.43180  Biso   1.000  C
  C230     1.0000 0.15090  0.40410  0.40460  Biso   1.000  C
  C231     1.0000 0.05870  0.42120  0.40100  Biso   1.000  C
  C232     1.0000 0.43510  0.36030  0.41850  Biso   1.000  C
  C233     1.0000 0.43850  0.39960  0.46230  Biso   1.000  C
  C234     1.0000 0.30000  0.39350  0.43600  Biso   1.000  C
  C235     1.0000 0.42910  0.11070  0.12930  Biso   1.000  C
  C236     1.0000 0.44640  0.15170  0.14490  Biso   1.000  C
  C237     1.0000 0.43250  0.19620  0.13110  Biso   1.000  C
  C238     1.0000 0.40450  0.19730  0.10180  Biso   1.000  C
  C239     1.0000 0.38790  0.15340  0.08770  Biso   1.000  C
  C240     1.0000 0.40590  0.41840  0.09100  Biso   1.000  C
  C241     1.0000 0.41910  0.37380  0.10490  Biso   1.000  C
  C242     1.0000 0.43910  0.37200  0.13460  Biso   1.000  C
  C243     1.0000 0.44370  0.41540  0.14990  Biso   1.000  C
  C244     1.0000 0.42820  0.45800  0.13480  Biso   1.000  C
  C245     1.0000 0.57990  0.30970  0.26620  Biso   1.000  C
  C246     1.0000 0.54560  0.31630  0.23810  Biso   1.000  C
  C247     1.0000 0.51710  0.27670  0.22180  Biso   1.000  C
  C248     1.0000 0.52140  0.23170  0.23550  Biso   1.000  C
  C249     1.0000 0.55600  0.22790  0.26390  Biso   1.000  C
  C250     1.0000 0.44820  0.24310  0.14770  Biso   1.000  C
  C251     1.0000 0.45040  0.32440  0.14960  Biso   1.000  C
  C252     1.0000 0.48640  0.28010  0.19010  Biso   1.000  C
  C253     1.0000 0.50440  0.21060  0.85010  Biso   1.000  C
  C254     1.0000 0.55740  0.18850  0.87160  Biso   1.000  C
  C255     1.0000 0.50990  0.16490  0.89460  Biso   1.000  C
  C256     1.0000 0.41080  0.16430  0.89330  Biso   1.000  C
  C257     1.0000 0.36200  0.18600  0.87090  Biso   1.000  C
  C258     1.0000 0.36730  0.07710  0.01870  Biso   1.000  C
  C259     1.0000 0.41230  0.09260  0.99260  Biso   1.000  C
  C260     1.0000 0.50900  0.08260  0.98890  Biso   1.000  C
  C261     1.0000 0.55590  0.05740  0.01050  Biso   1.000  C
  C262     1.0000 0.50720  0.04470  0.03630  Biso   1.000  C
  C263     1.0000 0.94800  0.05340  0.94950  Biso   1.000  C
  C264     1.0000 0.85510  0.07010  0.95470  Biso   1.000  C
  C265     1.0000 0.80320  0.09150  0.93180  Biso   1.000  C
  C266     1.0000 0.84910  0.09590  0.90460  Biso   1.000  C
  C267     1.0000 0.94130  0.07880  0.90100  Biso   1.000  C
  C268     1.0000 0.56490  0.13970  0.91850  Biso   1.000  C
  C269     1.0000 0.56150  0.10040  0.96230  Biso   1.000  C
  C270     1.0000 0.70000  0.10650  0.93600  Biso   1.000  C
  C271     1.0000 0.57090  0.38930  0.62930  Biso   1.000  C
  C272     1.0000 0.55360  0.34830  0.64490  Biso   1.000  C
  C273     1.0000 0.56750  0.30380  0.63110  Biso   1.000  C
  C274     1.0000 0.59550  0.30270  0.60180  Biso   1.000  C
  C275     1.0000 0.61210  0.34660  0.58770  Biso   1.000  C
  C276     1.0000 0.59410  0.08160  0.59100  Biso   1.000  C
  C277     1.0000 0.58090  0.12620  0.60490  Biso   1.000  C
  C278     1.0000 0.56090  0.12800  0.63460  Biso   1.000  C
  C279     1.0000 0.55630  0.08460  0.64990  Biso   1.000  C
  C280     1.0000 0.57180  0.04200  0.63480  Biso   1.000  C
  C281     1.0000 0.42010  0.19030  0.76620  Biso   1.000  C
  C282     1.0000 0.45440  0.18370  0.73810  Biso   1.000  C
  C283     1.0000 0.48290  0.22330  0.72180  Biso   1.000  C
  C284     1.0000 0.47860  0.26830  0.73550  Biso   1.000  C
  C285     1.0000 0.44400  0.27210  0.76390  Biso   1.000  C
  C286     1.0000 0.55180  0.25690  0.64770  Biso   1.000  C
  C287     1.0000 0.54960  0.17560  0.64960  Biso   1.000  C
  C288     1.0000 0.51360  0.21990  0.69010  Biso   1.000  C
  I25      1.0000 0.18505  0.83370  0.17259  Biso   1.000  I
  I26      1.0000 0.32568  0.69323  0.19226  Biso   1.000  I
  I27      1.0000 0.32997  0.55770  0.92278  Biso   1.000  I
  I28      1.0000 0.05840  0.48041  0.89038  Biso   1.000  I
  I29      1.0000 0.79935  0.49408  0.46501  Biso   1.000  I
  I30      1.0000 0.79038  0.42543  0.37559  Biso   1.000  I
  I31      1.0000 0.81495  0.66630  0.67259  Biso   1.000  I
  I32      1.0000 0.67432  0.80677  0.69226  Biso   1.000  I
  I33      1.0000 0.67003  0.94230  0.42278  Biso   1.000  I
  I34      1.0000 0.94160  0.01959  0.39038  Biso   1.000  I
  I35      1.0000 0.20065  0.00592  0.96501  Biso   1.000  I
  I36      1.0000 0.20962  0.07457  0.87559  Biso   1.000  I
  I37      1.0000 0.68505  0.16630  0.32741  Biso   1.000  I
  I38      1.0000 0.82568  0.30677  0.30774  Biso   1.000  I
  I39      1.0000 0.82997  0.44230  0.57722  Biso   1.000  I
  I40      1.0000 0.55840  0.51959  0.60962  Biso   1.000  I
  I41      1.0000 0.29935  0.50592  0.03499  Biso   1.000  I
  I42      1.0000 0.29038  0.57457  0.12441  Biso   1.000  I
  I43      1.0000 0.31495  0.33370  0.82741  Biso   1.000  I
  I44      1.0000 0.17432  0.19323  0.80774  Biso   1.000  I
  I45      1.0000 0.17003  0.05770  0.07722  Biso   1.000  I
  I46      1.0000 0.44160  0.98041  0.10962  Biso   1.000  I
  I47      1.0000 0.70065  0.99408  0.53499  Biso   1.000  I
  I48      1.0000 0.70962  0.92543  0.62441  Biso   1.000  I
  N49      1.0000 0.09210  0.70920  0.15090  Biso   1.000  N
  N50      1.0000 0.08730  0.55490  0.95990  Biso   1.000  N
  N51      1.0000 0.50770  0.55720  0.07730  Biso   1.000  N
  N52      1.0000 0.84080  0.63240  0.08540  Biso   1.000  N
  N53      1.0000 0.98900  0.62510  0.05770  Biso   1.000  N
  N54      1.0000 0.84450  0.58860  0.03953  Biso   1.000  N
  N55      1.0000 0.89830  0.88910  0.39930  Biso   1.000  N
  N56      1.0000 0.90830  0.53970  0.39410  Biso   1.000  N
  N57      1.0000 0.08850  0.73430  0.22118  Biso   1.000  N
  N58      1.0000 0.97370  0.76150  0.32367  Biso   1.000  N
  N59      1.0000 0.93800  0.71500  0.36647  Biso   1.000  N
  N60      1.0000 0.97660  0.67540  0.32144  Biso   1.000  N
  N61      1.0000 0.90790  0.79080  0.65090  Biso   1.000  N
  N62      1.0000 0.91270  0.94510  0.45990  Biso   1.000  N
  N63      1.0000 0.49230  0.94280  0.57730  Biso   1.000  N
  N64      1.0000 0.15920  0.86760  0.58540  Biso   1.000  N
  N65      1.0000 0.01100  0.87490  0.55770  Biso   1.000  N
  N66      1.0000 0.15550  0.91140  0.53953  Biso   1.000  N
  N67      1.0000 0.10170  0.61090  0.89930  Biso   1.000  N
  N68      1.0000 0.09170  0.96030  0.89410  Biso   1.000  N
  N69      1.0000 0.91150  0.76570  0.72118  Biso   1.000  N
  N70      1.0000 0.02630  0.73850  0.82367  Biso   1.000  N
  N71      1.0000 0.06200  0.78500  0.86647  Biso   1.000  N
  N72      1.0000 0.02340  0.82460  0.82144  Biso   1.000  N
  N73      1.0000 0.59210  0.29080  0.34910  Biso   1.000  N
  N74      1.0000 0.58730  0.44510  0.54010  Biso   1.000  N
  N75      1.0000 0.00770  0.44280  0.42270  Biso   1.000  N
  N76      1.0000 0.34080  0.36760  0.41460  Biso   1.000  N
  N77      1.0000 0.48900  0.37490  0.44230  Biso   1.000  N
  N78      1.0000 0.34450  0.41140  0.46047  Biso   1.000  N
  N79      1.0000 0.39830  0.11090  0.10070  Biso   1.000  N
  N80      1.0000 0.40830  0.46030  0.10590  Biso   1.000  N
  N81      1.0000 0.58850  0.26570  0.27882  Biso   1.000  N
  N82      1.0000 0.47370  0.23850  0.17633  Biso   1.000  N
  N83      1.0000 0.43800  0.28500  0.13353  Biso   1.000  N
  N84      1.0000 0.47660  0.32460  0.17856  Biso   1.000  N
  N85      1.0000 0.40790  0.20920  0.84910  Biso   1.000  N
  N86      1.0000 0.41270  0.05490  0.04010  Biso   1.000  N
  N87      1.0000 0.99230  0.05720  0.92270  Biso   1.000  N
  N88      1.0000 0.65920  0.13240  0.91460  Biso   1.000  N
  N89      1.0000 0.51100  0.12510  0.94230  Biso   1.000  N
  N90      1.0000 0.65550  0.08860  0.96047  Biso   1.000  N
  N91      1.0000 0.60170  0.38910  0.60070  Biso   1.000  N
  N92      1.0000 0.59170  0.03970  0.60590  Biso   1.000  N
  N93      1.0000 0.41150  0.23430  0.77882  Biso   1.000  N
  N94      1.0000 0.52630  0.26150  0.67633  Biso   1.000  N
  N95      1.0000 0.56200  0.21500  0.63353  Biso   1.000  N
  N96      1.0000 0.52340  0.17540  0.67856  Biso   1.000  N
