data_science.1056698_clean
_audit_creation_date              2019-04-03
_audit_creation_method            'Materials Studio'
_symmetry_space_group_name_H-M    'P1'
_symmetry_Int_Tables_number       1
_symmetry_cell_setting            triclinic
loop_
_symmetry_equiv_pos_as_xyz
  x,y,z
_cell_length_a                    23.3366
_cell_length_b                    23.3363
_cell_length_c                    23.3363
_cell_angle_alpha                 109.4710
_cell_angle_beta                  109.4710
_cell_angle_gamma                 109.4710
loop_
_atom_site_label
_atom_site_type_symbol
_atom_site_fract_x
_atom_site_fract_y
_atom_site_fract_z
_atom_site_U_iso_or_equiv
_atom_site_adp_type
_atom_site_occupancy
Cu1    Cu    0.14219   0.64219   0.50000   0.01267  Uiso   1.00
Cu2    Cu    0.64219   0.50000   0.14219   0.01267  Uiso   1.00
Cu3    Cu    0.50000   0.85781   0.35781   0.01267  Uiso   1.00
Cu4    Cu    0.25985   0.50000   0.75985   0.01267  Uiso   1.00
Cu5    Cu    0.50000   0.24015   0.74015   0.01267  Uiso   1.00
Cu6    Cu    0.50000   0.14219   0.64219   0.01267  Uiso   1.00
Cu7    Cu    0.85781   0.35781   0.50000   0.01267  Uiso   1.00
Cu8    Cu    0.50000   0.75985   0.25985   0.01267  Uiso   1.00
Cu9    Cu    0.74015   0.50000   0.24015   0.01267  Uiso   1.00
Cu10   Cu    0.24015   0.74015   0.50000   0.01267  Uiso   1.00
Cu11   Cu    0.75985   0.25985   0.50000   0.01267  Uiso   1.00
Cu12   Cu    0.35781   0.50000   0.85781   0.01267  Uiso   1.00
H1     H     0.35180   0.71440   0.82540   0.01267  Uiso   1.00
H2     H     0.63190   0.58940   0.51150   0.01267  Uiso   1.00
H3     H     0.02190   0.57570   0.84400   0.01267  Uiso   1.00
H4     H     0.36810   0.41060   0.48850   0.01267  Uiso   1.00
H5     H     0.27380   0.78140   0.25560   0.01267  Uiso   1.00
H6     H     0.72620   0.98180   0.50760   0.01267  Uiso   1.00
H7     H     0.41140   0.96600   0.83260   0.01267  Uiso   1.00
H8     H     0.47360   0.36260   0.64820   0.01267  Uiso   1.00
H9     H     0.35180   0.52640   0.63740   0.01267  Uiso   1.00
H10    H     0.17790   0.44620   0.02190   0.01267  Uiso   1.00
H11    H     0.58940   0.95750   0.07790   0.01267  Uiso   1.00
H12    H     0.17460   0.64820   0.28560   0.01267  Uiso   1.00
H13    H     0.92210   0.41060   0.04250   0.01267  Uiso   1.00
H14    H     0.52640   0.17460   0.88900   0.01267  Uiso   1.00
H15    H     0.03400   0.44540   0.86660   0.01267  Uiso   1.00
H16    H     0.51150   0.63190   0.58940   0.01267  Uiso   1.00
H17    H     0.52580   0.01820   0.74440   0.01267  Uiso   1.00
H18    H     0.96600   0.55460   0.13340   0.01267  Uiso   1.00
H19    H     0.17790   0.15600   0.73170   0.01267  Uiso   1.00
H20    H     0.48850   0.36810   0.41060   0.01267  Uiso   1.00
H21    H     0.48850   0.07790   0.12040   0.01267  Uiso   1.00
H22    H     0.16740   0.13340   0.57880   0.01267  Uiso   1.00
H23    H     0.57880   0.16740   0.13340   0.01267  Uiso   1.00
H24    H     0.03400   0.16740   0.58860   0.01267  Uiso   1.00
H25    H     0.78140   0.50760   0.52580   0.01267  Uiso   1.00
H26    H     0.72620   0.21860   0.74440   0.01267  Uiso   1.00
H27    H     0.36260   0.88900   0.71440   0.01267  Uiso   1.00
H28    H     0.47420   0.98180   0.25560   0.01267  Uiso   1.00
H29    H     0.49240   0.47420   0.21860   0.01267  Uiso   1.00
H30    H     0.15600   0.73170   0.17790   0.01267  Uiso   1.00
H31    H     0.95750   0.36810   0.87960   0.01267  Uiso   1.00
H32    H     0.26830   0.82210   0.84400   0.01267  Uiso   1.00
H33    H     0.36810   0.87960   0.95750   0.01267  Uiso   1.00
H34    H     0.41140   0.57880   0.44540   0.01267  Uiso   1.00
H35    H     0.42430   0.44620   0.26830   0.01267  Uiso   1.00
H36    H     0.64820   0.47360   0.36260   0.01267  Uiso   1.00
H37    H     0.52580   0.78140   0.50760   0.01267  Uiso   1.00
H38    H     0.44620   0.26830   0.42430   0.01267  Uiso   1.00
H39    H     0.41060   0.04250   0.92210   0.01267  Uiso   1.00
H40    H     0.07790   0.58940   0.95750   0.01267  Uiso   1.00
H41    H     0.04250   0.92210   0.41060   0.01267  Uiso   1.00
H42    H     0.55460   0.58860   0.42120   0.01267  Uiso   1.00
H43    H     0.55380   0.73170   0.57570   0.01267  Uiso   1.00
H44    H     0.42120   0.83260   0.86660   0.01267  Uiso   1.00
H45    H     0.15600   0.97810   0.42430   0.01267  Uiso   1.00
H46    H     0.71440   0.82540   0.35180   0.01267  Uiso   1.00
H47    H     0.63740   0.35180   0.52640   0.01267  Uiso   1.00
H48    H     0.64820   0.28560   0.17460   0.01267  Uiso   1.00
H49    H     0.12040   0.48850   0.07790   0.01267  Uiso   1.00
H50    H     0.57570   0.84400   0.02190   0.01267  Uiso   1.00
H51    H     0.01820   0.74440   0.52580   0.01267  Uiso   1.00
H52    H     0.73170   0.57570   0.55380   0.01267  Uiso   1.00
H53    H     0.84400   0.02190   0.57570   0.01267  Uiso   1.00
H54    H     0.96600   0.83260   0.41140   0.01267  Uiso   1.00
H55    H     0.50760   0.52580   0.78140   0.01267  Uiso   1.00
H56    H     0.57570   0.55380   0.73170   0.01267  Uiso   1.00
H57    H     0.01820   0.49240   0.27380   0.01267  Uiso   1.00
H58    H     0.25560   0.47420   0.98180   0.01267  Uiso   1.00
H59    H     0.21860   0.74440   0.72620   0.01267  Uiso   1.00
H60    H     0.98180   0.50760   0.72620   0.01267  Uiso   1.00
H61    H     0.28560   0.17460   0.64820   0.01267  Uiso   1.00
H62    H     0.83260   0.86660   0.42120   0.01267  Uiso   1.00
H63    H     0.83260   0.41140   0.96600   0.01267  Uiso   1.00
H64    H     0.74440   0.52580   0.01820   0.01267  Uiso   1.00
H65    H     0.41060   0.48850   0.36810   0.01267  Uiso   1.00
H66    H     0.74440   0.72620   0.21860   0.01267  Uiso   1.00
H67    H     0.86660   0.03400   0.44540   0.01267  Uiso   1.00
H68    H     0.28560   0.63740   0.11100   0.01267  Uiso   1.00
H69    H     0.36260   0.64820   0.47360   0.01267  Uiso   1.00
H70    H     0.95750   0.07790   0.58940   0.01267  Uiso   1.00
H71    H     0.42430   0.15600   0.97810   0.01267  Uiso   1.00
H72    H     0.71440   0.36260   0.88900   0.01267  Uiso   1.00
H73    H     0.21860   0.49240   0.47420   0.01267  Uiso   1.00
H74    H     0.63740   0.11100   0.28560   0.01267  Uiso   1.00
H75    H     0.44620   0.02190   0.17790   0.01267  Uiso   1.00
H76    H     0.26830   0.42430   0.44620   0.01267  Uiso   1.00
H77    H     0.50760   0.72620   0.98180   0.01267  Uiso   1.00
H78    H     0.55380   0.97810   0.82210   0.01267  Uiso   1.00
H79    H     0.97810   0.42430   0.15600   0.01267  Uiso   1.00
H80    H     0.12040   0.04250   0.63190   0.01267  Uiso   1.00
H81    H     0.86660   0.42120   0.83260   0.01267  Uiso   1.00
H82    H     0.17460   0.88900   0.52640   0.01267  Uiso   1.00
H83    H     0.57880   0.44540   0.41140   0.01267  Uiso   1.00
H84    H     0.11100   0.47360   0.82540   0.01267  Uiso   1.00
H85    H     0.42120   0.55460   0.58860   0.01267  Uiso   1.00
H86    H     0.88900   0.71440   0.36260   0.01267  Uiso   1.00
H87    H     0.47360   0.82540   0.11100   0.01267  Uiso   1.00
H88    H     0.98180   0.25560   0.47420   0.01267  Uiso   1.00
H89    H     0.58860   0.42120   0.55460   0.01267  Uiso   1.00
H90    H     0.02190   0.17790   0.44620   0.01267  Uiso   1.00
H91    H     0.16740   0.58860   0.03400   0.01267  Uiso   1.00
H92    H     0.88900   0.52640   0.17460   0.01267  Uiso   1.00
H93    H     0.13340   0.96600   0.55460   0.01267  Uiso   1.00
H94    H     0.84400   0.26830   0.82210   0.01267  Uiso   1.00
H95    H     0.13340   0.57880   0.16740   0.01267  Uiso   1.00
H96    H     0.92210   0.87960   0.51150   0.01267  Uiso   1.00
H97    H     0.58940   0.51150   0.63190   0.01267  Uiso   1.00
H98    H     0.78140   0.25560   0.27380   0.01267  Uiso   1.00
H99    H     0.07790   0.12040   0.48850   0.01267  Uiso   1.00
H100   H     0.58860   0.03400   0.16740   0.01267  Uiso   1.00
H101   H     0.47420   0.21860   0.49240   0.01267  Uiso   1.00
H102   H     0.44540   0.41140   0.57880   0.01267  Uiso   1.00
H103   H     0.04250   0.63190   0.12040   0.01267  Uiso   1.00
H104   H     0.27380   0.01820   0.49240   0.01267  Uiso   1.00
H105   H     0.82210   0.55380   0.97810   0.01267  Uiso   1.00
H106   H     0.51150   0.92210   0.87960   0.01267  Uiso   1.00
H107   H     0.52640   0.63740   0.35180   0.01267  Uiso   1.00
H108   H     0.55460   0.13340   0.96600   0.01267  Uiso   1.00
H109   H     0.82540   0.11100   0.47360   0.01267  Uiso   1.00
H110   H     0.87960   0.95750   0.36810   0.01267  Uiso   1.00
H111   H     0.97810   0.82210   0.55380   0.01267  Uiso   1.00
H112   H     0.49240   0.27380   0.01820   0.01267  Uiso   1.00
H113   H     0.73170   0.17790   0.15600   0.01267  Uiso   1.00
H114   H     0.44540   0.86660   0.03400   0.01267  Uiso   1.00
H115   H     0.11100   0.28560   0.63740   0.01267  Uiso   1.00
H116   H     0.82210   0.84400   0.26830   0.01267  Uiso   1.00
H117   H     0.63190   0.12040   0.04250   0.01267  Uiso   1.00
H118   H     0.87960   0.51150   0.92210   0.01267  Uiso   1.00
H119   H     0.82540   0.35180   0.71440   0.01267  Uiso   1.00
H120   H     0.25560   0.27380   0.78140   0.01267  Uiso   1.00
C1     C     0.41220   0.45830   0.38750   0.01267  Uiso   1.00
C2     C     0.78970   0.53180   0.04190   0.01267  Uiso   1.00
C3     C     0.87520   0.53220   0.13460   0.01267  Uiso   1.00
C4     C     0.54940   0.62850   0.43930   0.01267  Uiso   1.00
C5     C     0.42280   0.70840   0.89940   0.01267  Uiso   1.00
C6     C     0.90420   0.84970   0.34510   0.01267  Uiso   1.00
C7     C     0.38750   0.92920   0.97530   0.01267  Uiso   1.00
C8     C     0.02470   0.61250   0.07080   0.01267  Uiso   1.00
C9     C     0.39760   0.74060   0.86540   0.01267  Uiso   1.00
C10    C     0.25490   0.62300   0.49310   0.01267  Uiso   1.00
C11    C     0.34510   0.49540   0.44090   0.01267  Uiso   1.00
C12    C     0.74510   0.23820   0.36810   0.01267  Uiso   1.00
C13    C     0.80900   0.52340   0.10060   0.01267  Uiso   1.00
C14    C     0.13460   0.60240   0.25940   0.01267  Uiso   1.00
C15    C     0.18280   0.01850   0.46970   0.01267  Uiso   1.00
C16    C     0.42280   0.52340   0.71440   0.01267  Uiso   1.00
C17    C     0.54170   0.61250   0.58780   0.01267  Uiso   1.00
C18    C     0.04620   0.42720   0.97440   0.01267  Uiso   1.00
C19    C     0.55910   0.65490   0.50460   0.01267  Uiso   1.00
C20    C     0.25940   0.65700   0.12480   0.01267  Uiso   1.00
C21    C     0.48990   0.53180   0.74210   0.01267  Uiso   1.00
C22    C     0.87520   0.74060   0.34300   0.01267  Uiso   1.00
C23    C     0.71310   0.53030   0.54880   0.01267  Uiso   1.00
C24    C     0.04190   0.51010   0.25220   0.01267  Uiso   1.00
C25    C     0.29160   0.10060   0.57720   0.01267  Uiso   1.00
C26    C     0.34510   0.90420   0.84970   0.01267  Uiso   1.00
C27    C     0.44090   0.34510   0.49540   0.01267  Uiso   1.00
C28    C     0.60240   0.25940   0.13460   0.01267  Uiso   1.00
C29    C     0.54720   0.92820   0.97440   0.01267  Uiso   1.00
C30    C     0.65700   0.39760   0.53220   0.01267  Uiso   1.00
C31    C     0.94550   0.09580   0.44090   0.01267  Uiso   1.00
C32    C     0.12990   0.62300   0.36810   0.01267  Uiso   1.00
C33    C     0.38100   0.95380   0.92820   0.01267  Uiso   1.00
C34    C     0.54880   0.01850   0.83570   0.01267  Uiso   1.00
C35    C     0.09580   0.44090   0.94550   0.01267  Uiso   1.00
C36    C     0.71440   0.19100   0.29160   0.01267  Uiso   1.00
C37    C     0.28560   0.80900   0.70840   0.01267  Uiso   1.00
C38    C     0.50460   0.55910   0.65490   0.01267  Uiso   1.00
C39    C     0.01850   0.83570   0.54880   0.01267  Uiso   1.00
C40    C     0.65490   0.09580   0.15030   0.01267  Uiso   1.00
C41    C     0.02560   0.95380   0.57280   0.01267  Uiso   1.00
C42    C     0.47660   0.28560   0.57720   0.01267  Uiso   1.00
C43    C     0.29160   0.71440   0.19100   0.01267  Uiso   1.00
C44    C     0.43930   0.54940   0.62850   0.01267  Uiso   1.00
C45    C     0.95810   0.21030   0.46820   0.01267  Uiso   1.00
C46    C     0.76180   0.63190   0.25490   0.01267  Uiso   1.00
C47    C     0.11010   0.92090   0.54940   0.01267  Uiso   1.00
C48    C     0.81080   0.37150   0.92090   0.01267  Uiso   1.00
C49    C     0.50690   0.74510   0.37700   0.01267  Uiso   1.00
C50    C     0.53030   0.54880   0.71310   0.01267  Uiso   1.00
C51    C     0.57280   0.02560   0.95380   0.01267  Uiso   1.00
C52    C     0.04610   0.07080   0.45830   0.01267  Uiso   1.00
C53    C     0.28690   0.46970   0.45120   0.01267  Uiso   1.00
C54    C     0.74210   0.21030   0.25220   0.01267  Uiso   1.00
C55    C     0.21030   0.25220   0.74210   0.01267  Uiso   1.00
C56    C     0.37150   0.56070   0.45060   0.01267  Uiso   1.00
C57    C     0.57720   0.47660   0.28560   0.01267  Uiso   1.00
C58    C     0.44090   0.94550   0.09580   0.01267  Uiso   1.00
C59    C     0.98150   0.16430   0.45120   0.01267  Uiso   1.00
C60    C     0.36810   0.74510   0.23820   0.01267  Uiso   1.00
C61    C     0.34300   0.87520   0.74060   0.01267  Uiso   1.00
C62    C     0.74210   0.48990   0.53180   0.01267  Uiso   1.00
C63    C     0.65490   0.50460   0.55910   0.01267  Uiso   1.00
C64    C     0.81720   0.98150   0.53030   0.01267  Uiso   1.00
C65    C     0.58780   0.54170   0.61250   0.01267  Uiso   1.00
C66    C     0.74060   0.86540   0.39760   0.01267  Uiso   1.00
C67    C     0.25790   0.51010   0.46820   0.01267  Uiso   1.00
C68    C     0.07910   0.18920   0.62850   0.01267  Uiso   1.00
C69    C     0.62300   0.36810   0.12990   0.01267  Uiso   1.00
C70    C     0.92920   0.97530   0.38750   0.01267  Uiso   1.00
C71    C     0.74780   0.25790   0.78970   0.01267  Uiso   1.00
C72    C     0.70840   0.89940   0.42280   0.01267  Uiso   1.00
C73    C     0.92090   0.81080   0.37150   0.01267  Uiso   1.00
C74    C     0.42720   0.38100   0.45280   0.01267  Uiso   1.00
C75    C     0.88990   0.43930   0.81080   0.01267  Uiso   1.00
C76    C     0.92090   0.54940   0.11010   0.01267  Uiso   1.00
C77    C     0.74060   0.34300   0.87520   0.01267  Uiso   1.00
C78    C     0.81720   0.28690   0.83570   0.01267  Uiso   1.00
C79    C     0.76180   0.50690   0.12990   0.01267  Uiso   1.00
C80    C     0.61250   0.07080   0.02470   0.01267  Uiso   1.00
C81    C     0.15030   0.65490   0.09580   0.01267  Uiso   1.00
C82    C     0.15030   0.05450   0.49540   0.01267  Uiso   1.00
C83    C     0.49310   0.25490   0.62300   0.01267  Uiso   1.00
C84    C     0.25490   0.76180   0.63190   0.01267  Uiso   1.00
C85    C     0.95390   0.92920   0.54170   0.01267  Uiso   1.00
C86    C     0.18920   0.11010   0.56070   0.01267  Uiso   1.00
C87    C     0.63190   0.87010   0.37700   0.01267  Uiso   1.00
C88    C     0.74780   0.95810   0.48990   0.01267  Uiso   1.00
C89    C     0.46970   0.18280   0.01850   0.01267  Uiso   1.00
C90    C     0.92820   0.38100   0.95380   0.01267  Uiso   1.00
C91    C     0.62300   0.49310   0.25490   0.01267  Uiso   1.00
C92    C     0.55910   0.05450   0.90420   0.01267  Uiso   1.00
C93    C     0.45060   0.88990   0.07910   0.01267  Uiso   1.00
C94    C     0.58780   0.97530   0.04610   0.01267  Uiso   1.00
C95    C     0.57720   0.29160   0.10060   0.01267  Uiso   1.00
C96    C     0.62850   0.43930   0.54940   0.01267  Uiso   1.00
C97    C     0.07180   0.61900   0.04620   0.01267  Uiso   1.00
C98    C     0.45280   0.42720   0.38100   0.01267  Uiso   1.00
C99    C     0.46780   0.86540   0.12480   0.01267  Uiso   1.00
C100   C     0.45830   0.38750   0.41220   0.01267  Uiso   1.00
C101   C     0.54170   0.95390   0.92920   0.01267  Uiso   1.00
C102   C     0.81080   0.88990   0.43930   0.01267  Uiso   1.00
C103   C     0.39760   0.53220   0.65700   0.01267  Uiso   1.00
C104   C     0.87010   0.23820   0.49310   0.01267  Uiso   1.00
C105   C     0.37700   0.63190   0.87010   0.01267  Uiso   1.00
C106   C     0.83570   0.54880   0.01850   0.01267  Uiso   1.00
C107   C     0.13460   0.87520   0.53220   0.01267  Uiso   1.00
C108   C     0.90420   0.55910   0.05450   0.01267  Uiso   1.00
C109   C     0.97440   0.54720   0.92820   0.01267  Uiso   1.00
C110   C     0.53180   0.74210   0.48990   0.01267  Uiso   1.00
C111   C     0.25940   0.13460   0.60240   0.01267  Uiso   1.00
C112   C     0.94550   0.50460   0.84970   0.01267  Uiso   1.00
C113   C     0.97440   0.04620   0.42720   0.01267  Uiso   1.00
C114   C     0.89940   0.42280   0.70840   0.01267  Uiso   1.00
C115   C     0.11010   0.56070   0.18920   0.01267  Uiso   1.00
C116   C     0.49310   0.87010   0.23820   0.01267  Uiso   1.00
C117   C     0.45060   0.37150   0.56070   0.01267  Uiso   1.00
C118   C     0.54720   0.57280   0.61900   0.01267  Uiso   1.00
C119   C     0.84970   0.94550   0.50460   0.01267  Uiso   1.00
C120   C     0.18920   0.62850   0.07910   0.01267  Uiso   1.00
C121   C     0.02560   0.45280   0.07180   0.01267  Uiso   1.00
C122   C     0.49540   0.44090   0.34510   0.01267  Uiso   1.00
C123   C     0.09580   0.15030   0.65490   0.01267  Uiso   1.00
C124   C     0.97530   0.04610   0.58780   0.01267  Uiso   1.00
C125   C     0.34300   0.60240   0.46780   0.01267  Uiso   1.00
C126   C     0.92920   0.54170   0.95390   0.01267  Uiso   1.00
C127   C     0.61900   0.54720   0.57280   0.01267  Uiso   1.00
C128   C     0.46820   0.95810   0.21030   0.01267  Uiso   1.00
C129   C     0.02470   0.95390   0.41220   0.01267  Uiso   1.00
C130   C     0.04190   0.78970   0.53180   0.01267  Uiso   1.00
C131   C     0.71440   0.42280   0.52340   0.01267  Uiso   1.00
C132   C     0.62850   0.07910   0.18920   0.01267  Uiso   1.00
C133   C     0.21030   0.46820   0.95810   0.01267  Uiso   1.00
C134   C     0.61900   0.04620   0.07180   0.01267  Uiso   1.00
C135   C     0.23820   0.36810   0.74510   0.01267  Uiso   1.00
C136   C     0.50460   0.84970   0.94550   0.01267  Uiso   1.00
C137   C     0.45280   0.07180   0.02560   0.01267  Uiso   1.00
C138   C     0.07910   0.45060   0.88990   0.01267  Uiso   1.00
C139   C     0.07080   0.45830   0.04610   0.01267  Uiso   1.00
C140   C     0.07080   0.02470   0.61250   0.01267  Uiso   1.00
C141   C     0.45830   0.04610   0.07080   0.01267  Uiso   1.00
C142   C     0.70840   0.28560   0.80900   0.01267  Uiso   1.00
C143   C     0.89940   0.19100   0.47660   0.01267  Uiso   1.00
C144   C     0.87010   0.37700   0.63190   0.01267  Uiso   1.00
C145   C     0.95810   0.48990   0.74780   0.01267  Uiso   1.00
C146   C     0.95390   0.41220   0.02470   0.01267  Uiso   1.00
C147   C     0.54880   0.71310   0.53030   0.01267  Uiso   1.00
C148   C     0.04620   0.07180   0.61900   0.01267  Uiso   1.00
C149   C     0.37150   0.92090   0.81080   0.01267  Uiso   1.00
C150   C     0.53180   0.04190   0.78970   0.01267  Uiso   1.00
C151   C     0.12990   0.76180   0.50690   0.01267  Uiso   1.00
C152   C     0.83570   0.81720   0.28690   0.01267  Uiso   1.00
C153   C     0.16430   0.18280   0.71310   0.01267  Uiso   1.00
C154   C     0.46780   0.34300   0.60240   0.01267  Uiso   1.00
C155   C     0.56070   0.45060   0.37150   0.01267  Uiso   1.00
C156   C     0.38750   0.41220   0.45830   0.01267  Uiso   1.00
C157   C     0.05450   0.49540   0.15030   0.01267  Uiso   1.00
C158   C     0.25790   0.78970   0.74780   0.01267  Uiso   1.00
C159   C     0.65700   0.12480   0.25940   0.01267  Uiso   1.00
C160   C     0.51010   0.25220   0.04190   0.01267  Uiso   1.00
C161   C     0.84970   0.34510   0.90420   0.01267  Uiso   1.00
C162   C     0.53220   0.65700   0.39760   0.01267  Uiso   1.00
C163   C     0.63190   0.25490   0.76180   0.01267  Uiso   1.00
C164   C     0.86540   0.12480   0.46780   0.01267  Uiso   1.00
C165   C     0.52340   0.10060   0.80900   0.01267  Uiso   1.00
C166   C     0.19100   0.47660   0.89940   0.01267  Uiso   1.00
C167   C     0.45120   0.28690   0.46970   0.01267  Uiso   1.00
C168   C     0.41220   0.02470   0.95390   0.01267  Uiso   1.00
C169   C     0.10060   0.57720   0.29160   0.01267  Uiso   1.00
C170   C     0.71310   0.16430   0.18280   0.01267  Uiso   1.00
C171   C     0.92820   0.97440   0.54720   0.01267  Uiso   1.00
C172   C     0.16430   0.45120   0.98150   0.01267  Uiso   1.00
C173   C     0.49540   0.15030   0.05450   0.01267  Uiso   1.00
C174   C     0.46820   0.25790   0.51010   0.01267  Uiso   1.00
C175   C     0.61250   0.58780   0.54170   0.01267  Uiso   1.00
C176   C     0.23820   0.49310   0.87010   0.01267  Uiso   1.00
C177   C     0.57280   0.61900   0.54720   0.01267  Uiso   1.00
C178   C     0.51010   0.46820   0.25790   0.01267  Uiso   1.00
C179   C     0.25220   0.74210   0.21030   0.01267  Uiso   1.00
C180   C     0.80900   0.70840   0.28560   0.01267  Uiso   1.00
C181   C     0.01850   0.46970   0.18280   0.01267  Uiso   1.00
C182   C     0.97530   0.38750   0.92920   0.01267  Uiso   1.00
C183   C     0.88990   0.07910   0.45060   0.01267  Uiso   1.00
C184   C     0.60240   0.46780   0.34300   0.01267  Uiso   1.00
C185   C     0.38100   0.45280   0.42720   0.01267  Uiso   1.00
C186   C     0.52340   0.71440   0.42280   0.01267  Uiso   1.00
C187   C     0.12480   0.46780   0.86540   0.01267  Uiso   1.00
C188   C     0.95380   0.92820   0.38100   0.01267  Uiso   1.00
C189   C     0.28560   0.57720   0.47660   0.01267  Uiso   1.00
C190   C     0.18280   0.71310   0.16430   0.01267  Uiso   1.00
C191   C     0.43930   0.81080   0.88990   0.01267  Uiso   1.00
C192   C     0.42720   0.97440   0.04620   0.01267  Uiso   1.00
C193   C     0.25220   0.04190   0.51010   0.01267  Uiso   1.00
C194   C     0.28690   0.83570   0.81720   0.01267  Uiso   1.00
C195   C     0.48990   0.74780   0.95810   0.01267  Uiso   1.00
C196   C     0.12480   0.25940   0.65700   0.01267  Uiso   1.00
C197   C     0.53220   0.13460   0.87520   0.01267  Uiso   1.00
C198   C     0.07180   0.02560   0.45280   0.01267  Uiso   1.00
C199   C     0.56070   0.18920   0.11010   0.01267  Uiso   1.00
C200   C     0.50690   0.12990   0.76180   0.01267  Uiso   1.00
C201   C     0.46970   0.45120   0.28690   0.01267  Uiso   1.00
C202   C     0.53030   0.81720   0.98150   0.01267  Uiso   1.00
C203   C     0.54940   0.11010   0.92090   0.01267  Uiso   1.00
C204   C     0.98150   0.53030   0.81720   0.01267  Uiso   1.00
C205   C     0.95380   0.57280   0.02560   0.01267  Uiso   1.00
C206   C     0.19100   0.29160   0.71440   0.01267  Uiso   1.00
C207   C     0.86540   0.39760   0.74060   0.01267  Uiso   1.00
C208   C     0.05450   0.90420   0.55910   0.01267  Uiso   1.00
C209   C     0.45120   0.98150   0.16430   0.01267  Uiso   1.00
C210   C     0.10060   0.80900   0.52340   0.01267  Uiso   1.00
C211   C     0.74510   0.37700   0.50690   0.01267  Uiso   1.00
C212   C     0.78970   0.74780   0.25790   0.01267  Uiso   1.00
C213   C     0.47660   0.89940   0.19100   0.01267  Uiso   1.00
C214   C     0.37700   0.50690   0.74510   0.01267  Uiso   1.00
C215   C     0.36810   0.12990   0.62300   0.01267  Uiso   1.00
C216   C     0.04610   0.58780   0.97530   0.01267  Uiso   1.00
O1     O     0.60318   0.90082   0.40234   0.01267  Uiso   1.00
O2     O     0.59766   0.39682   0.09918   0.01267  Uiso   1.00
O4     O     0.71727   0.21615   0.39868   0.01267  Uiso   1.00
O5     O     0.50112   0.71727   0.31859   0.01267  Uiso   1.00
O6     O     0.09918   0.59766   0.39682   0.01267  Uiso   1.00
O8     O     0.39682   0.79916   0.29764   0.01267  Uiso   1.00
O9     O     0.79916   0.29764   0.39682   0.01267  Uiso   1.00
O10    O     0.70236   0.50152   0.09918   0.01267  Uiso   1.00
O11    O     0.31859   0.60132   0.81747   0.01267  Uiso   1.00
O14    O     0.49888   0.81747   0.21615   0.01267  Uiso   1.00
O15    O     0.28273   0.78385   0.60132   0.01267  Uiso   1.00
O16    O     0.39868   0.18253   0.68141   0.01267  Uiso   1.00
O17    O     0.60318   0.20084   0.70236   0.01267  Uiso   1.00
O19    O     0.09918   0.70236   0.50152   0.01267  Uiso   1.00
O20    O     0.28273   0.68141   0.49888   0.01267  Uiso   1.00
O22    O     0.68141   0.39868   0.18253   0.01267  Uiso   1.00
O23    O     0.90082   0.40234   0.60318   0.01267  Uiso   1.00
O24    O     0.39868   0.71727   0.21615   0.01267  Uiso   1.00
O25    O     0.81747   0.31859   0.60132   0.01267  Uiso   1.00
O27    O     0.50152   0.79916   0.40234   0.01267  Uiso   1.00
O28    O     0.18253   0.68141   0.39868   0.01267  Uiso   1.00
O29    O     0.79916   0.40234   0.50152   0.01267  Uiso   1.00
O30    O     0.59766   0.49848   0.20084   0.01267  Uiso   1.00
O32    O     0.78385   0.60132   0.28273   0.01267  Uiso   1.00
O34    O     0.29764   0.39682   0.79916   0.01267  Uiso   1.00
O35    O     0.49848   0.90082   0.29764   0.01267  Uiso   1.00
O36    O     0.78385   0.50112   0.18253   0.01267  Uiso   1.00
O37    O     0.60132   0.81747   0.31859   0.01267  Uiso   1.00
O38    O     0.68141   0.49888   0.28273   0.01267  Uiso   1.00
O39    O     0.20084   0.70236   0.60318   0.01267  Uiso   1.00
O40    O     0.40234   0.50152   0.79916   0.01267  Uiso   1.00
O41    O     0.60132   0.28273   0.78385   0.01267  Uiso   1.00
O42    O     0.31859   0.50112   0.71727   0.01267  Uiso   1.00
O43    O     0.18253   0.78385   0.50112   0.01267  Uiso   1.00
O44    O     0.21615   0.49888   0.81747   0.01267  Uiso   1.00
O45    O     0.50152   0.09918   0.70236   0.01267  Uiso   1.00
O46    O     0.49848   0.20084   0.59766   0.01267  Uiso   1.00
O47    O     0.70236   0.60318   0.20084   0.01267  Uiso   1.00
O48    O     0.39682   0.09918   0.59766   0.01267  Uiso   1.00
O50    O     0.29764   0.49848   0.90082   0.01267  Uiso   1.00
O51    O     0.49888   0.28273   0.68141   0.01267  Uiso   1.00
O52    O     0.21615   0.39868   0.71727   0.01267  Uiso   1.00
O54    O     0.71727   0.31859   0.50112   0.01267  Uiso   1.00
O55    O     0.90082   0.29764   0.49848   0.01267  Uiso   1.00
O56    O     0.81747   0.21615   0.49888   0.01267  Uiso   1.00
O57    O     0.20084   0.59766   0.49848   0.01267  Uiso   1.00
O58    O     0.40234   0.60318   0.90082   0.01267  Uiso   1.00
O60    O     0.50112   0.18253   0.78385   0.01267  Uiso   1.00
loop_
_geom_bond_atom_site_label_1
_geom_bond_atom_site_label_2
_geom_bond_distance
_geom_bond_site_symmetry_2
_ccdc_geom_bond_type
Cu1    Cu10    2.640   .     S
Cu1    O6      1.977   .     S
Cu1    O19     1.977   .     S
Cu1    O39     1.977   .     S
Cu1    O57     1.977   .     S
Cu2    Cu9     2.640   .     S
Cu2    O2      1.977   .     S
Cu2    O10     1.977   .     S
Cu2    O30     1.977   .     S
Cu2    O47     1.977   .     S
Cu3    Cu8     2.640   .     S
Cu3    O1      1.978   .     S
Cu3    O8      1.978   .     S
Cu3    O27     1.977   .     S
Cu3    O35     1.977   .     S
Cu4    Cu12    2.640   .     S
Cu4    O11     1.941   .     S
Cu4    O42     1.941   .     S
Cu4    O44     1.941   .     S
Cu4    O52     1.941   .     S
Cu5    Cu6     2.640   .     S
Cu5    O16     1.941   .     S
Cu5    O41     1.941   .     S
Cu5    O51     1.941   .     S
Cu5    O60     1.941   .     S
Cu6    O17     1.978   .     S
Cu6    O45     1.977   .     S
Cu6    O46     1.977   .     S
Cu6    O48     1.978   .     S
Cu7    Cu11    2.640   .     S
Cu7    O9      1.977   .     S
Cu7    O23     1.977   .     S
Cu7    O29     1.977   .     S
Cu7    O55     1.977   .     S
Cu8    O5      1.941   .     S
Cu8    O14     1.941   .     S
Cu8    O24     1.941   .     S
Cu8    O37     1.941   .     S
Cu9    O22     1.941   .     S
Cu9    O32     1.941   .     S
Cu9    O36     1.941   .     S
Cu9    O38     1.941   .     S
Cu10   O15     1.941   .     S
Cu10   O20     1.941   .     S
Cu10   O28     1.941   .     S
Cu10   O43     1.941   .     S
Cu11   O4      1.941   .     S
Cu11   O25     1.941   .     S
Cu11   O54     1.941   .     S
Cu11   O56     1.941   .     S
Cu12   O34     1.977   .     S
Cu12   O40     1.977   .     S
Cu12   O50     1.977   .     S
Cu12   O58     1.977   .     S
H1     C9      0.952   .     S
H2     C175    0.960   .     S
H3     C204    0.950   1_455 S
H4     C156    0.960   .     S
H5     C179    0.950   .     S
H6     C88     0.950   .     S
H7     C149    0.953   .     S
H8     C154    0.952   .     S
H9     C103    0.952   .     S
H10    C172    0.950   1_554 S
H11    C94     0.960   .     S
H12    C14     0.952   .     S
H13    C146    0.960   .     S
H14    C197    0.952   .     S
H15    C138    0.953   .     S
H16    C17     0.960   .     S
H17    C150    0.950   .     S
H18    C76     0.953   .     S
H19    C153    0.950   .     S
H20    C100    0.960   .     S
H21    C141    0.960   .     S
H22    C86     0.953   .     S
H23    C199    0.953   .     S
H24    C68     0.953   .     S
H25    C62     0.950   .     S
H26    C71     0.950   .     S
H27    C61     0.952   .     S
H28    C128    0.950   .     S
H29    C178    0.950   .     S
H30    C190    0.950   .     S
H31    C182    0.960   .     S
H32    C194    0.950   .     S
H33    C7      0.960   .     S
H34    C56     0.953   .     S
H35    C201    0.950   .     S
H36    C184    0.952   .     S
H37    C110    0.950   .     S
H38    C167    0.950   .     S
H39    C168    0.960   .     S
H40    C216    0.960   .     S
H41    C129    0.960   .     S
H42    C4      0.953   .     S
H43    C147    0.950   .     S
H44    C191    0.953   .     S
H45    C15     0.950   1_565 S
H46    C66     0.952   .     S
H47    C30     0.952   .     S
H48    C28     0.952   .     S
H49    C139    0.960   .     S
H50    C202    0.950   1_554 S
H51    C130    0.950   .     S
H52    C23     0.950   .     S
H53    C64     0.950   1_545 S
H54    C73     0.953   .     S
H55    C21     0.950   .     S
H56    C50     0.950   .     S
H57    C24     0.950   .     S
H58    C133    0.950   .     S
H59    C158    0.950   .     S
H60    C145    0.950   .     S
H61    C111    0.952   .     S
H62    C102    0.953   .     S
H63    C48     0.953   .     S
H64    C2      0.950   .     S
H65    C1      0.960   .     S
H66    C212    0.950   .     S
H67    C183    0.953   .     S
H68    C20     0.952   .     S
H69    C125    0.952   .     S
H70    C124    0.960   .     S
H71    C89     0.950   1_556 S
H72    C77     0.952   .     S
H73    C67     0.950   .     S
H74    C159    0.952   .     S
H75    C209    0.950   1_545 S
H76    C53     0.950   .     S
H77    C195    0.950   .     S
H78    C34     0.950   1_565 S
H79    C181    0.950   1_655 S
H80    C140    0.960   .     S
H81    C75     0.953   .     S
H82    C107    0.952   .     S
H83    C155    0.953   .     S
H84    C187    0.952   .     S
H85    C44     0.953   .     S
H86    C22     0.952   .     S
H87    C99     0.952   .     S
H88    C45     0.950   .     S
H89    C96     0.953   .     S
H90    C59     0.950   1_455 S
H91    C120    0.953   .     S
H92    C3      0.952   .     S
H93    C47     0.953   .     S
H94    C78     0.950   .     S
H95    C115    0.953   .     S
H96    C85     0.960   .     S
H97    C65     0.960   .     S
H98    C54     0.950   .     S
H99    C52     0.960   .     S
H100   C132    0.953   .     S
H101   C174    0.950   .     S
H102   C117    0.953   .     S
H103   C8      0.960   .     S
H104   C193    0.950   .     S
H105   C106    0.950   1_556 S
H106   C101    0.960   .     S
H107   C162    0.952   .     S
H108   C203    0.953   .     S
H109   C164    0.952   .     S
H110   C70     0.960   .     S
H111   C39     0.950   1_655 S
H112   C160    0.950   .     S
H113   C170    0.950   .     S
H114   C93     0.953   .     S
H115   C196    0.952   .     S
H116   C152    0.950   .     S
H117   C80     0.960   .     S
H118   C126    0.960   .     S
H119   C207    0.952   .     S
H120   C55     0.950   .     S
C1     C98     1.389   .     A
C1     C185    1.368   .     A
C2     C13     1.394   .     A
C2     C106    1.364   .     A
C3     C13     1.386   .     A
C3     C76     1.378   .     A
C4     C19     1.343   .     A
C4     C162    1.378   .     A
C5     C9      1.386   .     A
C5     C105    1.491   .     S
C5     C195    1.394   .     A
C6     C73     1.343   .     A
C6     C152    1.426   .     A
C6     C188    1.521   .     S
C7     C33     1.389   .     A
C7     C192    1.368   1_556 A
C8     C97     1.389   .     A
C8     C205    1.368   1_455 A
C9     C191    1.378   .     A
C10    C189    1.491   .     S
C10    O20     1.236   .     A
C10    O57     1.271   .     A
C11    C53     1.426   .     A
C11    C56     1.343   .     A
C11    C185    1.521   .     S
C12    C36     1.491   .     S
C12    O4      1.236   .     A
C12    O9      1.271   .     A
C13    C79     1.491   .     S
C14    C115    1.378   .     A
C14    C169    1.386   .     A
C15    H45     0.950   1_545 S
C15    C82     1.426   .     A
C15    C193    1.364   .     A
C16    C21     1.394   .     A
C16    C103    1.386   .     A
C16    C214    1.491   .     S
C17    C118    1.368   .     A
C17    C177    1.389   .     A
C18    C35     1.521   .     S
C18    C139    1.389   1_556 A
C18    C182    1.368   1_455 A
C19    C147    1.426   .     A
C19    C177    1.521   .     S
C20    C43     1.386   .     A
C20    C120    1.378   .     A
C21    C50     1.364   .     A
C22    C73     1.378   .     A
C22    C180    1.386   .     A
C23    C62     1.364   .     A
C23    C63     1.426   .     A
C24    C169    1.394   .     A
C24    C181    1.364   .     A
C25    C111    1.386   .     A
C25    C193    1.394   .     A
C25    C215    1.491   .     S
C26    C33     1.521   .     S
C26    C149    1.343   .     A
C26    C194    1.426   .     A
C27    C74     1.521   .     S
C27    C117    1.343   .     A
C27    C167    1.426   .     A
C28    C95     1.386   .     A
C28    C199    1.378   .     A
C29    C94     1.389   1_556 A
C29    C101    1.368   .     A
C29    C136    1.521   .     S
C30    C96     1.378   .     A
C30    C131    1.386   .     A
C31    C59     1.426   .     A
C31    C113    1.521   .     S
C31    C183    1.343   .     A
C32    C169    1.491   .     S
C32    O6      1.271   .     A
C32    O28     1.236   .     A
C33    C168    1.368   1_565 A
C34    H78     0.950   1_545 S
C34    C92     1.426   .     A
C34    C150    1.364   .     A
C35    C138    1.343   .     A
C35    C172    1.426   .     A
C36    C54     1.394   .     A
C36    C159    1.386   .     A
C37    C61     1.386   .     A
C37    C84     1.491   .     S
C37    C158    1.394   .     A
C38    C44     1.343   .     A
C38    C50     1.426   .     A
C38    C118    1.521   .     S
C39    H111    0.950   1_455 S
C39    C130    1.364   .     A
C39    C208    1.426   .     A
C40    C132    1.343   .     A
C40    C134    1.521   .     S
C40    C170    1.426   .     A
C41    C85     1.389   1_455 A
C41    C140    1.368   1_565 A
C41    C208    1.521   .     S
C42    C83     1.491   .     S
C42    C154    1.386   .     A
C42    C174    1.394   .     A
C43    C60     1.491   .     S
C43    C179    1.394   .     A
C44    C103    1.378   .     A
C45    C59     1.364   .     A
C45    C143    1.394   .     A
C46    C180    1.491   .     S
C46    O32     1.236   .     A
C46    O47     1.271   .     A
C47    C107    1.378   .     A
C47    C208    1.343   .     A
C48    C77     1.378   .     A
C48    C161    1.343   .     A
C49    C186    1.491   .     S
C49    O5      1.236   .     A
C49    O27     1.271   .     A
C51    C80     1.368   1_556 A
C51    C92     1.521   .     S
C51    C101    1.389   1_545 A
C52    C113    1.389   1_455 A
C52    C198    1.368   .     A
C53    C67     1.364   .     A
C54    C170    1.364   .     A
C55    C153    1.364   .     A
C55    C206    1.394   .     A
C56    C125    1.378   .     A
C57    C91     1.491   .     S
C57    C178    1.394   .     A
C57    C184    1.386   .     A
C58    C93     1.343   .     A
C58    C192    1.521   .     S
C58    C209    1.426   .     A
C59    H90     0.950   1_655 S
C60    O8      1.271   .     A
C60    O24     1.236   .     A
C61    C149    1.378   .     A
C62    C131    1.394   .     A
C63    C96     1.343   .     A
C63    C127    1.521   .     S
C64    H53     0.950   1_565 S
C64    C88     1.364   .     A
C64    C119    1.426   .     A
C65    C118    1.389   .     A
C65    C127    1.368   .     A
C66    C72     1.386   .     A
C66    C102    1.378   .     A
C67    C189    1.394   .     A
C68    C123    1.343   .     A
C68    C196    1.378   .     A
C69    C95     1.491   .     S
C69    O2      1.271   .     A
C69    O22     1.236   .     A
C70    C113    1.368   1_565 A
C70    C188    1.389   .     A
C71    C78     1.364   .     A
C71    C142    1.394   .     A
C72    C87     1.491   .     S
C72    C88     1.394   .     A
C74    C100    1.389   .     A
C74    C156    1.368   .     A
C75    C112    1.343   .     A
C75    C207    1.378   .     A
C76    C108    1.343   .     A
C77    C142    1.386   .     A
C78    C161    1.426   .     A
C79    O10     1.271   .     A
C79    O36     1.236   .     A
C80    C51     1.368   1_554 A
C80    C134    1.389   .     A
C81    C97     1.521   .     S
C81    C120    1.343   .     A
C81    C190    1.426   .     A
C82    C86     1.343   .     A
C82    C198    1.521   .     S
C83    O46     1.271   .     A
C83    O51     1.236   .     A
C84    O15     1.236   .     A
C84    O39     1.271   .     A
C85    C41     1.389   1_655 A
C85    C171    1.368   .     A
C86    C111    1.378   .     A
C87    O1      1.271   .     A
C87    O37     1.236   .     A
C89    H71     0.950   1_554 S
C89    C160    1.364   .     A
C89    C173    1.426   .     A
C90    C146    1.368   1_556 A
C90    C161    1.521   .     S
C90    C182    1.389   .     A
C91    O30     1.271   .     A
C91    O38     1.236   .     A
C92    C203    1.343   .     A
C93    C99     1.378   .     A
C94    C29     1.389   1_554 A
C94    C134    1.368   1_565 A
C95    C160    1.394   .     A
C97    C216    1.368   1_554 A
C98    C100    1.368   .     A
C98    C122    1.521   .     S
C99    C213    1.386   .     A
C101   C51     1.389   1_565 A
C102   C119    1.343   .     A
C104   C143    1.491   .     S
C104   O55     1.271   .     A
C104   O56     1.236   .     A
C105   O11     1.236   .     A
C105   O58     1.271   .     A
C106   H105    0.950   1_554 S
C106   C108    1.426   .     A
C107   C210    1.386   .     A
C108   C205    1.521   .     S
C109   C112    1.521   .     S
C109   C126    1.368   .     A
C109   C216    1.389   1_655 A
C110   C147    1.364   .     A
C110   C186    1.394   .     A
C112   C204    1.426   .     A
C113   C70     1.368   1_545 A
C113   C52     1.389   1_655 A
C114   C144    1.491   .     S
C114   C145    1.394   .     A
C114   C207    1.386   .     A
C115   C157    1.343   .     A
C116   C213    1.491   .     S
C116   O14     1.236   .     A
C116   O35     1.271   .     A
C117   C154    1.378   .     A
C119   C171    1.521   .     S
C121   C139    1.368   .     A
C121   C146    1.389   1_455 A
C121   C157    1.521   .     S
C122   C155    1.343   .     A
C122   C201    1.426   .     A
C123   C148    1.521   .     S
C123   C153    1.426   .     A
C124   C148    1.368   1_655 A
C124   C171    1.389   1_545 A
C125   C189    1.386   .     A
C126   C205    1.389   1_556 A
C127   C175    1.389   .     A
C128   C209    1.364   .     A
C128   C213    1.394   .     A
C129   C188    1.368   1_455 A
C129   C198    1.389   1_565 A
C130   C210    1.394   .     A
C131   C211    1.491   .     S
C132   C159    1.378   .     A
C133   C166    1.394   .     A
C133   C172    1.364   .     A
C134   C94     1.368   1_545 A
C135   C206    1.491   .     S
C135   O34     1.271   .     A
C135   O52     1.236   .     A
C136   C191    1.343   .     A
C136   C202    1.426   .     A
C137   C141    1.368   .     A
C137   C168    1.389   1_554 A
C137   C173    1.521   .     S
C138   C187    1.378   .     A
C139   C18     1.389   1_554 A
C140   C41     1.368   1_545 A
C140   C148    1.389   .     A
C141   C192    1.389   1_545 A
C142   C163    1.491   .     S
C143   C164    1.386   .     A
C144   O23     1.271   .     A
C144   O25     1.236   .     A
C145   C204    1.364   .     A
C146   C121    1.389   1_655 A
C146   C90     1.368   1_554 A
C148   C124    1.368   1_455 A
C150   C165    1.394   .     A
C151   C210    1.491   .     S
C151   O19     1.271   .     A
C151   O43     1.236   .     A
C152   C212    1.364   .     A
C155   C184    1.378   .     A
C156   C185    1.389   .     A
C157   C181    1.426   .     A
C158   C194    1.364   .     A
C162   C186    1.386   .     A
C163   O17     1.271   .     A
C163   O41     1.236   .     A
C164   C183    1.378   .     A
C165   C197    1.386   .     A
C165   C200    1.491   .     S
C166   C176    1.491   .     S
C166   C187    1.386   .     A
C167   C174    1.364   .     A
C168   C33     1.368   1_545 A
C168   C137    1.389   1_556 A
C171   C124    1.389   1_565 A
C172   H10     0.950   1_556 S
C173   C199    1.343   .     A
C175   C177    1.368   .     A
C176   O44     1.236   .     A
C176   O50     1.271   .     A
C178   C201    1.364   .     A
C179   C190    1.364   .     A
C180   C212    1.394   .     A
C181   H79     0.950   1_455 S
C182   C18     1.368   1_655 A
C188   C129    1.368   1_655 A
C192   C141    1.389   1_565 A
C192   C7      1.368   1_554 A
C195   C202    1.364   .     A
C196   C206    1.386   .     A
C197   C203    1.378   .     A
C198   C129    1.389   1_545 A
C200   O45     1.271   .     A
C200   O60     1.236   .     A
C202   H50     0.950   1_556 S
C204   H3      0.950   1_655 S
C205   C126    1.389   1_554 A
C205   C8      1.368   1_655 A
C209   H75     0.950   1_565 S
C211   O29     1.271   .     A
C211   O54     1.236   .     A
C214   O40     1.271   .     A
C214   O42     1.236   .     A
C215   O16     1.236   .     A
C215   O48     1.271   .     A
C216   C97     1.368   1_556 A
C216   C109    1.389   1_455 A
