data_image0
_cell_length_a       32.7465
_cell_length_b       32.7465
_cell_length_c       32.7465
_cell_angle_alpha    109.471
_cell_angle_beta     109.471
_cell_angle_gamma    109.471

_symmetry_space_group_name_H-M    P 1
_symmetry_int_tables_number       1

loop_
  _symmetry_equiv_pos_as_xyz
  'x, y, z'

loop_
  _atom_site_label
  _atom_site_occupancy
  _atom_site_fract_x
  _atom_site_fract_y
  _atom_site_fract_z
  _atom_site_thermal_displace_type
  _atom_site_B_iso_or_equiv
  _atom_site_type_symbol
  Cd1      1.0000 0.05278  0.14064  0.41337  Biso   1.000  Cd
  Cd2      1.0000 0.22727  0.63941  0.08663  Biso   1.000  Cd
  Cd3      1.0000 0.27273  0.35936  0.41214  Biso   1.000  Cd
  Cd4      1.0000 0.44722  0.86059  0.08786  Biso   1.000  Cd
  Cd5      1.0000 0.91214  0.27273  0.85936  Biso   1.000  Cd
  Cd6      1.0000 0.58786  0.44722  0.36059  Biso   1.000  Cd
  Cd7      1.0000 0.91337  0.05278  0.64064  Biso   1.000  Cd
  Cd8      1.0000 0.58663  0.22727  0.13941  Biso   1.000  Cd
  Cd9      1.0000 0.63941  0.58663  0.72727  Biso   1.000  Cd
  Cd10     1.0000 0.14064  0.91337  0.55278  Biso   1.000  Cd
  Cd11     1.0000 0.86059  0.58786  0.94722  Biso   1.000  Cd
  Cd12     1.0000 0.35936  0.91214  0.77273  Biso   1.000  Cd
  Cd13     1.0000 0.35936  0.44722  0.08663  Biso   1.000  Cd
  Cd14     1.0000 0.86059  0.27273  0.41337  Biso   1.000  Cd
  Cd15     1.0000 0.14064  0.22727  0.08786  Biso   1.000  Cd
  Cd16     1.0000 0.63941  0.05278  0.41214  Biso   1.000  Cd
  Cd17     1.0000 0.22727  0.58786  0.64064  Biso   1.000  Cd
  Cd18     1.0000 0.05278  0.91214  0.13941  Biso   1.000  Cd
  Cd19     1.0000 0.44722  0.58663  0.85936  Biso   1.000  Cd
  Cd20     1.0000 0.27273  0.91337  0.36059  Biso   1.000  Cd
  Cd21     1.0000 0.91337  0.86059  0.77273  Biso   1.000  Cd
  Cd22     1.0000 0.58663  0.35936  0.94722  Biso   1.000  Cd
  Cd23     1.0000 0.91214  0.63941  0.55278  Biso   1.000  Cd
  Cd24     1.0000 0.58786  0.14064  0.72727  Biso   1.000  Cd
  Cd25     1.0000 0.94722  0.85936  0.58663  Biso   1.000  Cd
  Cd26     1.0000 0.77273  0.36059  0.91337  Biso   1.000  Cd
  Cd27     1.0000 0.72727  0.64064  0.58786  Biso   1.000  Cd
  Cd28     1.0000 0.55278  0.13941  0.91214  Biso   1.000  Cd
  Cd29     1.0000 0.08786  0.72727  0.14064  Biso   1.000  Cd
  Cd30     1.0000 0.41214  0.55278  0.63941  Biso   1.000  Cd
  Cd31     1.0000 0.08663  0.94722  0.35936  Biso   1.000  Cd
  Cd32     1.0000 0.41337  0.77273  0.86059  Biso   1.000  Cd
  Cd33     1.0000 0.36059  0.41337  0.27273  Biso   1.000  Cd
  Cd34     1.0000 0.85936  0.08663  0.44722  Biso   1.000  Cd
  Cd35     1.0000 0.13941  0.41214  0.05278  Biso   1.000  Cd
  Cd36     1.0000 0.64064  0.08786  0.22727  Biso   1.000  Cd
  Cd37     1.0000 0.64064  0.55278  0.91337  Biso   1.000  Cd
  Cd38     1.0000 0.13941  0.72727  0.58663  Biso   1.000  Cd
  Cd39     1.0000 0.85936  0.77273  0.91214  Biso   1.000  Cd
  Cd40     1.0000 0.36059  0.94722  0.58786  Biso   1.000  Cd
  Cd41     1.0000 0.77273  0.41214  0.35936  Biso   1.000  Cd
  Cd42     1.0000 0.94722  0.08786  0.86059  Biso   1.000  Cd
  Cd43     1.0000 0.55278  0.41337  0.14064  Biso   1.000  Cd
  Cd44     1.0000 0.72727  0.08663  0.63941  Biso   1.000  Cd
  Cd45     1.0000 0.08663  0.13941  0.22727  Biso   1.000  Cd
  Cd46     1.0000 0.41337  0.64064  0.05278  Biso   1.000  Cd
  Cd47     1.0000 0.08786  0.36059  0.44722  Biso   1.000  Cd
  Cd48     1.0000 0.41214  0.85936  0.27273  Biso   1.000  Cd
  H1       1.0000 0.01730  0.25020  0.37090  Biso   1.000  H
  H2       1.0000 0.01450  0.19830  0.35720  Biso   1.000  H
  H3       1.0000 0.05720  0.24080  0.35960  Biso   1.000  H
  H4       1.0000 0.13460  0.33040  0.53940  Biso   1.000  H
  H5       1.0000 0.14260  0.04930  0.46970  Biso   1.000  H
  H6       1.0000 0.01940  0.03840  0.31860  Biso   1.000  H
  H7       1.0000 0.00190  0.98620  0.31570  Biso   1.000  H
  H8       1.0000 0.04490  0.00730  0.30440  Biso   1.000  H
  H9       1.0000 0.14280  0.27460  0.57040  Biso   1.000  H
  H10      1.0000 0.16300  0.15120  0.52860  Biso   1.000  H
  H11      1.0000 0.37930  0.64640  0.12910  Biso   1.000  H
  H12      1.0000 0.34110  0.65730  0.14280  Biso   1.000  H
  H13      1.0000 0.38120  0.69760  0.14040  Biso   1.000  H
  H14      1.0000 0.29100  0.59520  0.96060  Biso   1.000  H
  H15      1.0000 0.07960  0.67290  0.03030  Biso   1.000  H
  H16      1.0000 0.21980  0.70080  0.18140  Biso   1.000  H
  H17      1.0000 0.17050  0.68620  0.18430  Biso   1.000  H
  H18      1.0000 0.20290  0.74050  0.19560  Biso   1.000  H
  H19      1.0000 0.20420  0.57240  0.92960  Biso   1.000  H
  H20      1.0000 0.12260  0.63440  0.97140  Biso   1.000  H
  H21      1.0000 0.12070  0.24980  0.26710  Biso   1.000  H
  H22      1.0000 0.15890  0.30170  0.31620  Biso   1.000  H
  H23      1.0000 0.11880  0.25920  0.31640  Biso   1.000  H
  H24      1.0000 0.20900  0.16960  0.30420  Biso   1.000  H
  H25      1.0000 0.42040  0.45070  0.59330  Biso   1.000  H
  H26      1.0000 0.28020  0.46160  0.48100  Biso   1.000  H
  H27      1.0000 0.32950  0.51380  0.51570  Biso   1.000  H
  H28      1.0000 0.29710  0.49270  0.53760  Biso   1.000  H
  H29      1.0000 0.29580  0.22540  0.36820  Biso   1.000  H
  H30      1.0000 0.37740  0.34880  0.51180  Biso   1.000  H
  H31      1.0000 0.48270  0.85360  0.23290  Biso   1.000  H
  H32      1.0000 0.48550  0.84270  0.18380  Biso   1.000  H
  H33      1.0000 0.44280  0.80240  0.18360  Biso   1.000  H
  H34      1.0000 0.36540  0.90480  0.19580  Biso   1.000  H
  H35      1.0000 0.35740  0.82710  0.90670  Biso   1.000  H
  H36      1.0000 0.48060  0.79920  0.01900  Biso   1.000  H
  H37      1.0000 0.49810  0.81380  0.98430  Biso   1.000  H
  H38      1.0000 0.45510  0.75950  0.96240  Biso   1.000  H
  H39      1.0000 0.35720  0.92760  0.13180  Biso   1.000  H
  H40      1.0000 0.33700  0.86560  0.98820  Biso   1.000  H
  H41      1.0000 0.76710  0.12070  0.74980  Biso   1.000  H
  H42      1.0000 0.81620  0.15890  0.80170  Biso   1.000  H
  H43      1.0000 0.81640  0.11880  0.75920  Biso   1.000  H
  H44      1.0000 0.80420  0.20900  0.66960  Biso   1.000  H
  H45      1.0000 0.09330  0.42040  0.95070  Biso   1.000  H
  H46      1.0000 0.98100  0.28020  0.96160  Biso   1.000  H
  H47      1.0000 0.01570  0.32950  0.01380  Biso   1.000  H
  H48      1.0000 0.03760  0.29710  0.99270  Biso   1.000  H
  H49      1.0000 0.86820  0.29580  0.72540  Biso   1.000  H
  H50      1.0000 0.01180  0.37740  0.84880  Biso   1.000  H
  H51      1.0000 0.73290  0.48270  0.35360  Biso   1.000  H
  H52      1.0000 0.68380  0.48550  0.34270  Biso   1.000  H
  H53      1.0000 0.68360  0.44280  0.30240  Biso   1.000  H
  H54      1.0000 0.69580  0.36540  0.40480  Biso   1.000  H
  H55      1.0000 0.40670  0.35740  0.32710  Biso   1.000  H
  H56      1.0000 0.51900  0.48060  0.29920  Biso   1.000  H
  H57      1.0000 0.48430  0.49810  0.31380  Biso   1.000  H
  H58      1.0000 0.46240  0.45510  0.25950  Biso   1.000  H
  H59      1.0000 0.63180  0.35720  0.42760  Biso   1.000  H
  H60      1.0000 0.48820  0.33700  0.36560  Biso   1.000  H
  H61      1.0000 0.87090  0.01730  0.75020  Biso   1.000  H
  H62      1.0000 0.85720  0.01450  0.69830  Biso   1.000  H
  H63      1.0000 0.85960  0.05720  0.74080  Biso   1.000  H
  H64      1.0000 0.03940  0.13460  0.83040  Biso   1.000  H
  H65      1.0000 0.96970  0.14260  0.54930  Biso   1.000  H
  H66      1.0000 0.81860  0.01940  0.53840  Biso   1.000  H
  H67      1.0000 0.81570  0.00190  0.48620  Biso   1.000  H
  H68      1.0000 0.80440  0.04490  0.50730  Biso   1.000  H
  H69      1.0000 0.07040  0.14280  0.77460  Biso   1.000  H
  H70      1.0000 0.02860  0.16300  0.65120  Biso   1.000  H
  H71      1.0000 0.62910  0.37930  0.14640  Biso   1.000  H
  H72      1.0000 0.64280  0.34110  0.15730  Biso   1.000  H
  H73      1.0000 0.64040  0.38120  0.19760  Biso   1.000  H
  H74      1.0000 0.46060  0.29100  0.09520  Biso   1.000  H
  H75      1.0000 0.53030  0.07960  0.17290  Biso   1.000  H
  H76      1.0000 0.68140  0.21980  0.20080  Biso   1.000  H
  H77      1.0000 0.68430  0.17050  0.18620  Biso   1.000  H
  H78      1.0000 0.69560  0.20290  0.24050  Biso   1.000  H
  H79      1.0000 0.42960  0.20420  0.07240  Biso   1.000  H
  H80      1.0000 0.47140  0.12260  0.13440  Biso   1.000  H
  H81      1.0000 0.64640  0.62910  0.87930  Biso   1.000  H
  H82      1.0000 0.65730  0.64280  0.84110  Biso   1.000  H
  H83      1.0000 0.69760  0.64040  0.88120  Biso   1.000  H
  H84      1.0000 0.59520  0.46060  0.79100  Biso   1.000  H
  H85      1.0000 0.67290  0.53030  0.57960  Biso   1.000  H
  H86      1.0000 0.70080  0.68140  0.71980  Biso   1.000  H
  H87      1.0000 0.68620  0.68430  0.67050  Biso   1.000  H
  H88      1.0000 0.74050  0.69560  0.70290  Biso   1.000  H
  H89      1.0000 0.57240  0.42960  0.70420  Biso   1.000  H
  H90      1.0000 0.63440  0.47140  0.62260  Biso   1.000  H
  H91      1.0000 0.25020  0.87090  0.51730  Biso   1.000  H
  H92      1.0000 0.19830  0.85720  0.51450  Biso   1.000  H
  H93      1.0000 0.24080  0.85960  0.55720  Biso   1.000  H
  H94      1.0000 0.33040  0.03940  0.63460  Biso   1.000  H
  H95      1.0000 0.04930  0.96970  0.64260  Biso   1.000  H
  H96      1.0000 0.03840  0.81860  0.51940  Biso   1.000  H
  H97      1.0000 0.98620  0.81570  0.50190  Biso   1.000  H
  H98      1.0000 0.00730  0.80440  0.54490  Biso   1.000  H
  H99      1.0000 0.27460  0.07040  0.64280  Biso   1.000  H
  H100     1.0000 0.15120  0.02860  0.66300  Biso   1.000  H
  H101     1.0000 0.85360  0.73290  0.98270  Biso   1.000  H
  H102     1.0000 0.84270  0.68380  0.98550  Biso   1.000  H
  H103     1.0000 0.80240  0.68360  0.94280  Biso   1.000  H
  H104     1.0000 0.90480  0.69580  0.86540  Biso   1.000  H
  H105     1.0000 0.82710  0.40670  0.85740  Biso   1.000  H
  H106     1.0000 0.79920  0.51900  0.98060  Biso   1.000  H
  H107     1.0000 0.81380  0.48430  0.99810  Biso   1.000  H
  H108     1.0000 0.75950  0.46240  0.95510  Biso   1.000  H
  H109     1.0000 0.92760  0.63180  0.85720  Biso   1.000  H
  H110     1.0000 0.86560  0.48820  0.83700  Biso   1.000  H
  H111     1.0000 0.24980  0.76710  0.62070  Biso   1.000  H
  H112     1.0000 0.30170  0.81620  0.65890  Biso   1.000  H
  H113     1.0000 0.25920  0.81640  0.61880  Biso   1.000  H
  H114     1.0000 0.16960  0.80420  0.70900  Biso   1.000  H
  H115     1.0000 0.45070  0.09330  0.92040  Biso   1.000  H
  H116     1.0000 0.46160  0.98100  0.78020  Biso   1.000  H
  H117     1.0000 0.51380  0.01570  0.82950  Biso   1.000  H
  H118     1.0000 0.49270  0.03760  0.79710  Biso   1.000  H
  H119     1.0000 0.22540  0.86820  0.79580  Biso   1.000  H
  H120     1.0000 0.34880  0.01180  0.87740  Biso   1.000  H
  H121     1.0000 0.24980  0.48270  0.12910  Biso   1.000  H
  H122     1.0000 0.30170  0.48550  0.14280  Biso   1.000  H
  H123     1.0000 0.25920  0.44280  0.14040  Biso   1.000  H
  H124     1.0000 0.16960  0.36540  0.96060  Biso   1.000  H
  H125     1.0000 0.45070  0.35740  0.03030  Biso   1.000  H
  H126     1.0000 0.46160  0.48060  0.18140  Biso   1.000  H
  H127     1.0000 0.51380  0.49810  0.18430  Biso   1.000  H
  H128     1.0000 0.49270  0.45510  0.19560  Biso   1.000  H
  H129     1.0000 0.22540  0.35720  0.92960  Biso   1.000  H
  H130     1.0000 0.34880  0.33700  0.97140  Biso   1.000  H
  H131     1.0000 0.85360  0.12070  0.37090  Biso   1.000  H
  H132     1.0000 0.84270  0.15890  0.35720  Biso   1.000  H
  H133     1.0000 0.80240  0.11880  0.35960  Biso   1.000  H
  H134     1.0000 0.90480  0.20900  0.53940  Biso   1.000  H
  H135     1.0000 0.82710  0.42040  0.46970  Biso   1.000  H
  H136     1.0000 0.79920  0.28020  0.31860  Biso   1.000  H
  H137     1.0000 0.81380  0.32950  0.31570  Biso   1.000  H
  H138     1.0000 0.75950  0.29710  0.30440  Biso   1.000  H
  H139     1.0000 0.92760  0.29580  0.57040  Biso   1.000  H
  H140     1.0000 0.86560  0.37740  0.52860  Biso   1.000  H
  H141     1.0000 0.25020  0.37930  0.23290  Biso   1.000  H
  H142     1.0000 0.19830  0.34110  0.18380  Biso   1.000  H
  H143     1.0000 0.24080  0.38120  0.18360  Biso   1.000  H
  H144     1.0000 0.33040  0.29100  0.19580  Biso   1.000  H
  H145     1.0000 0.04930  0.07960  0.90670  Biso   1.000  H
  H146     1.0000 0.03840  0.21980  0.01900  Biso   1.000  H
  H147     1.0000 0.98620  0.17050  0.98430  Biso   1.000  H
  H148     1.0000 0.00730  0.20290  0.96240  Biso   1.000  H
  H149     1.0000 0.27460  0.20420  0.13180  Biso   1.000  H
  H150     1.0000 0.15120  0.12260  0.98820  Biso   1.000  H
  H151     1.0000 0.64640  0.01730  0.26710  Biso   1.000  H
  H152     1.0000 0.65730  0.01450  0.31620  Biso   1.000  H
  H153     1.0000 0.69760  0.05720  0.31640  Biso   1.000  H
  H154     1.0000 0.59520  0.13460  0.30420  Biso   1.000  H
  H155     1.0000 0.67290  0.14260  0.59330  Biso   1.000  H
  H156     1.0000 0.70080  0.01940  0.48100  Biso   1.000  H
  H157     1.0000 0.68620  0.00190  0.51570  Biso   1.000  H
  H158     1.0000 0.74050  0.04490  0.53760  Biso   1.000  H
  H159     1.0000 0.57240  0.14280  0.36820  Biso   1.000  H
  H160     1.0000 0.63440  0.16300  0.51180  Biso   1.000  H
  H161     1.0000 0.37930  0.73290  0.75020  Biso   1.000  H
  H162     1.0000 0.34110  0.68380  0.69830  Biso   1.000  H
  H163     1.0000 0.38120  0.68360  0.74080  Biso   1.000  H
  H164     1.0000 0.29100  0.69580  0.83040  Biso   1.000  H
  H165     1.0000 0.07960  0.40670  0.54930  Biso   1.000  H
  H166     1.0000 0.21980  0.51900  0.53840  Biso   1.000  H
  H167     1.0000 0.17050  0.48430  0.48620  Biso   1.000  H
  H168     1.0000 0.20290  0.46240  0.50730  Biso   1.000  H
  H169     1.0000 0.20420  0.63180  0.77460  Biso   1.000  H
  H170     1.0000 0.12260  0.48820  0.65120  Biso   1.000  H
  H171     1.0000 0.01730  0.76710  0.14640  Biso   1.000  H
  H172     1.0000 0.01450  0.81620  0.15730  Biso   1.000  H
  H173     1.0000 0.05720  0.81640  0.19760  Biso   1.000  H
  H174     1.0000 0.13460  0.80420  0.09520  Biso   1.000  H
  H175     1.0000 0.14260  0.09330  0.17290  Biso   1.000  H
  H176     1.0000 0.01940  0.98100  0.20080  Biso   1.000  H
  H177     1.0000 0.00190  0.01570  0.18620  Biso   1.000  H
  H178     1.0000 0.04490  0.03760  0.24050  Biso   1.000  H
  H179     1.0000 0.14280  0.86820  0.07240  Biso   1.000  H
  H180     1.0000 0.16300  0.01180  0.13440  Biso   1.000  H
  H181     1.0000 0.48270  0.62910  0.74980  Biso   1.000  H
  H182     1.0000 0.48550  0.64280  0.80170  Biso   1.000  H
  H183     1.0000 0.44280  0.64040  0.75920  Biso   1.000  H
  H184     1.0000 0.36540  0.46060  0.66960  Biso   1.000  H
  H185     1.0000 0.35740  0.53030  0.95070  Biso   1.000  H
  H186     1.0000 0.48060  0.68140  0.96160  Biso   1.000  H
  H187     1.0000 0.49810  0.68430  0.01380  Biso   1.000  H
  H188     1.0000 0.45510  0.69560  0.99270  Biso   1.000  H
  H189     1.0000 0.35720  0.42960  0.72540  Biso   1.000  H
  H190     1.0000 0.33700  0.47140  0.84880  Biso   1.000  H
  H191     1.0000 0.12070  0.87090  0.35360  Biso   1.000  H
  H192     1.0000 0.15890  0.85720  0.34270  Biso   1.000  H
  H193     1.0000 0.11880  0.85960  0.30240  Biso   1.000  H
  H194     1.0000 0.20900  0.03940  0.40480  Biso   1.000  H
  H195     1.0000 0.42040  0.96970  0.32710  Biso   1.000  H
  H196     1.0000 0.28020  0.81860  0.29920  Biso   1.000  H
  H197     1.0000 0.32950  0.81570  0.31380  Biso   1.000  H
  H198     1.0000 0.29710  0.80440  0.25950  Biso   1.000  H
  H199     1.0000 0.29580  0.07040  0.42760  Biso   1.000  H
  H200     1.0000 0.37740  0.02860  0.36560  Biso   1.000  H
  H201     1.0000 0.87090  0.85360  0.62070  Biso   1.000  H
  H202     1.0000 0.85720  0.84270  0.65890  Biso   1.000  H
  H203     1.0000 0.85960  0.80240  0.61880  Biso   1.000  H
  H204     1.0000 0.03940  0.90480  0.70900  Biso   1.000  H
  H205     1.0000 0.96970  0.82710  0.92040  Biso   1.000  H
  H206     1.0000 0.81860  0.79920  0.78020  Biso   1.000  H
  H207     1.0000 0.81570  0.81380  0.82950  Biso   1.000  H
  H208     1.0000 0.80440  0.75950  0.79710  Biso   1.000  H
  H209     1.0000 0.07040  0.92760  0.79580  Biso   1.000  H
  H210     1.0000 0.02860  0.86560  0.87740  Biso   1.000  H
  H211     1.0000 0.62910  0.24980  0.98270  Biso   1.000  H
  H212     1.0000 0.64280  0.30170  0.98550  Biso   1.000  H
  H213     1.0000 0.64040  0.25920  0.94280  Biso   1.000  H
  H214     1.0000 0.46060  0.16960  0.86540  Biso   1.000  H
  H215     1.0000 0.53030  0.45070  0.85740  Biso   1.000  H
  H216     1.0000 0.68140  0.46160  0.98060  Biso   1.000  H
  H217     1.0000 0.68430  0.51380  0.99810  Biso   1.000  H
  H218     1.0000 0.69560  0.49270  0.95510  Biso   1.000  H
  H219     1.0000 0.42960  0.22540  0.85720  Biso   1.000  H
  H220     1.0000 0.47140  0.34880  0.83700  Biso   1.000  H
  H221     1.0000 0.76710  0.64640  0.51730  Biso   1.000  H
  H222     1.0000 0.81620  0.65730  0.51450  Biso   1.000  H
  H223     1.0000 0.81640  0.69760  0.55720  Biso   1.000  H
  H224     1.0000 0.80420  0.59520  0.63460  Biso   1.000  H
  H225     1.0000 0.09330  0.67290  0.64260  Biso   1.000  H
  H226     1.0000 0.98100  0.70080  0.51940  Biso   1.000  H
  H227     1.0000 0.01570  0.68620  0.50190  Biso   1.000  H
  H228     1.0000 0.03760  0.74050  0.54490  Biso   1.000  H
  H229     1.0000 0.86820  0.57240  0.64280  Biso   1.000  H
  H230     1.0000 0.01180  0.63440  0.66300  Biso   1.000  H
  H231     1.0000 0.73290  0.25020  0.87930  Biso   1.000  H
  H232     1.0000 0.68380  0.19830  0.84110  Biso   1.000  H
  H233     1.0000 0.68360  0.24080  0.88120  Biso   1.000  H
  H234     1.0000 0.69580  0.33040  0.79100  Biso   1.000  H
  H235     1.0000 0.40670  0.04930  0.57960  Biso   1.000  H
  H236     1.0000 0.51900  0.03840  0.71980  Biso   1.000  H
  H237     1.0000 0.48430  0.98620  0.67050  Biso   1.000  H
  H238     1.0000 0.46240  0.00730  0.70290  Biso   1.000  H
  H239     1.0000 0.63180  0.27460  0.70420  Biso   1.000  H
  H240     1.0000 0.48820  0.15120  0.62260  Biso   1.000  H
  H241     1.0000 0.98270  0.74980  0.62910  Biso   1.000  H
  H242     1.0000 0.98550  0.80170  0.64280  Biso   1.000  H
  H243     1.0000 0.94280  0.75920  0.64040  Biso   1.000  H
  H244     1.0000 0.86540  0.66960  0.46060  Biso   1.000  H
  H245     1.0000 0.85740  0.95070  0.53030  Biso   1.000  H
  H246     1.0000 0.98060  0.96160  0.68140  Biso   1.000  H
  H247     1.0000 0.99810  0.01380  0.68430  Biso   1.000  H
  H248     1.0000 0.95510  0.99270  0.69560  Biso   1.000  H
  H249     1.0000 0.85720  0.72540  0.42960  Biso   1.000  H
  H250     1.0000 0.83700  0.84880  0.47140  Biso   1.000  H
  H251     1.0000 0.62070  0.35360  0.87090  Biso   1.000  H
  H252     1.0000 0.65890  0.34270  0.85720  Biso   1.000  H
  H253     1.0000 0.61880  0.30240  0.85960  Biso   1.000  H
  H254     1.0000 0.70900  0.40480  0.03940  Biso   1.000  H
  H255     1.0000 0.92040  0.32710  0.96970  Biso   1.000  H
  H256     1.0000 0.78020  0.29920  0.81860  Biso   1.000  H
  H257     1.0000 0.82950  0.31380  0.81570  Biso   1.000  H
  H258     1.0000 0.79710  0.25950  0.80440  Biso   1.000  H
  H259     1.0000 0.79580  0.42760  0.07040  Biso   1.000  H
  H260     1.0000 0.87740  0.36560  0.02860  Biso   1.000  H
  H261     1.0000 0.87930  0.75020  0.73290  Biso   1.000  H
  H262     1.0000 0.84110  0.69830  0.68380  Biso   1.000  H
  H263     1.0000 0.88120  0.74080  0.68360  Biso   1.000  H
  H264     1.0000 0.79100  0.83040  0.69580  Biso   1.000  H
  H265     1.0000 0.57960  0.54930  0.40670  Biso   1.000  H
  H266     1.0000 0.71980  0.53840  0.51900  Biso   1.000  H
  H267     1.0000 0.67050  0.48620  0.48430  Biso   1.000  H
  H268     1.0000 0.70290  0.50730  0.46240  Biso   1.000  H
  H269     1.0000 0.70420  0.77460  0.63180  Biso   1.000  H
  H270     1.0000 0.62260  0.65120  0.48820  Biso   1.000  H
  H271     1.0000 0.51730  0.14640  0.76710  Biso   1.000  H
  H272     1.0000 0.51450  0.15730  0.81620  Biso   1.000  H
  H273     1.0000 0.55720  0.19760  0.81640  Biso   1.000  H
  H274     1.0000 0.63460  0.09520  0.80420  Biso   1.000  H
  H275     1.0000 0.64260  0.17290  0.09330  Biso   1.000  H
  H276     1.0000 0.51940  0.20080  0.98100  Biso   1.000  H
  H277     1.0000 0.50190  0.18620  0.01570  Biso   1.000  H
  H278     1.0000 0.54490  0.24050  0.03760  Biso   1.000  H
  H279     1.0000 0.64280  0.07240  0.86820  Biso   1.000  H
  H280     1.0000 0.66300  0.13440  0.01180  Biso   1.000  H
  H281     1.0000 0.23290  0.87930  0.25020  Biso   1.000  H
  H282     1.0000 0.18380  0.84110  0.19830  Biso   1.000  H
  H283     1.0000 0.18360  0.88120  0.24080  Biso   1.000  H
  H284     1.0000 0.19580  0.79100  0.33040  Biso   1.000  H
  H285     1.0000 0.90670  0.57960  0.04930  Biso   1.000  H
  H286     1.0000 0.01900  0.71980  0.03840  Biso   1.000  H
  H287     1.0000 0.98430  0.67050  0.98620  Biso   1.000  H
  H288     1.0000 0.96240  0.70290  0.00730  Biso   1.000  H
  H289     1.0000 0.13180  0.70420  0.27460  Biso   1.000  H
  H290     1.0000 0.98820  0.62260  0.15120  Biso   1.000  H
  H291     1.0000 0.26710  0.51730  0.64640  Biso   1.000  H
  H292     1.0000 0.31620  0.51450  0.65730  Biso   1.000  H
  H293     1.0000 0.31640  0.55720  0.69760  Biso   1.000  H
  H294     1.0000 0.30420  0.63460  0.59520  Biso   1.000  H
  H295     1.0000 0.59330  0.64260  0.67290  Biso   1.000  H
  H296     1.0000 0.48100  0.51940  0.70080  Biso   1.000  H
  H297     1.0000 0.51570  0.50190  0.68620  Biso   1.000  H
  H298     1.0000 0.53760  0.54490  0.74050  Biso   1.000  H
  H299     1.0000 0.36820  0.64280  0.57240  Biso   1.000  H
  H300     1.0000 0.51180  0.66300  0.63440  Biso   1.000  H
  H301     1.0000 0.12910  0.98270  0.24980  Biso   1.000  H
  H302     1.0000 0.14280  0.98550  0.30170  Biso   1.000  H
  H303     1.0000 0.14040  0.94280  0.25920  Biso   1.000  H
  H304     1.0000 0.96060  0.86540  0.16960  Biso   1.000  H
  H305     1.0000 0.03030  0.85740  0.45070  Biso   1.000  H
  H306     1.0000 0.18140  0.98060  0.46160  Biso   1.000  H
  H307     1.0000 0.18430  0.99810  0.51380  Biso   1.000  H
  H308     1.0000 0.19560  0.95510  0.49270  Biso   1.000  H
  H309     1.0000 0.92960  0.85720  0.22540  Biso   1.000  H
  H310     1.0000 0.97140  0.83700  0.34880  Biso   1.000  H
  H311     1.0000 0.37090  0.62070  0.85360  Biso   1.000  H
  H312     1.0000 0.35720  0.65890  0.84270  Biso   1.000  H
  H313     1.0000 0.35960  0.61880  0.80240  Biso   1.000  H
  H314     1.0000 0.53940  0.70900  0.90480  Biso   1.000  H
  H315     1.0000 0.46970  0.92040  0.82710  Biso   1.000  H
  H316     1.0000 0.31860  0.78020  0.79920  Biso   1.000  H
  H317     1.0000 0.31570  0.82950  0.81380  Biso   1.000  H
  H318     1.0000 0.30440  0.79710  0.75950  Biso   1.000  H
  H319     1.0000 0.57040  0.79580  0.92760  Biso   1.000  H
  H320     1.0000 0.52860  0.87740  0.86560  Biso   1.000  H
  H321     1.0000 0.35360  0.37090  0.12070  Biso   1.000  H
  H322     1.0000 0.34270  0.35720  0.15890  Biso   1.000  H
  H323     1.0000 0.30240  0.35960  0.11880  Biso   1.000  H
  H324     1.0000 0.40480  0.53940  0.20900  Biso   1.000  H
  H325     1.0000 0.32710  0.46970  0.42040  Biso   1.000  H
  H326     1.0000 0.29920  0.31860  0.28020  Biso   1.000  H
  H327     1.0000 0.31380  0.31570  0.32950  Biso   1.000  H
  H328     1.0000 0.25950  0.30440  0.29710  Biso   1.000  H
  H329     1.0000 0.42760  0.57040  0.29580  Biso   1.000  H
  H330     1.0000 0.36560  0.52860  0.37740  Biso   1.000  H
  H331     1.0000 0.74980  0.12910  0.48270  Biso   1.000  H
  H332     1.0000 0.80170  0.14280  0.48550  Biso   1.000  H
  H333     1.0000 0.75920  0.14040  0.44280  Biso   1.000  H
  H334     1.0000 0.66960  0.96060  0.36540  Biso   1.000  H
  H335     1.0000 0.95070  0.03030  0.35740  Biso   1.000  H
  H336     1.0000 0.96160  0.18140  0.48060  Biso   1.000  H
  H337     1.0000 0.01380  0.18430  0.49810  Biso   1.000  H
  H338     1.0000 0.99270  0.19560  0.45510  Biso   1.000  H
  H339     1.0000 0.72540  0.92960  0.35720  Biso   1.000  H
  H340     1.0000 0.84880  0.97140  0.33700  Biso   1.000  H
  H341     1.0000 0.14640  0.26710  0.01730  Biso   1.000  H
  H342     1.0000 0.15730  0.31620  0.01450  Biso   1.000  H
  H343     1.0000 0.19760  0.31640  0.05720  Biso   1.000  H
  H344     1.0000 0.09520  0.30420  0.13460  Biso   1.000  H
  H345     1.0000 0.17290  0.59330  0.14260  Biso   1.000  H
  H346     1.0000 0.20080  0.48100  0.01940  Biso   1.000  H
  H347     1.0000 0.18620  0.51570  0.00190  Biso   1.000  H
  H348     1.0000 0.24050  0.53760  0.04490  Biso   1.000  H
  H349     1.0000 0.07240  0.36820  0.14280  Biso   1.000  H
  H350     1.0000 0.13440  0.51180  0.16300  Biso   1.000  H
  H351     1.0000 0.75020  0.23290  0.37930  Biso   1.000  H
  H352     1.0000 0.69830  0.18380  0.34110  Biso   1.000  H
  H353     1.0000 0.74080  0.18360  0.38120  Biso   1.000  H
  H354     1.0000 0.83040  0.19580  0.29100  Biso   1.000  H
  H355     1.0000 0.54930  0.90670  0.07960  Biso   1.000  H
  H356     1.0000 0.53840  0.01900  0.21980  Biso   1.000  H
  H357     1.0000 0.48620  0.98430  0.17050  Biso   1.000  H
  H358     1.0000 0.50730  0.96240  0.20290  Biso   1.000  H
  H359     1.0000 0.77460  0.13180  0.20420  Biso   1.000  H
  H360     1.0000 0.65120  0.98820  0.12260  Biso   1.000  H
  H361     1.0000 0.75020  0.51730  0.87090  Biso   1.000  H
  H362     1.0000 0.69830  0.51450  0.85720  Biso   1.000  H
  H363     1.0000 0.74080  0.55720  0.85960  Biso   1.000  H
  H364     1.0000 0.83040  0.63460  0.03940  Biso   1.000  H
  H365     1.0000 0.54930  0.64260  0.96970  Biso   1.000  H
  H366     1.0000 0.53840  0.51940  0.81860  Biso   1.000  H
  H367     1.0000 0.48620  0.50190  0.81570  Biso   1.000  H
  H368     1.0000 0.50730  0.54490  0.80440  Biso   1.000  H
  H369     1.0000 0.77460  0.64280  0.07040  Biso   1.000  H
  H370     1.0000 0.65120  0.66300  0.02860  Biso   1.000  H
  H371     1.0000 0.14640  0.87930  0.62910  Biso   1.000  H
  H372     1.0000 0.15730  0.84110  0.64280  Biso   1.000  H
  H373     1.0000 0.19760  0.88120  0.64040  Biso   1.000  H
  H374     1.0000 0.09520  0.79100  0.46060  Biso   1.000  H
  H375     1.0000 0.17290  0.57960  0.53030  Biso   1.000  H
  H376     1.0000 0.20080  0.71980  0.68140  Biso   1.000  H
  H377     1.0000 0.18620  0.67050  0.68430  Biso   1.000  H
  H378     1.0000 0.24050  0.70290  0.69560  Biso   1.000  H
  H379     1.0000 0.07240  0.70420  0.42960  Biso   1.000  H
  H380     1.0000 0.13440  0.62260  0.47140  Biso   1.000  H
  H381     1.0000 0.74980  0.62070  0.76710  Biso   1.000  H
  H382     1.0000 0.80170  0.65890  0.81620  Biso   1.000  H
  H383     1.0000 0.75920  0.61880  0.81640  Biso   1.000  H
  H384     1.0000 0.66960  0.70900  0.80420  Biso   1.000  H
  H385     1.0000 0.95070  0.92040  0.09330  Biso   1.000  H
  H386     1.0000 0.96160  0.78020  0.98100  Biso   1.000  H
  H387     1.0000 0.01380  0.82950  0.01570  Biso   1.000  H
  H388     1.0000 0.99270  0.79710  0.03760  Biso   1.000  H
  H389     1.0000 0.72540  0.79580  0.86820  Biso   1.000  H
  H390     1.0000 0.84880  0.87740  0.01180  Biso   1.000  H
  H391     1.0000 0.35360  0.98270  0.73290  Biso   1.000  H
  H392     1.0000 0.34270  0.98550  0.68380  Biso   1.000  H
  H393     1.0000 0.30240  0.94280  0.68360  Biso   1.000  H
  H394     1.0000 0.40480  0.86540  0.69580  Biso   1.000  H
  H395     1.0000 0.32710  0.85740  0.40670  Biso   1.000  H
  H396     1.0000 0.29920  0.98060  0.51900  Biso   1.000  H
  H397     1.0000 0.31380  0.99810  0.48430  Biso   1.000  H
  H398     1.0000 0.25950  0.95510  0.46240  Biso   1.000  H
  H399     1.0000 0.42760  0.85720  0.63180  Biso   1.000  H
  H400     1.0000 0.36560  0.83700  0.48820  Biso   1.000  H
  H401     1.0000 0.62070  0.26710  0.24980  Biso   1.000  H
  H402     1.0000 0.65890  0.31620  0.30170  Biso   1.000  H
  H403     1.0000 0.61880  0.31640  0.25920  Biso   1.000  H
  H404     1.0000 0.70900  0.30420  0.16960  Biso   1.000  H
  H405     1.0000 0.92040  0.59330  0.45070  Biso   1.000  H
  H406     1.0000 0.78020  0.48100  0.46160  Biso   1.000  H
  H407     1.0000 0.82950  0.51570  0.51380  Biso   1.000  H
  H408     1.0000 0.79710  0.53760  0.49270  Biso   1.000  H
  H409     1.0000 0.79580  0.36820  0.22540  Biso   1.000  H
  H410     1.0000 0.87740  0.51180  0.34880  Biso   1.000  H
  H411     1.0000 0.98270  0.23290  0.85360  Biso   1.000  H
  H412     1.0000 0.98550  0.18380  0.84270  Biso   1.000  H
  H413     1.0000 0.94280  0.18360  0.80240  Biso   1.000  H
  H414     1.0000 0.86540  0.19580  0.90480  Biso   1.000  H
  H415     1.0000 0.85740  0.90670  0.82710  Biso   1.000  H
  H416     1.0000 0.98060  0.01900  0.79920  Biso   1.000  H
  H417     1.0000 0.99810  0.98430  0.81380  Biso   1.000  H
  H418     1.0000 0.95510  0.96240  0.75950  Biso   1.000  H
  H419     1.0000 0.85720  0.13180  0.92760  Biso   1.000  H
  H420     1.0000 0.83700  0.98820  0.86560  Biso   1.000  H
  H421     1.0000 0.51730  0.37090  0.25020  Biso   1.000  H
  H422     1.0000 0.51450  0.35720  0.19830  Biso   1.000  H
  H423     1.0000 0.55720  0.35960  0.24080  Biso   1.000  H
  H424     1.0000 0.63460  0.53940  0.33040  Biso   1.000  H
  H425     1.0000 0.64260  0.46970  0.04930  Biso   1.000  H
  H426     1.0000 0.51940  0.31860  0.03840  Biso   1.000  H
  H427     1.0000 0.50190  0.31570  0.98620  Biso   1.000  H
  H428     1.0000 0.54490  0.30440  0.00730  Biso   1.000  H
  H429     1.0000 0.64280  0.57040  0.27460  Biso   1.000  H
  H430     1.0000 0.66300  0.52860  0.15120  Biso   1.000  H
  H431     1.0000 0.87930  0.12910  0.64640  Biso   1.000  H
  H432     1.0000 0.84110  0.14280  0.65730  Biso   1.000  H
  H433     1.0000 0.88120  0.14040  0.69760  Biso   1.000  H
  H434     1.0000 0.79100  0.96060  0.59520  Biso   1.000  H
  H435     1.0000 0.57960  0.03030  0.67290  Biso   1.000  H
  H436     1.0000 0.71980  0.18140  0.70080  Biso   1.000  H
  H437     1.0000 0.67050  0.18430  0.68620  Biso   1.000  H
  H438     1.0000 0.70290  0.19560  0.74050  Biso   1.000  H
  H439     1.0000 0.70420  0.92960  0.57240  Biso   1.000  H
  H440     1.0000 0.62260  0.97140  0.63440  Biso   1.000  H
  H441     1.0000 0.12910  0.14640  0.37930  Biso   1.000  H
  H442     1.0000 0.14280  0.15730  0.34110  Biso   1.000  H
  H443     1.0000 0.14040  0.19760  0.38120  Biso   1.000  H
  H444     1.0000 0.96060  0.09520  0.29100  Biso   1.000  H
  H445     1.0000 0.03030  0.17290  0.07960  Biso   1.000  H
  H446     1.0000 0.18140  0.20080  0.21980  Biso   1.000  H
  H447     1.0000 0.18430  0.18620  0.17050  Biso   1.000  H
  H448     1.0000 0.19560  0.24050  0.20290  Biso   1.000  H
  H449     1.0000 0.92960  0.07240  0.20420  Biso   1.000  H
  H450     1.0000 0.97140  0.13440  0.12260  Biso   1.000  H
  H451     1.0000 0.37090  0.75020  0.01730  Biso   1.000  H
  H452     1.0000 0.35720  0.69830  0.01450  Biso   1.000  H
  H453     1.0000 0.35960  0.74080  0.05720  Biso   1.000  H
  H454     1.0000 0.53940  0.83040  0.13460  Biso   1.000  H
  H455     1.0000 0.46970  0.54930  0.14260  Biso   1.000  H
  H456     1.0000 0.31860  0.53840  0.01940  Biso   1.000  H
  H457     1.0000 0.31570  0.48620  0.00190  Biso   1.000  H
  H458     1.0000 0.30440  0.50730  0.04490  Biso   1.000  H
  H459     1.0000 0.57040  0.77460  0.14280  Biso   1.000  H
  H460     1.0000 0.52860  0.65120  0.16300  Biso   1.000  H
  H461     1.0000 0.23290  0.35360  0.48270  Biso   1.000  H
  H462     1.0000 0.18380  0.34270  0.48550  Biso   1.000  H
  H463     1.0000 0.18360  0.30240  0.44280  Biso   1.000  H
  H464     1.0000 0.19580  0.40480  0.36540  Biso   1.000  H
  H465     1.0000 0.90670  0.32710  0.35740  Biso   1.000  H
  H466     1.0000 0.01900  0.29920  0.48060  Biso   1.000  H
  H467     1.0000 0.98430  0.31380  0.49810  Biso   1.000  H
  H468     1.0000 0.96240  0.25950  0.45510  Biso   1.000  H
  H469     1.0000 0.13180  0.42760  0.35720  Biso   1.000  H
  H470     1.0000 0.98820  0.36560  0.33700  Biso   1.000  H
  H471     1.0000 0.26710  0.74980  0.12070  Biso   1.000  H
  H472     1.0000 0.31620  0.80170  0.15890  Biso   1.000  H
  H473     1.0000 0.31640  0.75920  0.11880  Biso   1.000  H
  H474     1.0000 0.30420  0.66960  0.20900  Biso   1.000  H
  H475     1.0000 0.59330  0.95070  0.42040  Biso   1.000  H
  H476     1.0000 0.48100  0.96160  0.28020  Biso   1.000  H
  H477     1.0000 0.51570  0.01380  0.32950  Biso   1.000  H
  H478     1.0000 0.53760  0.99270  0.29710  Biso   1.000  H
  H479     1.0000 0.36820  0.72540  0.29580  Biso   1.000  H
  H480     1.0000 0.51180  0.84880  0.37740  Biso   1.000  H
  C1       1.0000 0.06907  0.25235  0.42830  Biso   1.000  C
  C2       1.0000 0.03662  0.23373  0.37415  Biso   1.000  C
  C3       1.0000 0.11579  0.30203  0.50786  Biso   1.000  C
  C4       1.0000 0.11023  0.25605  0.49740  Biso   1.000  C
  C5       1.0000 0.11234  0.09276  0.45690  Biso   1.000  C
  C6       1.0000 0.12069  0.05284  0.44633  Biso   1.000  C
  C7       1.0000 0.06795  0.04090  0.37847  Biso   1.000  C
  C8       1.0000 0.03015  0.01593  0.32448  Biso   1.000  C
  C9       1.0000 0.13400  0.24950  0.53970  Biso   1.000  C
  C10      1.0000 0.13610  0.14150  0.49880  Biso   1.000  C
  C11      1.0000 0.32405  0.64077  0.07170  Biso   1.000  C
  C12      1.0000 0.35958  0.66247  0.12585  Biso   1.000  C
  C13      1.0000 0.29417  0.60793  0.99214  Biso   1.000  C
  C14      1.0000 0.25865  0.61283  0.00260  Biso   1.000  C
  C15      1.0000 0.13586  0.65544  0.04310  Biso   1.000  C
  C16      1.0000 0.10651  0.67436  0.05367  Biso   1.000  C
  C17      1.0000 0.16243  0.68948  0.12153  Biso   1.000  C
  C18      1.0000 0.19145  0.70567  0.17552  Biso   1.000  C
  C19      1.0000 0.20980  0.59430  0.96030  Biso   1.000  C
  C20      1.0000 0.14270  0.63730  0.00120  Biso   1.000  C
  C21      1.0000 0.17595  0.24765  0.31672  Biso   1.000  C
  C22      1.0000 0.14042  0.26627  0.30289  Biso   1.000  C
  C23      1.0000 0.20583  0.19797  0.31376  Biso   1.000  C
  C24      1.0000 0.24135  0.24395  0.35418  Biso   1.000  C
  C25      1.0000 0.36414  0.40724  0.51958  Biso   1.000  C
  C26      1.0000 0.39349  0.44716  0.56785  Biso   1.000  C
  C27      1.0000 0.33757  0.45910  0.52705  Biso   1.000  C
  C28      1.0000 0.30855  0.48407  0.51422  Biso   1.000  C
  C29      1.0000 0.29020  0.25050  0.38450  Biso   1.000  C
  C30      1.0000 0.35730  0.35850  0.49460  Biso   1.000  C
  C31      1.0000 0.43093  0.85923  0.18328  Biso   1.000  C
  C32      1.0000 0.46338  0.83753  0.19711  Biso   1.000  C
  C33      1.0000 0.38421  0.89207  0.18624  Biso   1.000  C
  C34      1.0000 0.38977  0.88717  0.14582  Biso   1.000  C
  C35      1.0000 0.38766  0.84456  0.98042  Biso   1.000  C
  C36      1.0000 0.37931  0.82564  0.93215  Biso   1.000  C
  C37      1.0000 0.43205  0.81052  0.97295  Biso   1.000  C
  C38      1.0000 0.46985  0.79433  0.98578  Biso   1.000  C
  C39      1.0000 0.36600  0.90570  0.11550  Biso   1.000  C
  C40      1.0000 0.36390  0.86270  0.00540  Biso   1.000  C
  C41      1.0000 0.81672  0.17595  0.74765  Biso   1.000  C
  C42      1.0000 0.80289  0.14042  0.76627  Biso   1.000  C
  C43      1.0000 0.81376  0.20583  0.69797  Biso   1.000  C
  C44      1.0000 0.85418  0.24135  0.74395  Biso   1.000  C
  C45      1.0000 0.01958  0.36414  0.90724  Biso   1.000  C
  C46      1.0000 0.06785  0.39349  0.94716  Biso   1.000  C
  C47      1.0000 0.02705  0.33757  0.95910  Biso   1.000  C
  C48      1.0000 0.01422  0.30855  0.98407  Biso   1.000  C
  C49      1.0000 0.88450  0.29020  0.75050  Biso   1.000  C
  C50      1.0000 0.99460  0.35730  0.85850  Biso   1.000  C
  C51      1.0000 0.68328  0.43093  0.35923  Biso   1.000  C
  C52      1.0000 0.69711  0.46338  0.33753  Biso   1.000  C
  C53      1.0000 0.68624  0.38421  0.39207  Biso   1.000  C
  C54      1.0000 0.64582  0.38977  0.38717  Biso   1.000  C
  C55      1.0000 0.48042  0.38766  0.34456  Biso   1.000  C
  C56      1.0000 0.43215  0.37931  0.32564  Biso   1.000  C
  C57      1.0000 0.47295  0.43205  0.31052  Biso   1.000  C
  C58      1.0000 0.48578  0.46985  0.29433  Biso   1.000  C
  C59      1.0000 0.61550  0.36600  0.40570  Biso   1.000  C
  C60      1.0000 0.50540  0.36390  0.36270  Biso   1.000  C
  C61      1.0000 0.92830  0.06907  0.75235  Biso   1.000  C
  C62      1.0000 0.87415  0.03662  0.73373  Biso   1.000  C
  C63      1.0000 0.00786  0.11579  0.80203  Biso   1.000  C
  C64      1.0000 0.99740  0.11023  0.75605  Biso   1.000  C
  C65      1.0000 0.95690  0.11234  0.59276  Biso   1.000  C
  C66      1.0000 0.94633  0.12069  0.55284  Biso   1.000  C
  C67      1.0000 0.87847  0.06795  0.54090  Biso   1.000  C
  C68      1.0000 0.82448  0.03015  0.51593  Biso   1.000  C
  C69      1.0000 0.03970  0.13400  0.74950  Biso   1.000  C
  C70      1.0000 0.99880  0.13610  0.64150  Biso   1.000  C
  C71      1.0000 0.57170  0.32405  0.14077  Biso   1.000  C
  C72      1.0000 0.62585  0.35958  0.16247  Biso   1.000  C
  C73      1.0000 0.49214  0.29417  0.10793  Biso   1.000  C
  C74      1.0000 0.50260  0.25865  0.11283  Biso   1.000  C
  C75      1.0000 0.54310  0.13586  0.15544  Biso   1.000  C
  C76      1.0000 0.55367  0.10651  0.17436  Biso   1.000  C
  C77      1.0000 0.62153  0.16243  0.18948  Biso   1.000  C
  C78      1.0000 0.67552  0.19145  0.20567  Biso   1.000  C
  C79      1.0000 0.46030  0.20980  0.09430  Biso   1.000  C
  C80      1.0000 0.50120  0.14270  0.13730  Biso   1.000  C
  C81      1.0000 0.64077  0.57170  0.82405  Biso   1.000  C
  C82      1.0000 0.66247  0.62585  0.85958  Biso   1.000  C
  C83      1.0000 0.60793  0.49214  0.79417  Biso   1.000  C
  C84      1.0000 0.61283  0.50260  0.75865  Biso   1.000  C
  C85      1.0000 0.65544  0.54310  0.63586  Biso   1.000  C
  C86      1.0000 0.67436  0.55367  0.60651  Biso   1.000  C
  C87      1.0000 0.68948  0.62153  0.66243  Biso   1.000  C
  C88      1.0000 0.70567  0.67552  0.69145  Biso   1.000  C
  C89      1.0000 0.59430  0.46030  0.70980  Biso   1.000  C
  C90      1.0000 0.63730  0.50120  0.64270  Biso   1.000  C
  C91      1.0000 0.25235  0.92830  0.56907  Biso   1.000  C
  C92      1.0000 0.23373  0.87415  0.53662  Biso   1.000  C
  C93      1.0000 0.30203  0.00786  0.61579  Biso   1.000  C
  C94      1.0000 0.25605  0.99740  0.61023  Biso   1.000  C
  C95      1.0000 0.09276  0.95690  0.61234  Biso   1.000  C
  C96      1.0000 0.05284  0.94633  0.62069  Biso   1.000  C
  C97      1.0000 0.04090  0.87847  0.56795  Biso   1.000  C
  C98      1.0000 0.01593  0.82448  0.53015  Biso   1.000  C
  C99      1.0000 0.24950  0.03970  0.63400  Biso   1.000  C
  C100     1.0000 0.14150  0.99880  0.63610  Biso   1.000  C
  C101     1.0000 0.85923  0.68328  0.93093  Biso   1.000  C
  C102     1.0000 0.83753  0.69711  0.96338  Biso   1.000  C
  C103     1.0000 0.89207  0.68624  0.88421  Biso   1.000  C
  C104     1.0000 0.88717  0.64582  0.88977  Biso   1.000  C
  C105     1.0000 0.84456  0.48042  0.88766  Biso   1.000  C
  C106     1.0000 0.82564  0.43215  0.87931  Biso   1.000  C
  C107     1.0000 0.81052  0.47295  0.93205  Biso   1.000  C
  C108     1.0000 0.79433  0.48578  0.96985  Biso   1.000  C
  C109     1.0000 0.90570  0.61550  0.86600  Biso   1.000  C
  C110     1.0000 0.86270  0.50540  0.86390  Biso   1.000  C
  C111     1.0000 0.24765  0.81672  0.67595  Biso   1.000  C
  C112     1.0000 0.26627  0.80289  0.64042  Biso   1.000  C
  C113     1.0000 0.19797  0.81376  0.70583  Biso   1.000  C
  C114     1.0000 0.24395  0.85418  0.74135  Biso   1.000  C
  C115     1.0000 0.40724  0.01958  0.86414  Biso   1.000  C
  C116     1.0000 0.44716  0.06785  0.89349  Biso   1.000  C
  C117     1.0000 0.45910  0.02705  0.83757  Biso   1.000  C
  C118     1.0000 0.48407  0.01422  0.80855  Biso   1.000  C
  C119     1.0000 0.25050  0.88450  0.79020  Biso   1.000  C
  C120     1.0000 0.35850  0.99460  0.85730  Biso   1.000  C
  C121     1.0000 0.24765  0.43093  0.07170  Biso   1.000  C
  C122     1.0000 0.26627  0.46338  0.12585  Biso   1.000  C
  C123     1.0000 0.19797  0.38421  0.99214  Biso   1.000  C
  C124     1.0000 0.24395  0.38977  0.00260  Biso   1.000  C
  C125     1.0000 0.40724  0.38766  0.04310  Biso   1.000  C
  C126     1.0000 0.44716  0.37931  0.05367  Biso   1.000  C
  C127     1.0000 0.45910  0.43205  0.12153  Biso   1.000  C
  C128     1.0000 0.48407  0.46985  0.17552  Biso   1.000  C
  C129     1.0000 0.25050  0.36600  0.96030  Biso   1.000  C
  C130     1.0000 0.35850  0.36390  0.00120  Biso   1.000  C
  C131     1.0000 0.85923  0.17595  0.42830  Biso   1.000  C
  C132     1.0000 0.83753  0.14042  0.37415  Biso   1.000  C
  C133     1.0000 0.89207  0.20583  0.50786  Biso   1.000  C
  C134     1.0000 0.88717  0.24135  0.49740  Biso   1.000  C
  C135     1.0000 0.84456  0.36414  0.45690  Biso   1.000  C
  C136     1.0000 0.82564  0.39349  0.44633  Biso   1.000  C
  C137     1.0000 0.81052  0.33757  0.37847  Biso   1.000  C
  C138     1.0000 0.79433  0.30855  0.32448  Biso   1.000  C
  C139     1.0000 0.90570  0.29020  0.53970  Biso   1.000  C
  C140     1.0000 0.86270  0.35730  0.49880  Biso   1.000  C
  C141     1.0000 0.25235  0.32405  0.18328  Biso   1.000  C
  C142     1.0000 0.23373  0.35958  0.19711  Biso   1.000  C
  C143     1.0000 0.30203  0.29417  0.18624  Biso   1.000  C
  C144     1.0000 0.25605  0.25865  0.14582  Biso   1.000  C
  C145     1.0000 0.09276  0.13586  0.98042  Biso   1.000  C
  C146     1.0000 0.05284  0.10651  0.93215  Biso   1.000  C
  C147     1.0000 0.04090  0.16243  0.97295  Biso   1.000  C
  C148     1.0000 0.01593  0.19145  0.98578  Biso   1.000  C
  C149     1.0000 0.24950  0.20980  0.11550  Biso   1.000  C
  C150     1.0000 0.14150  0.14270  0.00540  Biso   1.000  C
  C151     1.0000 0.64077  0.06907  0.31672  Biso   1.000  C
  C152     1.0000 0.66247  0.03662  0.30289  Biso   1.000  C
  C153     1.0000 0.60793  0.11579  0.31376  Biso   1.000  C
  C154     1.0000 0.61283  0.11023  0.35418  Biso   1.000  C
  C155     1.0000 0.65544  0.11234  0.51958  Biso   1.000  C
  C156     1.0000 0.67436  0.12069  0.56785  Biso   1.000  C
  C157     1.0000 0.68948  0.06795  0.52705  Biso   1.000  C
  C158     1.0000 0.70567  0.03015  0.51422  Biso   1.000  C
  C159     1.0000 0.59430  0.13400  0.38450  Biso   1.000  C
  C160     1.0000 0.63730  0.13610  0.49460  Biso   1.000  C
  C161     1.0000 0.32405  0.68328  0.75235  Biso   1.000  C
  C162     1.0000 0.35958  0.69711  0.73373  Biso   1.000  C
  C163     1.0000 0.29417  0.68624  0.80203  Biso   1.000  C
  C164     1.0000 0.25865  0.64582  0.75605  Biso   1.000  C
  C165     1.0000 0.13586  0.48042  0.59276  Biso   1.000  C
  C166     1.0000 0.10651  0.43215  0.55284  Biso   1.000  C
  C167     1.0000 0.16243  0.47295  0.54090  Biso   1.000  C
  C168     1.0000 0.19145  0.48578  0.51593  Biso   1.000  C
  C169     1.0000 0.20980  0.61550  0.74950  Biso   1.000  C
  C170     1.0000 0.14270  0.50540  0.64150  Biso   1.000  C
  C171     1.0000 0.06907  0.81672  0.14077  Biso   1.000  C
  C172     1.0000 0.03662  0.80289  0.16247  Biso   1.000  C
  C173     1.0000 0.11579  0.81376  0.10793  Biso   1.000  C
  C174     1.0000 0.11023  0.85418  0.11283  Biso   1.000  C
  C175     1.0000 0.11234  0.01958  0.15544  Biso   1.000  C
  C176     1.0000 0.12069  0.06785  0.17436  Biso   1.000  C
  C177     1.0000 0.06795  0.02705  0.18948  Biso   1.000  C
  C178     1.0000 0.03015  0.01422  0.20567  Biso   1.000  C
  C179     1.0000 0.13400  0.88450  0.09430  Biso   1.000  C
  C180     1.0000 0.13610  0.99460  0.13730  Biso   1.000  C
  C181     1.0000 0.43093  0.57170  0.74765  Biso   1.000  C
  C182     1.0000 0.46338  0.62585  0.76627  Biso   1.000  C
  C183     1.0000 0.38421  0.49214  0.69797  Biso   1.000  C
  C184     1.0000 0.38977  0.50260  0.74395  Biso   1.000  C
  C185     1.0000 0.38766  0.54310  0.90724  Biso   1.000  C
  C186     1.0000 0.37931  0.55367  0.94716  Biso   1.000  C
  C187     1.0000 0.43205  0.62153  0.95910  Biso   1.000  C
  C188     1.0000 0.46985  0.67552  0.98407  Biso   1.000  C
  C189     1.0000 0.36600  0.46030  0.75050  Biso   1.000  C
  C190     1.0000 0.36390  0.50120  0.85850  Biso   1.000  C
  C191     1.0000 0.17595  0.92830  0.35923  Biso   1.000  C
  C192     1.0000 0.14042  0.87415  0.33753  Biso   1.000  C
  C193     1.0000 0.20583  0.00786  0.39207  Biso   1.000  C
  C194     1.0000 0.24135  0.99740  0.38717  Biso   1.000  C
  C195     1.0000 0.36414  0.95690  0.34456  Biso   1.000  C
  C196     1.0000 0.39349  0.94633  0.32564  Biso   1.000  C
  C197     1.0000 0.33757  0.87847  0.31052  Biso   1.000  C
  C198     1.0000 0.30855  0.82448  0.29433  Biso   1.000  C
  C199     1.0000 0.29020  0.03970  0.40570  Biso   1.000  C
  C200     1.0000 0.35730  0.99880  0.36270  Biso   1.000  C
  C201     1.0000 0.92830  0.85923  0.67595  Biso   1.000  C
  C202     1.0000 0.87415  0.83753  0.64042  Biso   1.000  C
  C203     1.0000 0.00786  0.89207  0.70583  Biso   1.000  C
  C204     1.0000 0.99740  0.88717  0.74135  Biso   1.000  C
  C205     1.0000 0.95690  0.84456  0.86414  Biso   1.000  C
  C206     1.0000 0.94633  0.82564  0.89349  Biso   1.000  C
  C207     1.0000 0.87847  0.81052  0.83757  Biso   1.000  C
  C208     1.0000 0.82448  0.79433  0.80855  Biso   1.000  C
  C209     1.0000 0.03970  0.90570  0.79020  Biso   1.000  C
  C210     1.0000 0.99880  0.86270  0.85730  Biso   1.000  C
  C211     1.0000 0.57170  0.24765  0.93093  Biso   1.000  C
  C212     1.0000 0.62585  0.26627  0.96338  Biso   1.000  C
  C213     1.0000 0.49214  0.19797  0.88421  Biso   1.000  C
  C214     1.0000 0.50260  0.24395  0.88977  Biso   1.000  C
  C215     1.0000 0.54310  0.40724  0.88766  Biso   1.000  C
  C216     1.0000 0.55367  0.44716  0.87931  Biso   1.000  C
  C217     1.0000 0.62153  0.45910  0.93205  Biso   1.000  C
  C218     1.0000 0.67552  0.48407  0.96985  Biso   1.000  C
  C219     1.0000 0.46030  0.25050  0.86600  Biso   1.000  C
  C220     1.0000 0.50120  0.35850  0.86390  Biso   1.000  C
  C221     1.0000 0.81672  0.64077  0.56907  Biso   1.000  C
  C222     1.0000 0.80289  0.66247  0.53662  Biso   1.000  C
  C223     1.0000 0.81376  0.60793  0.61579  Biso   1.000  C
  C224     1.0000 0.85418  0.61283  0.61023  Biso   1.000  C
  C225     1.0000 0.01958  0.65544  0.61234  Biso   1.000  C
  C226     1.0000 0.06785  0.67436  0.62069  Biso   1.000  C
  C227     1.0000 0.02705  0.68948  0.56795  Biso   1.000  C
  C228     1.0000 0.01422  0.70567  0.53015  Biso   1.000  C
  C229     1.0000 0.88450  0.59430  0.63400  Biso   1.000  C
  C230     1.0000 0.99460  0.63730  0.63610  Biso   1.000  C
  C231     1.0000 0.68328  0.25235  0.82405  Biso   1.000  C
  C232     1.0000 0.69711  0.23373  0.85958  Biso   1.000  C
  C233     1.0000 0.68624  0.30203  0.79417  Biso   1.000  C
  C234     1.0000 0.64582  0.25605  0.75865  Biso   1.000  C
  C235     1.0000 0.48042  0.09276  0.63586  Biso   1.000  C
  C236     1.0000 0.43215  0.05284  0.60651  Biso   1.000  C
  C237     1.0000 0.47295  0.04090  0.66243  Biso   1.000  C
  C238     1.0000 0.48578  0.01593  0.69145  Biso   1.000  C
  C239     1.0000 0.61550  0.24950  0.70980  Biso   1.000  C
  C240     1.0000 0.50540  0.14150  0.64270  Biso   1.000  C
  C241     1.0000 0.93093  0.74765  0.57170  Biso   1.000  C
  C242     1.0000 0.96338  0.76627  0.62585  Biso   1.000  C
  C243     1.0000 0.88421  0.69797  0.49214  Biso   1.000  C
  C244     1.0000 0.88977  0.74395  0.50260  Biso   1.000  C
  C245     1.0000 0.88766  0.90724  0.54310  Biso   1.000  C
  C246     1.0000 0.87931  0.94716  0.55367  Biso   1.000  C
  C247     1.0000 0.93205  0.95910  0.62153  Biso   1.000  C
  C248     1.0000 0.96985  0.98407  0.67552  Biso   1.000  C
  C249     1.0000 0.86600  0.75050  0.46030  Biso   1.000  C
  C250     1.0000 0.86390  0.85850  0.50120  Biso   1.000  C
  C251     1.0000 0.67595  0.35923  0.92830  Biso   1.000  C
  C252     1.0000 0.64042  0.33753  0.87415  Biso   1.000  C
  C253     1.0000 0.70583  0.39207  0.00786  Biso   1.000  C
  C254     1.0000 0.74135  0.38717  0.99740  Biso   1.000  C
  C255     1.0000 0.86414  0.34456  0.95690  Biso   1.000  C
  C256     1.0000 0.89349  0.32564  0.94633  Biso   1.000  C
  C257     1.0000 0.83757  0.31052  0.87847  Biso   1.000  C
  C258     1.0000 0.80855  0.29433  0.82448  Biso   1.000  C
  C259     1.0000 0.79020  0.40570  0.03970  Biso   1.000  C
  C260     1.0000 0.85730  0.36270  0.99880  Biso   1.000  C
  C261     1.0000 0.82405  0.75235  0.68328  Biso   1.000  C
  C262     1.0000 0.85958  0.73373  0.69711  Biso   1.000  C
  C263     1.0000 0.79417  0.80203  0.68624  Biso   1.000  C
  C264     1.0000 0.75865  0.75605  0.64582  Biso   1.000  C
  C265     1.0000 0.63586  0.59276  0.48042  Biso   1.000  C
  C266     1.0000 0.60651  0.55284  0.43215  Biso   1.000  C
  C267     1.0000 0.66243  0.54090  0.47295  Biso   1.000  C
  C268     1.0000 0.69145  0.51593  0.48578  Biso   1.000  C
  C269     1.0000 0.70980  0.74950  0.61550  Biso   1.000  C
  C270     1.0000 0.64270  0.64150  0.50540  Biso   1.000  C
  C271     1.0000 0.56907  0.14077  0.81672  Biso   1.000  C
  C272     1.0000 0.53662  0.16247  0.80289  Biso   1.000  C
  C273     1.0000 0.61579  0.10793  0.81376  Biso   1.000  C
  C274     1.0000 0.61023  0.11283  0.85418  Biso   1.000  C
  C275     1.0000 0.61234  0.15544  0.01958  Biso   1.000  C
  C276     1.0000 0.62069  0.17436  0.06785  Biso   1.000  C
  C277     1.0000 0.56795  0.18948  0.02705  Biso   1.000  C
  C278     1.0000 0.53015  0.20567  0.01422  Biso   1.000  C
  C279     1.0000 0.63400  0.09430  0.88450  Biso   1.000  C
  C280     1.0000 0.63610  0.13730  0.99460  Biso   1.000  C
  C281     1.0000 0.18328  0.82405  0.25235  Biso   1.000  C
  C282     1.0000 0.19711  0.85958  0.23373  Biso   1.000  C
  C283     1.0000 0.18624  0.79417  0.30203  Biso   1.000  C
  C284     1.0000 0.14582  0.75865  0.25605  Biso   1.000  C
  C285     1.0000 0.98042  0.63586  0.09276  Biso   1.000  C
  C286     1.0000 0.93215  0.60651  0.05284  Biso   1.000  C
  C287     1.0000 0.97295  0.66243  0.04090  Biso   1.000  C
  C288     1.0000 0.98578  0.69145  0.01593  Biso   1.000  C
  C289     1.0000 0.11550  0.70980  0.24950  Biso   1.000  C
  C290     1.0000 0.00540  0.64270  0.14150  Biso   1.000  C
  C291     1.0000 0.31672  0.56907  0.64077  Biso   1.000  C
  C292     1.0000 0.30289  0.53662  0.66247  Biso   1.000  C
  C293     1.0000 0.31376  0.61579  0.60793  Biso   1.000  C
  C294     1.0000 0.35418  0.61023  0.61283  Biso   1.000  C
  C295     1.0000 0.51958  0.61234  0.65544  Biso   1.000  C
  C296     1.0000 0.56785  0.62069  0.67436  Biso   1.000  C
  C297     1.0000 0.52705  0.56795  0.68948  Biso   1.000  C
  C298     1.0000 0.51422  0.53015  0.70567  Biso   1.000  C
  C299     1.0000 0.38450  0.63400  0.59430  Biso   1.000  C
  C300     1.0000 0.49460  0.63610  0.63730  Biso   1.000  C
  C301     1.0000 0.07170  0.93093  0.24765  Biso   1.000  C
  C302     1.0000 0.12585  0.96338  0.26627  Biso   1.000  C
  C303     1.0000 0.99214  0.88421  0.19797  Biso   1.000  C
  C304     1.0000 0.00260  0.88977  0.24395  Biso   1.000  C
  C305     1.0000 0.04310  0.88766  0.40724  Biso   1.000  C
  C306     1.0000 0.05367  0.87931  0.44716  Biso   1.000  C
  C307     1.0000 0.12153  0.93205  0.45910  Biso   1.000  C
  C308     1.0000 0.17552  0.96985  0.48407  Biso   1.000  C
  C309     1.0000 0.96030  0.86600  0.25050  Biso   1.000  C
  C310     1.0000 0.00120  0.86390  0.35850  Biso   1.000  C
  C311     1.0000 0.42830  0.67595  0.85923  Biso   1.000  C
  C312     1.0000 0.37415  0.64042  0.83753  Biso   1.000  C
  C313     1.0000 0.50786  0.70583  0.89207  Biso   1.000  C
  C314     1.0000 0.49740  0.74135  0.88717  Biso   1.000  C
  C315     1.0000 0.45690  0.86414  0.84456  Biso   1.000  C
  C316     1.0000 0.44633  0.89349  0.82564  Biso   1.000  C
  C317     1.0000 0.37847  0.83757  0.81052  Biso   1.000  C
  C318     1.0000 0.32448  0.80855  0.79433  Biso   1.000  C
  C319     1.0000 0.53970  0.79020  0.90570  Biso   1.000  C
  C320     1.0000 0.49880  0.85730  0.86270  Biso   1.000  C
  C321     1.0000 0.35923  0.42830  0.17595  Biso   1.000  C
  C322     1.0000 0.33753  0.37415  0.14042  Biso   1.000  C
  C323     1.0000 0.39207  0.50786  0.20583  Biso   1.000  C
  C324     1.0000 0.38717  0.49740  0.24135  Biso   1.000  C
  C325     1.0000 0.34456  0.45690  0.36414  Biso   1.000  C
  C326     1.0000 0.32564  0.44633  0.39349  Biso   1.000  C
  C327     1.0000 0.31052  0.37847  0.33757  Biso   1.000  C
  C328     1.0000 0.29433  0.32448  0.30855  Biso   1.000  C
  C329     1.0000 0.40570  0.53970  0.29020  Biso   1.000  C
  C330     1.0000 0.36270  0.49880  0.35730  Biso   1.000  C
  C331     1.0000 0.74765  0.07170  0.43093  Biso   1.000  C
  C332     1.0000 0.76627  0.12585  0.46338  Biso   1.000  C
  C333     1.0000 0.69797  0.99214  0.38421  Biso   1.000  C
  C334     1.0000 0.74395  0.00260  0.38977  Biso   1.000  C
  C335     1.0000 0.90724  0.04310  0.38766  Biso   1.000  C
  C336     1.0000 0.94716  0.05367  0.37931  Biso   1.000  C
  C337     1.0000 0.95910  0.12153  0.43205  Biso   1.000  C
  C338     1.0000 0.98407  0.17552  0.46985  Biso   1.000  C
  C339     1.0000 0.75050  0.96030  0.36600  Biso   1.000  C
  C340     1.0000 0.85850  0.00120  0.36390  Biso   1.000  C
  C341     1.0000 0.14077  0.31672  0.06907  Biso   1.000  C
  C342     1.0000 0.16247  0.30289  0.03662  Biso   1.000  C
  C343     1.0000 0.10793  0.31376  0.11579  Biso   1.000  C
  C344     1.0000 0.11283  0.35418  0.11023  Biso   1.000  C
  C345     1.0000 0.15544  0.51958  0.11234  Biso   1.000  C
  C346     1.0000 0.17436  0.56785  0.12069  Biso   1.000  C
  C347     1.0000 0.18948  0.52705  0.06795  Biso   1.000  C
  C348     1.0000 0.20567  0.51422  0.03015  Biso   1.000  C
  C349     1.0000 0.09430  0.38450  0.13400  Biso   1.000  C
  C350     1.0000 0.13730  0.49460  0.13610  Biso   1.000  C
  C351     1.0000 0.75235  0.18328  0.32405  Biso   1.000  C
  C352     1.0000 0.73373  0.19711  0.35958  Biso   1.000  C
  C353     1.0000 0.80203  0.18624  0.29417  Biso   1.000  C
  C354     1.0000 0.75605  0.14582  0.25865  Biso   1.000  C
  C355     1.0000 0.59276  0.98042  0.13586  Biso   1.000  C
  C356     1.0000 0.55284  0.93215  0.10651  Biso   1.000  C
  C357     1.0000 0.54090  0.97295  0.16243  Biso   1.000  C
  C358     1.0000 0.51593  0.98578  0.19145  Biso   1.000  C
  C359     1.0000 0.74950  0.11550  0.20980  Biso   1.000  C
  C360     1.0000 0.64150  0.00540  0.14270  Biso   1.000  C
  C361     1.0000 0.75235  0.56907  0.92830  Biso   1.000  C
  C362     1.0000 0.73373  0.53662  0.87415  Biso   1.000  C
  C363     1.0000 0.80203  0.61579  0.00786  Biso   1.000  C
  C364     1.0000 0.75605  0.61023  0.99740  Biso   1.000  C
  C365     1.0000 0.59276  0.61234  0.95690  Biso   1.000  C
  C366     1.0000 0.55284  0.62069  0.94633  Biso   1.000  C
  C367     1.0000 0.54090  0.56795  0.87847  Biso   1.000  C
  C368     1.0000 0.51593  0.53015  0.82448  Biso   1.000  C
  C369     1.0000 0.74950  0.63400  0.03970  Biso   1.000  C
  C370     1.0000 0.64150  0.63610  0.99880  Biso   1.000  C
  C371     1.0000 0.14077  0.82405  0.57170  Biso   1.000  C
  C372     1.0000 0.16247  0.85958  0.62585  Biso   1.000  C
  C373     1.0000 0.10793  0.79417  0.49214  Biso   1.000  C
  C374     1.0000 0.11283  0.75865  0.50260  Biso   1.000  C
  C375     1.0000 0.15544  0.63586  0.54310  Biso   1.000  C
  C376     1.0000 0.17436  0.60651  0.55367  Biso   1.000  C
  C377     1.0000 0.18948  0.66243  0.62153  Biso   1.000  C
  C378     1.0000 0.20567  0.69145  0.67552  Biso   1.000  C
  C379     1.0000 0.09430  0.70980  0.46030  Biso   1.000  C
  C380     1.0000 0.13730  0.64270  0.50120  Biso   1.000  C
  C381     1.0000 0.74765  0.67595  0.81672  Biso   1.000  C
  C382     1.0000 0.76627  0.64042  0.80289  Biso   1.000  C
  C383     1.0000 0.69797  0.70583  0.81376  Biso   1.000  C
  C384     1.0000 0.74395  0.74135  0.85418  Biso   1.000  C
  C385     1.0000 0.90724  0.86414  0.01958  Biso   1.000  C
  C386     1.0000 0.94716  0.89349  0.06785  Biso   1.000  C
  C387     1.0000 0.95910  0.83757  0.02705  Biso   1.000  C
  C388     1.0000 0.98407  0.80855  0.01422  Biso   1.000  C
  C389     1.0000 0.75050  0.79020  0.88450  Biso   1.000  C
  C390     1.0000 0.85850  0.85730  0.99460  Biso   1.000  C
  C391     1.0000 0.35923  0.93093  0.68328  Biso   1.000  C
  C392     1.0000 0.33753  0.96338  0.69711  Biso   1.000  C
  C393     1.0000 0.39207  0.88421  0.68624  Biso   1.000  C
  C394     1.0000 0.38717  0.88977  0.64582  Biso   1.000  C
  C395     1.0000 0.34456  0.88766  0.48042  Biso   1.000  C
  C396     1.0000 0.32564  0.87931  0.43215  Biso   1.000  C
  C397     1.0000 0.31052  0.93205  0.47295  Biso   1.000  C
  C398     1.0000 0.29433  0.96985  0.48578  Biso   1.000  C
  C399     1.0000 0.40570  0.86600  0.61550  Biso   1.000  C
  C400     1.0000 0.36270  0.86390  0.50540  Biso   1.000  C
  C401     1.0000 0.67595  0.31672  0.24765  Biso   1.000  C
  C402     1.0000 0.64042  0.30289  0.26627  Biso   1.000  C
  C403     1.0000 0.70583  0.31376  0.19797  Biso   1.000  C
  C404     1.0000 0.74135  0.35418  0.24395  Biso   1.000  C
  C405     1.0000 0.86414  0.51958  0.40724  Biso   1.000  C
  C406     1.0000 0.89349  0.56785  0.44716  Biso   1.000  C
  C407     1.0000 0.83757  0.52705  0.45910  Biso   1.000  C
  C408     1.0000 0.80855  0.51422  0.48407  Biso   1.000  C
  C409     1.0000 0.79020  0.38450  0.25050  Biso   1.000  C
  C410     1.0000 0.85730  0.49460  0.35850  Biso   1.000  C
  C411     1.0000 0.93093  0.18328  0.85923  Biso   1.000  C
  C412     1.0000 0.96338  0.19711  0.83753  Biso   1.000  C
  C413     1.0000 0.88421  0.18624  0.89207  Biso   1.000  C
  C414     1.0000 0.88977  0.14582  0.88717  Biso   1.000  C
  C415     1.0000 0.88766  0.98042  0.84456  Biso   1.000  C
  C416     1.0000 0.87931  0.93215  0.82564  Biso   1.000  C
  C417     1.0000 0.93205  0.97295  0.81052  Biso   1.000  C
  C418     1.0000 0.96985  0.98578  0.79433  Biso   1.000  C
  C419     1.0000 0.86600  0.11550  0.90570  Biso   1.000  C
  C420     1.0000 0.86390  0.00540  0.86270  Biso   1.000  C
  C421     1.0000 0.56907  0.42830  0.25235  Biso   1.000  C
  C422     1.0000 0.53662  0.37415  0.23373  Biso   1.000  C
  C423     1.0000 0.61579  0.50786  0.30203  Biso   1.000  C
  C424     1.0000 0.61023  0.49740  0.25605  Biso   1.000  C
  C425     1.0000 0.61234  0.45690  0.09276  Biso   1.000  C
  C426     1.0000 0.62069  0.44633  0.05284  Biso   1.000  C
  C427     1.0000 0.56795  0.37847  0.04090  Biso   1.000  C
  C428     1.0000 0.53015  0.32448  0.01593  Biso   1.000  C
  C429     1.0000 0.63400  0.53970  0.24950  Biso   1.000  C
  C430     1.0000 0.63610  0.49880  0.14150  Biso   1.000  C
  C431     1.0000 0.82405  0.07170  0.64077  Biso   1.000  C
  C432     1.0000 0.85958  0.12585  0.66247  Biso   1.000  C
  C433     1.0000 0.79417  0.99214  0.60793  Biso   1.000  C
  C434     1.0000 0.75865  0.00260  0.61283  Biso   1.000  C
  C435     1.0000 0.63586  0.04310  0.65544  Biso   1.000  C
  C436     1.0000 0.60651  0.05367  0.67436  Biso   1.000  C
  C437     1.0000 0.66243  0.12153  0.68948  Biso   1.000  C
  C438     1.0000 0.69145  0.17552  0.70567  Biso   1.000  C
  C439     1.0000 0.70980  0.96030  0.59430  Biso   1.000  C
  C440     1.0000 0.64270  0.00120  0.63730  Biso   1.000  C
  C441     1.0000 0.07170  0.14077  0.32405  Biso   1.000  C
  C442     1.0000 0.12585  0.16247  0.35958  Biso   1.000  C
  C443     1.0000 0.99214  0.10793  0.29417  Biso   1.000  C
  C444     1.0000 0.00260  0.11283  0.25865  Biso   1.000  C
  C445     1.0000 0.04310  0.15544  0.13586  Biso   1.000  C
  C446     1.0000 0.05367  0.17436  0.10651  Biso   1.000  C
  C447     1.0000 0.12153  0.18948  0.16243  Biso   1.000  C
  C448     1.0000 0.17552  0.20567  0.19145  Biso   1.000  C
  C449     1.0000 0.96030  0.09430  0.20980  Biso   1.000  C
  C450     1.0000 0.00120  0.13730  0.14270  Biso   1.000  C
  C451     1.0000 0.42830  0.75235  0.06907  Biso   1.000  C
  C452     1.0000 0.37415  0.73373  0.03662  Biso   1.000  C
  C453     1.0000 0.50786  0.80203  0.11579  Biso   1.000  C
  C454     1.0000 0.49740  0.75605  0.11023  Biso   1.000  C
  C455     1.0000 0.45690  0.59276  0.11234  Biso   1.000  C
  C456     1.0000 0.44633  0.55284  0.12069  Biso   1.000  C
  C457     1.0000 0.37847  0.54090  0.06795  Biso   1.000  C
  C458     1.0000 0.32448  0.51593  0.03015  Biso   1.000  C
  C459     1.0000 0.53970  0.74950  0.13400  Biso   1.000  C
  C460     1.0000 0.49880  0.64150  0.13610  Biso   1.000  C
  C461     1.0000 0.18328  0.35923  0.43093  Biso   1.000  C
  C462     1.0000 0.19711  0.33753  0.46338  Biso   1.000  C
  C463     1.0000 0.18624  0.39207  0.38421  Biso   1.000  C
  C464     1.0000 0.14582  0.38717  0.38977  Biso   1.000  C
  C465     1.0000 0.98042  0.34456  0.38766  Biso   1.000  C
  C466     1.0000 0.93215  0.32564  0.37931  Biso   1.000  C
  C467     1.0000 0.97295  0.31052  0.43205  Biso   1.000  C
  C468     1.0000 0.98578  0.29433  0.46985  Biso   1.000  C
  C469     1.0000 0.11550  0.40570  0.36600  Biso   1.000  C
  C470     1.0000 0.00540  0.36270  0.36390  Biso   1.000  C
  C471     1.0000 0.31672  0.74765  0.17595  Biso   1.000  C
  C472     1.0000 0.30289  0.76627  0.14042  Biso   1.000  C
  C473     1.0000 0.31376  0.69797  0.20583  Biso   1.000  C
  C474     1.0000 0.35418  0.74395  0.24135  Biso   1.000  C
  C475     1.0000 0.51958  0.90724  0.36414  Biso   1.000  C
  C476     1.0000 0.56785  0.94716  0.39349  Biso   1.000  C
  C477     1.0000 0.52705  0.95910  0.33757  Biso   1.000  C
  C478     1.0000 0.51422  0.98407  0.30855  Biso   1.000  C
  C479     1.0000 0.38450  0.75050  0.29020  Biso   1.000  C
  C480     1.0000 0.49460  0.85850  0.35730  Biso   1.000  C
  N1       1.0000 0.08050  0.22375  0.44605  Biso   1.000  N
  N2       1.0000 0.08922  0.29944  0.46432  Biso   1.000  N
  N3       1.0000 0.07881  0.08473  0.41282  Biso   1.000  N
  N4       1.0000 0.09253  0.02036  0.39769  Biso   1.000  N
  N5       1.0000 0.14520  0.21560  0.54260  Biso   1.000  N
  N6       1.0000 0.12030  0.17230  0.49580  Biso   1.000  N
  N7       1.0000 0.27770  0.63445  0.05395  Biso   1.000  N
  N8       1.0000 0.33512  0.62490  0.03568  Biso   1.000  N
  N9       1.0000 0.17191  0.66599  0.08718  Biso   1.000  N
  N10      1.0000 0.12267  0.69484  0.10231  Biso   1.000  N
  N11      1.0000 0.17300  0.60260  0.95740  Biso   1.000  N
  N12      1.0000 0.17650  0.62450  0.00420  Biso   1.000  N
  N13      1.0000 0.22230  0.27625  0.35675  Biso   1.000  N
  N14      1.0000 0.16488  0.20056  0.28978  Biso   1.000  N
  N15      1.0000 0.32809  0.41527  0.49408  Biso   1.000  N
  N16      1.0000 0.37733  0.47964  0.57217  Biso   1.000  N
  N17      1.0000 0.32700  0.28440  0.42960  Biso   1.000  N
  N18      1.0000 0.32350  0.32770  0.44800  Biso   1.000  N
  N19      1.0000 0.41950  0.86555  0.14325  Biso   1.000  N
  N20      1.0000 0.41078  0.87510  0.21022  Biso   1.000  N
  N21      1.0000 0.42119  0.83401  0.00592  Biso   1.000  N
  N22      1.0000 0.40747  0.80516  0.92783  Biso   1.000  N
  N23      1.0000 0.35480  0.89740  0.07040  Biso   1.000  N
  N24      1.0000 0.37970  0.87550  0.05200  Biso   1.000  N
  N25      1.0000 0.85675  0.22230  0.77625  Biso   1.000  N
  N26      1.0000 0.78978  0.16488  0.70056  Biso   1.000  N
  N27      1.0000 0.99408  0.32809  0.91527  Biso   1.000  N
  N28      1.0000 0.07217  0.37733  0.97964  Biso   1.000  N
  N29      1.0000 0.92960  0.32700  0.78440  Biso   1.000  N
  N30      1.0000 0.94800  0.32350  0.82770  Biso   1.000  N
  N31      1.0000 0.64325  0.41950  0.36555  Biso   1.000  N
  N32      1.0000 0.71022  0.41078  0.37510  Biso   1.000  N
  N33      1.0000 0.50592  0.42119  0.33401  Biso   1.000  N
  N34      1.0000 0.42783  0.40747  0.30516  Biso   1.000  N
  N35      1.0000 0.57040  0.35480  0.39740  Biso   1.000  N
  N36      1.0000 0.55200  0.37970  0.37550  Biso   1.000  N
  N37      1.0000 0.94605  0.08050  0.72375  Biso   1.000  N
  N38      1.0000 0.96432  0.08922  0.79944  Biso   1.000  N
  N39      1.0000 0.91282  0.07881  0.58473  Biso   1.000  N
  N40      1.0000 0.89769  0.09253  0.52036  Biso   1.000  N
  N41      1.0000 0.04260  0.14520  0.71560  Biso   1.000  N
  N42      1.0000 0.99580  0.12030  0.67230  Biso   1.000  N
  N43      1.0000 0.55395  0.27770  0.13445  Biso   1.000  N
  N44      1.0000 0.53568  0.33512  0.12490  Biso   1.000  N
  N45      1.0000 0.58718  0.17191  0.16599  Biso   1.000  N
  N46      1.0000 0.60231  0.12267  0.19484  Biso   1.000  N
  N47      1.0000 0.45740  0.17300  0.10260  Biso   1.000  N
  N48      1.0000 0.50420  0.17650  0.12450  Biso   1.000  N
  N49      1.0000 0.63445  0.55395  0.77770  Biso   1.000  N
  N50      1.0000 0.62490  0.53568  0.83512  Biso   1.000  N
  N51      1.0000 0.66599  0.58718  0.67191  Biso   1.000  N
  N52      1.0000 0.69484  0.60231  0.62267  Biso   1.000  N
  N53      1.0000 0.60260  0.45740  0.67300  Biso   1.000  N
  N54      1.0000 0.62450  0.50420  0.67650  Biso   1.000  N
  N55      1.0000 0.22375  0.94605  0.58050  Biso   1.000  N
  N56      1.0000 0.29944  0.96432  0.58922  Biso   1.000  N
  N57      1.0000 0.08473  0.91282  0.57881  Biso   1.000  N
  N58      1.0000 0.02036  0.89769  0.59253  Biso   1.000  N
  N59      1.0000 0.21560  0.04260  0.64520  Biso   1.000  N
  N60      1.0000 0.17230  0.99580  0.62030  Biso   1.000  N
  N61      1.0000 0.86555  0.64325  0.91950  Biso   1.000  N
  N62      1.0000 0.87510  0.71022  0.91078  Biso   1.000  N
  N63      1.0000 0.83401  0.50592  0.92119  Biso   1.000  N
  N64      1.0000 0.80516  0.42783  0.90747  Biso   1.000  N
  N65      1.0000 0.89740  0.57040  0.85480  Biso   1.000  N
  N66      1.0000 0.87550  0.55200  0.87970  Biso   1.000  N
  N67      1.0000 0.27625  0.85675  0.72230  Biso   1.000  N
  N68      1.0000 0.20056  0.78978  0.66488  Biso   1.000  N
  N69      1.0000 0.41527  0.99408  0.82809  Biso   1.000  N
  N70      1.0000 0.47964  0.07217  0.87733  Biso   1.000  N
  N71      1.0000 0.28440  0.92960  0.82700  Biso   1.000  N
  N72      1.0000 0.32770  0.94800  0.82350  Biso   1.000  N
  N73      1.0000 0.27625  0.41950  0.05395  Biso   1.000  N
  N74      1.0000 0.20056  0.41078  0.03568  Biso   1.000  N
  N75      1.0000 0.41527  0.42119  0.08718  Biso   1.000  N
  N76      1.0000 0.47964  0.40747  0.10231  Biso   1.000  N
  N77      1.0000 0.28440  0.35480  0.95740  Biso   1.000  N
  N78      1.0000 0.32770  0.37970  0.00420  Biso   1.000  N
  N79      1.0000 0.86555  0.22230  0.44605  Biso   1.000  N
  N80      1.0000 0.87510  0.16488  0.46432  Biso   1.000  N
  N81      1.0000 0.83401  0.32809  0.41282  Biso   1.000  N
  N82      1.0000 0.80516  0.37733  0.39769  Biso   1.000  N
  N83      1.0000 0.89740  0.32700  0.54260  Biso   1.000  N
  N84      1.0000 0.87550  0.32350  0.49580  Biso   1.000  N
  N85      1.0000 0.22375  0.27770  0.14325  Biso   1.000  N
  N86      1.0000 0.29944  0.33512  0.21022  Biso   1.000  N
  N87      1.0000 0.08473  0.17191  0.00592  Biso   1.000  N
  N88      1.0000 0.02036  0.12267  0.92783  Biso   1.000  N
  N89      1.0000 0.21560  0.17300  0.07040  Biso   1.000  N
  N90      1.0000 0.17230  0.17650  0.05200  Biso   1.000  N
  N91      1.0000 0.63445  0.08050  0.35675  Biso   1.000  N
  N92      1.0000 0.62490  0.08922  0.28978  Biso   1.000  N
  N93      1.0000 0.66599  0.07881  0.49408  Biso   1.000  N
  N94      1.0000 0.69484  0.09253  0.57217  Biso   1.000  N
  N95      1.0000 0.60260  0.14520  0.42960  Biso   1.000  N
  N96      1.0000 0.62450  0.12030  0.44800  Biso   1.000  N
  N97      1.0000 0.27770  0.64325  0.72375  Biso   1.000  N
  N98      1.0000 0.33512  0.71022  0.79944  Biso   1.000  N
  N99      1.0000 0.17191  0.50592  0.58473  Biso   1.000  N
  N100     1.0000 0.12267  0.42783  0.52036  Biso   1.000  N
  N101     1.0000 0.17300  0.57040  0.71560  Biso   1.000  N
  N102     1.0000 0.17650  0.55200  0.67230  Biso   1.000  N
  N103     1.0000 0.08050  0.85675  0.13445  Biso   1.000  N
  N104     1.0000 0.08922  0.78978  0.12490  Biso   1.000  N
  N105     1.0000 0.07881  0.99408  0.16599  Biso   1.000  N
  N106     1.0000 0.09253  0.07217  0.19484  Biso   1.000  N
  N107     1.0000 0.14520  0.92960  0.10260  Biso   1.000  N
  N108     1.0000 0.12030  0.94800  0.12450  Biso   1.000  N
  N109     1.0000 0.41950  0.55395  0.77625  Biso   1.000  N
  N110     1.0000 0.41078  0.53568  0.70056  Biso   1.000  N
  N111     1.0000 0.42119  0.58718  0.91527  Biso   1.000  N
  N112     1.0000 0.40747  0.60231  0.97964  Biso   1.000  N
  N113     1.0000 0.35480  0.45740  0.78440  Biso   1.000  N
  N114     1.0000 0.37970  0.50420  0.82770  Biso   1.000  N
  N115     1.0000 0.22230  0.94605  0.36555  Biso   1.000  N
  N116     1.0000 0.16488  0.96432  0.37510  Biso   1.000  N
  N117     1.0000 0.32809  0.91282  0.33401  Biso   1.000  N
  N118     1.0000 0.37733  0.89769  0.30516  Biso   1.000  N
  N119     1.0000 0.32700  0.04260  0.39740  Biso   1.000  N
  N120     1.0000 0.32350  0.99580  0.37550  Biso   1.000  N
  N121     1.0000 0.94605  0.86555  0.72230  Biso   1.000  N
  N122     1.0000 0.96432  0.87510  0.66488  Biso   1.000  N
  N123     1.0000 0.91282  0.83401  0.82809  Biso   1.000  N
  N124     1.0000 0.89769  0.80516  0.87733  Biso   1.000  N
  N125     1.0000 0.04260  0.89740  0.82700  Biso   1.000  N
  N126     1.0000 0.99580  0.87550  0.82350  Biso   1.000  N
  N127     1.0000 0.55395  0.27625  0.91950  Biso   1.000  N
  N128     1.0000 0.53568  0.20056  0.91078  Biso   1.000  N
  N129     1.0000 0.58718  0.41527  0.92119  Biso   1.000  N
  N130     1.0000 0.60231  0.47964  0.90747  Biso   1.000  N
  N131     1.0000 0.45740  0.28440  0.85480  Biso   1.000  N
  N132     1.0000 0.50420  0.32770  0.87970  Biso   1.000  N
  N133     1.0000 0.85675  0.63445  0.58050  Biso   1.000  N
  N134     1.0000 0.78978  0.62490  0.58922  Biso   1.000  N
  N135     1.0000 0.99408  0.66599  0.57881  Biso   1.000  N
  N136     1.0000 0.07217  0.69484  0.59253  Biso   1.000  N
  N137     1.0000 0.92960  0.60260  0.64520  Biso   1.000  N
  N138     1.0000 0.94800  0.62450  0.62030  Biso   1.000  N
  N139     1.0000 0.64325  0.22375  0.77770  Biso   1.000  N
  N140     1.0000 0.71022  0.29944  0.83512  Biso   1.000  N
  N141     1.0000 0.50592  0.08473  0.67191  Biso   1.000  N
  N142     1.0000 0.42783  0.02036  0.62267  Biso   1.000  N
  N143     1.0000 0.57040  0.21560  0.67300  Biso   1.000  N
  N144     1.0000 0.55200  0.17230  0.67650  Biso   1.000  N
  N145     1.0000 0.91950  0.77625  0.55395  Biso   1.000  N
  N146     1.0000 0.91078  0.70056  0.53568  Biso   1.000  N
  N147     1.0000 0.92119  0.91527  0.58718  Biso   1.000  N
  N148     1.0000 0.90747  0.97964  0.60231  Biso   1.000  N
  N149     1.0000 0.85480  0.78440  0.45740  Biso   1.000  N
  N150     1.0000 0.87970  0.82770  0.50420  Biso   1.000  N
  N151     1.0000 0.72230  0.36555  0.94605  Biso   1.000  N
  N152     1.0000 0.66488  0.37510  0.96432  Biso   1.000  N
  N153     1.0000 0.82809  0.33401  0.91282  Biso   1.000  N
  N154     1.0000 0.87733  0.30516  0.89769  Biso   1.000  N
  N155     1.0000 0.82700  0.39740  0.04260  Biso   1.000  N
  N156     1.0000 0.82350  0.37550  0.99580  Biso   1.000  N
  N157     1.0000 0.77770  0.72375  0.64325  Biso   1.000  N
  N158     1.0000 0.83512  0.79944  0.71022  Biso   1.000  N
  N159     1.0000 0.67191  0.58473  0.50592  Biso   1.000  N
  N160     1.0000 0.62267  0.52036  0.42783  Biso   1.000  N
  N161     1.0000 0.67300  0.71560  0.57040  Biso   1.000  N
  N162     1.0000 0.67650  0.67230  0.55200  Biso   1.000  N
  N163     1.0000 0.58050  0.13445  0.85675  Biso   1.000  N
  N164     1.0000 0.58922  0.12490  0.78978  Biso   1.000  N
  N165     1.0000 0.57881  0.16599  0.99408  Biso   1.000  N
  N166     1.0000 0.59253  0.19484  0.07217  Biso   1.000  N
  N167     1.0000 0.64520  0.10260  0.92960  Biso   1.000  N
  N168     1.0000 0.62030  0.12450  0.94800  Biso   1.000  N
  N169     1.0000 0.14325  0.77770  0.22375  Biso   1.000  N
  N170     1.0000 0.21022  0.83512  0.29944  Biso   1.000  N
  N171     1.0000 0.00592  0.67191  0.08473  Biso   1.000  N
  N172     1.0000 0.92783  0.62267  0.02036  Biso   1.000  N
  N173     1.0000 0.07040  0.67300  0.21560  Biso   1.000  N
  N174     1.0000 0.05200  0.67650  0.17230  Biso   1.000  N
  N175     1.0000 0.35675  0.58050  0.63445  Biso   1.000  N
  N176     1.0000 0.28978  0.58922  0.62490  Biso   1.000  N
  N177     1.0000 0.49408  0.57881  0.66599  Biso   1.000  N
  N178     1.0000 0.57217  0.59253  0.69484  Biso   1.000  N
  N179     1.0000 0.42960  0.64520  0.60260  Biso   1.000  N
  N180     1.0000 0.44800  0.62030  0.62450  Biso   1.000  N
  N181     1.0000 0.05395  0.91950  0.27625  Biso   1.000  N
  N182     1.0000 0.03568  0.91078  0.20056  Biso   1.000  N
  N183     1.0000 0.08718  0.92119  0.41527  Biso   1.000  N
  N184     1.0000 0.10231  0.90747  0.47964  Biso   1.000  N
  N185     1.0000 0.95740  0.85480  0.28440  Biso   1.000  N
  N186     1.0000 0.00420  0.87970  0.32770  Biso   1.000  N
  N187     1.0000 0.44605  0.72230  0.86555  Biso   1.000  N
  N188     1.0000 0.46432  0.66488  0.87510  Biso   1.000  N
  N189     1.0000 0.41282  0.82809  0.83401  Biso   1.000  N
  N190     1.0000 0.39769  0.87733  0.80516  Biso   1.000  N
  N191     1.0000 0.54260  0.82700  0.89740  Biso   1.000  N
  N192     1.0000 0.49580  0.82350  0.87550  Biso   1.000  N
  N193     1.0000 0.36555  0.44605  0.22230  Biso   1.000  N
  N194     1.0000 0.37510  0.46432  0.16488  Biso   1.000  N
  N195     1.0000 0.33401  0.41282  0.32809  Biso   1.000  N
  N196     1.0000 0.30516  0.39769  0.37733  Biso   1.000  N
  N197     1.0000 0.39740  0.54260  0.32700  Biso   1.000  N
  N198     1.0000 0.37550  0.49580  0.32350  Biso   1.000  N
  N199     1.0000 0.77625  0.05395  0.41950  Biso   1.000  N
  N200     1.0000 0.70056  0.03568  0.41078  Biso   1.000  N
  N201     1.0000 0.91527  0.08718  0.42119  Biso   1.000  N
  N202     1.0000 0.97964  0.10231  0.40747  Biso   1.000  N
  N203     1.0000 0.78440  0.95740  0.35480  Biso   1.000  N
  N204     1.0000 0.82770  0.00420  0.37970  Biso   1.000  N
  N205     1.0000 0.13445  0.35675  0.08050  Biso   1.000  N
  N206     1.0000 0.12490  0.28978  0.08922  Biso   1.000  N
  N207     1.0000 0.16599  0.49408  0.07881  Biso   1.000  N
  N208     1.0000 0.19484  0.57217  0.09253  Biso   1.000  N
  N209     1.0000 0.10260  0.42960  0.14520  Biso   1.000  N
  N210     1.0000 0.12450  0.44800  0.12030  Biso   1.000  N
  N211     1.0000 0.72375  0.14325  0.27770  Biso   1.000  N
  N212     1.0000 0.79944  0.21022  0.33512  Biso   1.000  N
  N213     1.0000 0.58473  0.00592  0.17191  Biso   1.000  N
  N214     1.0000 0.52036  0.92783  0.12267  Biso   1.000  N
  N215     1.0000 0.71560  0.07040  0.17300  Biso   1.000  N
  N216     1.0000 0.67230  0.05200  0.17650  Biso   1.000  N
  N217     1.0000 0.72375  0.58050  0.94605  Biso   1.000  N
  N218     1.0000 0.79944  0.58922  0.96432  Biso   1.000  N
  N219     1.0000 0.58473  0.57881  0.91282  Biso   1.000  N
  N220     1.0000 0.52036  0.59253  0.89769  Biso   1.000  N
  N221     1.0000 0.71560  0.64520  0.04260  Biso   1.000  N
  N222     1.0000 0.67230  0.62030  0.99580  Biso   1.000  N
  N223     1.0000 0.13445  0.77770  0.55395  Biso   1.000  N
  N224     1.0000 0.12490  0.83512  0.53568  Biso   1.000  N
  N225     1.0000 0.16599  0.67191  0.58718  Biso   1.000  N
  N226     1.0000 0.19484  0.62267  0.60231  Biso   1.000  N
  N227     1.0000 0.10260  0.67300  0.45740  Biso   1.000  N
  N228     1.0000 0.12450  0.67650  0.50420  Biso   1.000  N
  N229     1.0000 0.77625  0.72230  0.85675  Biso   1.000  N
  N230     1.0000 0.70056  0.66488  0.78978  Biso   1.000  N
  N231     1.0000 0.91527  0.82809  0.99408  Biso   1.000  N
  N232     1.0000 0.97964  0.87733  0.07217  Biso   1.000  N
  N233     1.0000 0.78440  0.82700  0.92960  Biso   1.000  N
  N234     1.0000 0.82770  0.82350  0.94800  Biso   1.000  N
  N235     1.0000 0.36555  0.91950  0.64325  Biso   1.000  N
  N236     1.0000 0.37510  0.91078  0.71022  Biso   1.000  N
  N237     1.0000 0.33401  0.92119  0.50592  Biso   1.000  N
  N238     1.0000 0.30516  0.90747  0.42783  Biso   1.000  N
  N239     1.0000 0.39740  0.85480  0.57040  Biso   1.000  N
  N240     1.0000 0.37550  0.87970  0.55200  Biso   1.000  N
  N241     1.0000 0.72230  0.35675  0.27625  Biso   1.000  N
  N242     1.0000 0.66488  0.28978  0.20056  Biso   1.000  N
  N243     1.0000 0.82809  0.49408  0.41527  Biso   1.000  N
  N244     1.0000 0.87733  0.57217  0.47964  Biso   1.000  N
  N245     1.0000 0.82700  0.42960  0.28440  Biso   1.000  N
  N246     1.0000 0.82350  0.44800  0.32770  Biso   1.000  N
  N247     1.0000 0.91950  0.14325  0.86555  Biso   1.000  N
  N248     1.0000 0.91078  0.21022  0.87510  Biso   1.000  N
  N249     1.0000 0.92119  0.00592  0.83401  Biso   1.000  N
  N250     1.0000 0.90747  0.92783  0.80516  Biso   1.000  N
  N251     1.0000 0.85480  0.07040  0.89740  Biso   1.000  N
  N252     1.0000 0.87970  0.05200  0.87550  Biso   1.000  N
  N253     1.0000 0.58050  0.44605  0.22375  Biso   1.000  N
  N254     1.0000 0.58922  0.46432  0.29944  Biso   1.000  N
  N255     1.0000 0.57881  0.41282  0.08473  Biso   1.000  N
  N256     1.0000 0.59253  0.39769  0.02036  Biso   1.000  N
  N257     1.0000 0.64520  0.54260  0.21560  Biso   1.000  N
  N258     1.0000 0.62030  0.49580  0.17230  Biso   1.000  N
  N259     1.0000 0.77770  0.05395  0.63445  Biso   1.000  N
  N260     1.0000 0.83512  0.03568  0.62490  Biso   1.000  N
  N261     1.0000 0.67191  0.08718  0.66599  Biso   1.000  N
  N262     1.0000 0.62267  0.10231  0.69484  Biso   1.000  N
  N263     1.0000 0.67300  0.95740  0.60260  Biso   1.000  N
  N264     1.0000 0.67650  0.00420  0.62450  Biso   1.000  N
  N265     1.0000 0.05395  0.13445  0.27770  Biso   1.000  N
  N266     1.0000 0.03568  0.12490  0.33512  Biso   1.000  N
  N267     1.0000 0.08718  0.16599  0.17191  Biso   1.000  N
  N268     1.0000 0.10231  0.19484  0.12267  Biso   1.000  N
  N269     1.0000 0.95740  0.10260  0.17300  Biso   1.000  N
  N270     1.0000 0.00420  0.12450  0.17650  Biso   1.000  N
  N271     1.0000 0.44605  0.72375  0.08050  Biso   1.000  N
  N272     1.0000 0.46432  0.79944  0.08922  Biso   1.000  N
  N273     1.0000 0.41282  0.58473  0.07881  Biso   1.000  N
  N274     1.0000 0.39769  0.52036  0.09253  Biso   1.000  N
  N275     1.0000 0.54260  0.71560  0.14520  Biso   1.000  N
  N276     1.0000 0.49580  0.67230  0.12030  Biso   1.000  N
  N277     1.0000 0.14325  0.36555  0.41950  Biso   1.000  N
  N278     1.0000 0.21022  0.37510  0.41078  Biso   1.000  N
  N279     1.0000 0.00592  0.33401  0.42119  Biso   1.000  N
  N280     1.0000 0.92783  0.30516  0.40747  Biso   1.000  N
  N281     1.0000 0.07040  0.39740  0.35480  Biso   1.000  N
  N282     1.0000 0.05200  0.37550  0.37970  Biso   1.000  N
  N283     1.0000 0.35675  0.77625  0.22230  Biso   1.000  N
  N284     1.0000 0.28978  0.70056  0.16488  Biso   1.000  N
  N285     1.0000 0.49408  0.91527  0.32809  Biso   1.000  N
  N286     1.0000 0.57217  0.97964  0.37733  Biso   1.000  N
  N287     1.0000 0.42960  0.78440  0.32700  Biso   1.000  N
  N288     1.0000 0.44800  0.82770  0.32350  Biso   1.000  N
