data_image0
_cell_length_a       20.3049
_cell_length_b       20.3049
_cell_length_c       49.641
_cell_angle_alpha    90
_cell_angle_beta     90
_cell_angle_gamma    90

_symmetry_space_group_name_H-M    P 1
_symmetry_int_tables_number       1

loop_
  _symmetry_equiv_pos_as_xyz
  'x, y, z'

loop_
  _atom_site_label
  _atom_site_occupancy
  _atom_site_fract_x
  _atom_site_fract_y
  _atom_site_fract_z
  _atom_site_thermal_displace_type
  _atom_site_B_iso_or_equiv
  _atom_site_type_symbol
  Cd1      1.0000 0.69109  0.12950  0.98190  Biso   1.000  Cd
  Cd2      1.0000 0.30891  0.87050  0.48190  Biso   1.000  Cd
  Cd3      1.0000 0.12950  0.69109  0.26810  Biso   1.000  Cd
  Cd4      1.0000 0.87050  0.30891  0.76810  Biso   1.000  Cd
  Cd5      1.0000 0.79681  0.20319  0.87500  Biso   1.000  Cd
  Cd6      1.0000 0.20319  0.79681  0.37500  Biso   1.000  Cd
  H1       1.0000 0.29300  0.24450  0.91140  Biso   1.000  H
  H2       1.0000 0.29740  0.25120  0.84270  Biso   1.000  H
  H3       1.0000 0.32370  0.98190  0.07580  Biso   1.000  H
  H4       1.0000 0.41570  0.83400  0.10960  Biso   1.000  H
  H5       1.0000 0.67070  0.26360  0.84610  Biso   1.000  H
  H6       1.0000 0.55720  0.25730  0.84350  Biso   1.000  H
  H7       1.0000 0.55910  0.12630  0.90410  Biso   1.000  H
  H8       1.0000 0.67390  0.13340  0.90510  Biso   1.000  H
  H9       1.0000 0.46060  0.24530  0.90680  Biso   1.000  H
  H10      1.0000 0.51940  0.11630  0.83330  Biso   1.000  H
  H11      1.0000 0.34610  0.05550  0.80140  Biso   1.000  H
  H12      1.0000 0.28960  0.10900  0.83510  Biso   1.000  H
  H13      1.0000 0.30670  0.10240  0.91310  Biso   1.000  H
  H14      1.0000 0.25490  0.03210  0.94220  Biso   1.000  H
  H15      1.0000 0.07890  0.08190  0.90950  Biso   1.000  H
  H16      1.0000 0.12880  0.24210  0.84630  Biso   1.000  H
  H17      1.0000 0.92280  0.18540  0.83440  Biso   1.000  H
  H18      1.0000 0.03490  0.16930  0.83440  Biso   1.000  H
  H19      1.0000 0.03170  0.18510  0.91510  Biso   1.000  H
  H20      1.0000 0.91950  0.20260  0.91290  Biso   1.000  H
  H21      1.0000 0.61890  0.15940  0.03670  Biso   1.000  H
  H22      1.0000 0.56030  0.11560  0.07130  Biso   1.000  H
  H23      1.0000 0.55400  0.94890  0.03110  Biso   1.000  H
  H24      1.0000 0.61520  0.99560  0.99830  Biso   1.000  H
  H25      1.0000 0.63560  0.98780  0.09180  Biso   1.000  H
  H26      1.0000 0.60850  0.90730  0.16630  Biso   1.000  H
  H27      1.0000 0.49570  0.91160  0.16110  Biso   1.000  H
  H28      1.0000 0.42350  0.00840  0.05780  Biso   1.000  H
  H29      1.0000 0.38900  0.04530  0.14510  Biso   1.000  H
  H30      1.0000 0.34940  0.11360  0.17860  Biso   1.000  H
  H31      1.0000 0.27550  0.95360  0.21780  Biso   1.000  H
  H32      1.0000 0.32180  0.77660  0.16140  Biso   1.000  H
  H33      1.0000 0.18840  0.88610  0.20360  Biso   1.000  H
  H34      1.0000 0.33570  0.75410  0.21070  Biso   1.000  H
  H35      1.0000 0.27190  0.69570  0.24110  Biso   1.000  H
  H36      1.0000 0.70700  0.75550  0.41140  Biso   1.000  H
  H37      1.0000 0.70260  0.74880  0.34270  Biso   1.000  H
  H38      1.0000 0.67630  0.01810  0.57580  Biso   1.000  H
  H39      1.0000 0.58430  0.16600  0.60960  Biso   1.000  H
  H40      1.0000 0.32930  0.73640  0.34610  Biso   1.000  H
  H41      1.0000 0.44280  0.74270  0.34350  Biso   1.000  H
  H42      1.0000 0.44090  0.87370  0.40410  Biso   1.000  H
  H43      1.0000 0.32610  0.86660  0.40510  Biso   1.000  H
  H44      1.0000 0.53940  0.75470  0.40680  Biso   1.000  H
  H45      1.0000 0.48060  0.88370  0.33330  Biso   1.000  H
  H46      1.0000 0.65390  0.94450  0.30140  Biso   1.000  H
  H47      1.0000 0.71040  0.89100  0.33510  Biso   1.000  H
  H48      1.0000 0.69330  0.89760  0.41310  Biso   1.000  H
  H49      1.0000 0.74510  0.96790  0.44220  Biso   1.000  H
  H50      1.0000 0.92110  0.91810  0.40950  Biso   1.000  H
  H51      1.0000 0.87120  0.75790  0.34630  Biso   1.000  H
  H52      1.0000 0.07720  0.81460  0.33440  Biso   1.000  H
  H53      1.0000 0.96510  0.83070  0.33440  Biso   1.000  H
  H54      1.0000 0.96830  0.81490  0.41510  Biso   1.000  H
  H55      1.0000 0.08050  0.79740  0.41290  Biso   1.000  H
  H56      1.0000 0.38110  0.84060  0.53670  Biso   1.000  H
  H57      1.0000 0.43970  0.88440  0.57130  Biso   1.000  H
  H58      1.0000 0.44600  0.05110  0.53110  Biso   1.000  H
  H59      1.0000 0.38480  0.00440  0.49830  Biso   1.000  H
  H60      1.0000 0.36440  0.01220  0.59180  Biso   1.000  H
  H61      1.0000 0.39150  0.09270  0.66630  Biso   1.000  H
  H62      1.0000 0.50430  0.08840  0.66110  Biso   1.000  H
  H63      1.0000 0.57650  0.99160  0.55780  Biso   1.000  H
  H64      1.0000 0.61100  0.95470  0.64510  Biso   1.000  H
  H65      1.0000 0.65060  0.88640  0.67860  Biso   1.000  H
  H66      1.0000 0.72450  0.04640  0.71780  Biso   1.000  H
  H67      1.0000 0.67820  0.22340  0.66140  Biso   1.000  H
  H68      1.0000 0.81160  0.11390  0.70360  Biso   1.000  H
  H69      1.0000 0.66430  0.24590  0.71070  Biso   1.000  H
  H70      1.0000 0.72810  0.30430  0.74110  Biso   1.000  H
  H71      1.0000 0.24450  0.29300  0.33860  Biso   1.000  H
  H72      1.0000 0.25120  0.29740  0.40730  Biso   1.000  H
  H73      1.0000 0.98190  0.32370  0.17420  Biso   1.000  H
  H74      1.0000 0.83400  0.41570  0.14040  Biso   1.000  H
  H75      1.0000 0.26360  0.67070  0.40390  Biso   1.000  H
  H76      1.0000 0.25730  0.55720  0.40650  Biso   1.000  H
  H77      1.0000 0.12630  0.55910  0.34590  Biso   1.000  H
  H78      1.0000 0.13340  0.67390  0.34490  Biso   1.000  H
  H79      1.0000 0.24530  0.46060  0.34320  Biso   1.000  H
  H80      1.0000 0.11630  0.51940  0.41670  Biso   1.000  H
  H81      1.0000 0.05550  0.34610  0.44860  Biso   1.000  H
  H82      1.0000 0.10900  0.28960  0.41490  Biso   1.000  H
  H83      1.0000 0.10240  0.30670  0.33690  Biso   1.000  H
  H84      1.0000 0.03210  0.25490  0.30780  Biso   1.000  H
  H85      1.0000 0.08190  0.07890  0.34050  Biso   1.000  H
  H86      1.0000 0.24210  0.12880  0.40370  Biso   1.000  H
  H87      1.0000 0.18540  0.92280  0.41560  Biso   1.000  H
  H88      1.0000 0.16930  0.03490  0.41560  Biso   1.000  H
  H89      1.0000 0.18510  0.03170  0.33490  Biso   1.000  H
  H90      1.0000 0.20260  0.91950  0.33710  Biso   1.000  H
  H91      1.0000 0.15940  0.61890  0.21330  Biso   1.000  H
  H92      1.0000 0.11560  0.56030  0.17870  Biso   1.000  H
  H93      1.0000 0.94890  0.55400  0.21890  Biso   1.000  H
  H94      1.0000 0.99560  0.61520  0.25170  Biso   1.000  H
  H95      1.0000 0.98780  0.63560  0.15820  Biso   1.000  H
  H96      1.0000 0.90730  0.60850  0.08370  Biso   1.000  H
  H97      1.0000 0.91160  0.49570  0.08890  Biso   1.000  H
  H98      1.0000 0.00840  0.42350  0.19220  Biso   1.000  H
  H99      1.0000 0.04530  0.38900  0.10490  Biso   1.000  H
  H100     1.0000 0.11360  0.34940  0.07140  Biso   1.000  H
  H101     1.0000 0.95360  0.27550  0.03220  Biso   1.000  H
  H102     1.0000 0.77660  0.32180  0.08860  Biso   1.000  H
  H103     1.0000 0.88610  0.18840  0.04640  Biso   1.000  H
  H104     1.0000 0.75410  0.33570  0.03930  Biso   1.000  H
  H105     1.0000 0.69570  0.27190  0.00890  Biso   1.000  H
  H106     1.0000 0.75550  0.70700  0.83860  Biso   1.000  H
  H107     1.0000 0.74880  0.70260  0.90730  Biso   1.000  H
  H108     1.0000 0.01810  0.67630  0.67420  Biso   1.000  H
  H109     1.0000 0.16600  0.58430  0.64040  Biso   1.000  H
  H110     1.0000 0.73640  0.32930  0.90390  Biso   1.000  H
  H111     1.0000 0.74270  0.44280  0.90650  Biso   1.000  H
  H112     1.0000 0.87370  0.44090  0.84590  Biso   1.000  H
  H113     1.0000 0.86660  0.32610  0.84490  Biso   1.000  H
  H114     1.0000 0.75470  0.53940  0.84320  Biso   1.000  H
  H115     1.0000 0.88370  0.48060  0.91670  Biso   1.000  H
  H116     1.0000 0.94450  0.65390  0.94860  Biso   1.000  H
  H117     1.0000 0.89100  0.71040  0.91490  Biso   1.000  H
  H118     1.0000 0.89760  0.69330  0.83690  Biso   1.000  H
  H119     1.0000 0.96790  0.74510  0.80780  Biso   1.000  H
  H120     1.0000 0.91810  0.92110  0.84050  Biso   1.000  H
  H121     1.0000 0.75790  0.87120  0.90370  Biso   1.000  H
  H122     1.0000 0.81460  0.07720  0.91560  Biso   1.000  H
  H123     1.0000 0.83070  0.96510  0.91560  Biso   1.000  H
  H124     1.0000 0.81490  0.96830  0.83490  Biso   1.000  H
  H125     1.0000 0.79740  0.08050  0.83710  Biso   1.000  H
  H126     1.0000 0.84060  0.38110  0.71330  Biso   1.000  H
  H127     1.0000 0.88440  0.43970  0.67870  Biso   1.000  H
  H128     1.0000 0.05110  0.44600  0.71890  Biso   1.000  H
  H129     1.0000 0.00440  0.38480  0.75170  Biso   1.000  H
  H130     1.0000 0.01220  0.36440  0.65820  Biso   1.000  H
  H131     1.0000 0.09270  0.39150  0.58370  Biso   1.000  H
  H132     1.0000 0.08840  0.50430  0.58890  Biso   1.000  H
  H133     1.0000 0.99160  0.57650  0.69220  Biso   1.000  H
  H134     1.0000 0.95470  0.61100  0.60490  Biso   1.000  H
  H135     1.0000 0.88640  0.65060  0.57140  Biso   1.000  H
  H136     1.0000 0.04640  0.72450  0.53220  Biso   1.000  H
  H137     1.0000 0.22340  0.67820  0.58860  Biso   1.000  H
  H138     1.0000 0.11390  0.81160  0.54640  Biso   1.000  H
  H139     1.0000 0.24590  0.66430  0.53930  Biso   1.000  H
  H140     1.0000 0.30430  0.72810  0.50890  Biso   1.000  H
  C1       1.0000 0.64780  0.23590  0.85838  Biso   1.000  C
  C2       1.0000 0.57990  0.23250  0.85674  Biso   1.000  C
  C3       1.0000 0.54500  0.19300  0.87446  Biso   1.000  C
  C4       1.0000 0.58100  0.15560  0.89219  Biso   1.000  C
  C5       1.0000 0.65000  0.16030  0.89281  Biso   1.000  C
  C6       1.0000 0.47250  0.18930  0.87341  Biso   1.000  C
  C7       1.0000 0.43740  0.22130  0.89341  Biso   1.000  C
  C8       1.0000 0.36740  0.21920  0.89439  Biso   1.000  C
  C9       1.0000 0.33260  0.18350  0.87519  Biso   1.000  C
  C10      1.0000 0.36900  0.14850  0.85442  Biso   1.000  C
  C11      1.0000 0.43780  0.15080  0.85391  Biso   1.000  C
  C12      1.0000 0.47270  0.11520  0.83376  Biso   1.000  C
  C13      1.0000 0.43890  0.07990  0.81540  Biso   1.000  C
  C14      1.0000 0.36920  0.07870  0.81510  Biso   1.000  C
  C15      1.0000 0.33640  0.11130  0.83469  Biso   1.000  C
  C16      1.0000 0.25960  0.18110  0.87566  Biso   1.000  C
  C17      1.0000 0.22610  0.13860  0.89411  Biso   1.000  C
  C18      1.0000 0.26000  0.09920  0.91250  Biso   1.000  C
  C19      1.0000 0.23010  0.05670  0.92951  Biso   1.000  C
  C20      1.0000 0.16130  0.04980  0.92795  Biso   1.000  C
  C21      1.0000 0.12530  0.08740  0.91034  Biso   1.000  C
  C22      1.0000 0.15560  0.13370  0.89355  Biso   1.000  C
  C23      1.0000 0.12050  0.17490  0.87516  Biso   1.000  C
  C24      1.0000 0.15320  0.21450  0.85807  Biso   1.000  C
  C25      1.0000 0.22370  0.21650  0.85717  Biso   1.000  C
  C26      1.0000 0.94550  0.18660  0.85117  Biso   1.000  C
  C27      1.0000 0.01270  0.17710  0.85097  Biso   1.000  C
  C28      1.0000 0.04740  0.17900  0.87444  Biso   1.000  C
  C29      1.0000 0.01050  0.18660  0.89805  Biso   1.000  C
  C30      1.0000 0.94340  0.19630  0.89664  Biso   1.000  C
  C31      1.0000 0.60690  0.11420  0.03573  Biso   1.000  C
  C32      1.0000 0.57080  0.08870  0.05624  Biso   1.000  C
  C33      1.0000 0.54960  0.02550  0.05555  Biso   1.000  C
  C34      1.0000 0.56770  0.99330  0.03330  Biso   1.000  C
  C35      1.0000 0.60450  0.02110  0.01370  Biso   1.000  C
  C36      1.0000 0.50760  0.99620  0.07712  Biso   1.000  C
  C37      1.0000 0.53670  0.97260  0.10146  Biso   1.000  C
  C38      1.0000 0.60690  0.97310  0.10570  Biso   1.000  C
  C39      1.0000 0.63170  0.95230  0.12960  Biso   1.000  C
  C40      1.0000 0.58990  0.92530  0.15040  Biso   1.000  C
  C41      1.0000 0.52360  0.92610  0.14691  Biso   1.000  C
  C42      1.0000 0.49540  0.94820  0.12247  Biso   1.000  C
  C43      1.0000 0.42610  0.94520  0.11845  Biso   1.000  C
  C44      1.0000 0.40010  0.96680  0.09446  Biso   1.000  C
  C45      1.0000 0.44250  0.99290  0.07408  Biso   1.000  C
  C46      1.0000 0.38310  0.91660  0.13995  Biso   1.000  C
  C47      1.0000 0.35610  0.95670  0.16031  Biso   1.000  C
  C48      1.0000 0.36570  0.02650  0.15981  Biso   1.000  C
  C49      1.0000 0.34270  0.06730  0.17958  Biso   1.000  C
  C50      1.0000 0.30820  0.03850  0.20170  Biso   1.000  C
  C51      1.0000 0.29800  0.97170  0.20273  Biso   1.000  C
  C52      1.0000 0.31950  0.93000  0.18246  Biso   1.000  C
  C53      1.0000 0.30770  0.85950  0.18171  Biso   1.000  C
  C54      1.0000 0.33130  0.82240  0.16158  Biso   1.000  C
  C55      1.0000 0.37050  0.85020  0.14030  Biso   1.000  C
  C56      1.0000 0.16880  0.80920  0.22899  Biso   1.000  C
  C57      1.0000 0.20620  0.84660  0.21083  Biso   1.000  C
  C58      1.0000 0.26810  0.82700  0.20333  Biso   1.000  C
  C59      1.0000 0.29270  0.76920  0.21512  Biso   1.000  C
  C60      1.0000 0.25430  0.73440  0.23315  Biso   1.000  C
  C61      1.0000 0.35220  0.76410  0.35838  Biso   1.000  C
  C62      1.0000 0.42010  0.76750  0.35674  Biso   1.000  C
  C63      1.0000 0.45500  0.80700  0.37446  Biso   1.000  C
  C64      1.0000 0.41900  0.84440  0.39219  Biso   1.000  C
  C65      1.0000 0.35000  0.83970  0.39281  Biso   1.000  C
  C66      1.0000 0.52750  0.81070  0.37341  Biso   1.000  C
  C67      1.0000 0.56260  0.77870  0.39341  Biso   1.000  C
  C68      1.0000 0.63260  0.78080  0.39439  Biso   1.000  C
  C69      1.0000 0.66740  0.81650  0.37519  Biso   1.000  C
  C70      1.0000 0.63100  0.85150  0.35442  Biso   1.000  C
  C71      1.0000 0.56220  0.84920  0.35391  Biso   1.000  C
  C72      1.0000 0.52730  0.88480  0.33376  Biso   1.000  C
  C73      1.0000 0.56110  0.92010  0.31540  Biso   1.000  C
  C74      1.0000 0.63080  0.92130  0.31510  Biso   1.000  C
  C75      1.0000 0.66360  0.88870  0.33469  Biso   1.000  C
  C76      1.0000 0.74040  0.81890  0.37566  Biso   1.000  C
  C77      1.0000 0.77390  0.86140  0.39411  Biso   1.000  C
  C78      1.0000 0.74000  0.90080  0.41250  Biso   1.000  C
  C79      1.0000 0.76990  0.94330  0.42951  Biso   1.000  C
  C80      1.0000 0.83870  0.95020  0.42795  Biso   1.000  C
  C81      1.0000 0.87470  0.91260  0.41034  Biso   1.000  C
  C82      1.0000 0.84440  0.86630  0.39355  Biso   1.000  C
  C83      1.0000 0.87950  0.82510  0.37516  Biso   1.000  C
  C84      1.0000 0.84680  0.78550  0.35807  Biso   1.000  C
  C85      1.0000 0.77630  0.78350  0.35717  Biso   1.000  C
  C86      1.0000 0.05450  0.81340  0.35117  Biso   1.000  C
  C87      1.0000 0.98730  0.82290  0.35097  Biso   1.000  C
  C88      1.0000 0.95260  0.82100  0.37444  Biso   1.000  C
  C89      1.0000 0.98950  0.81340  0.39805  Biso   1.000  C
  C90      1.0000 0.05660  0.80370  0.39664  Biso   1.000  C
  C91      1.0000 0.39310  0.88580  0.53573  Biso   1.000  C
  C92      1.0000 0.42920  0.91130  0.55624  Biso   1.000  C
  C93      1.0000 0.45040  0.97450  0.55555  Biso   1.000  C
  C94      1.0000 0.43230  0.00670  0.53330  Biso   1.000  C
  C95      1.0000 0.39550  0.97890  0.51370  Biso   1.000  C
  C96      1.0000 0.49240  0.00380  0.57712  Biso   1.000  C
  C97      1.0000 0.46330  0.02740  0.60146  Biso   1.000  C
  C98      1.0000 0.39310  0.02690  0.60570  Biso   1.000  C
  C99      1.0000 0.36830  0.04770  0.62960  Biso   1.000  C
  C100     1.0000 0.41010  0.07470  0.65040  Biso   1.000  C
  C101     1.0000 0.47640  0.07390  0.64691  Biso   1.000  C
  C102     1.0000 0.50460  0.05180  0.62247  Biso   1.000  C
  C103     1.0000 0.57390  0.05480  0.61845  Biso   1.000  C
  C104     1.0000 0.59990  0.03320  0.59446  Biso   1.000  C
  C105     1.0000 0.55750  0.00710  0.57408  Biso   1.000  C
  C106     1.0000 0.61690  0.08340  0.63995  Biso   1.000  C
  C107     1.0000 0.64390  0.04330  0.66031  Biso   1.000  C
  C108     1.0000 0.63430  0.97350  0.65981  Biso   1.000  C
  C109     1.0000 0.65730  0.93270  0.67958  Biso   1.000  C
  C110     1.0000 0.69180  0.96150  0.70170  Biso   1.000  C
  C111     1.0000 0.70200  0.02830  0.70273  Biso   1.000  C
  C112     1.0000 0.68050  0.07000  0.68246  Biso   1.000  C
  C113     1.0000 0.69230  0.14050  0.68171  Biso   1.000  C
  C114     1.0000 0.66870  0.17760  0.66158  Biso   1.000  C
  C115     1.0000 0.62950  0.14980  0.64030  Biso   1.000  C
  C116     1.0000 0.83120  0.19080  0.72899  Biso   1.000  C
  C117     1.0000 0.79380  0.15340  0.71083  Biso   1.000  C
  C118     1.0000 0.73190  0.17300  0.70333  Biso   1.000  C
  C119     1.0000 0.70730  0.23080  0.71512  Biso   1.000  C
  C120     1.0000 0.74570  0.26560  0.73315  Biso   1.000  C
  C121     1.0000 0.23590  0.64780  0.39162  Biso   1.000  C
  C122     1.0000 0.23250  0.57990  0.39326  Biso   1.000  C
  C123     1.0000 0.19300  0.54500  0.37554  Biso   1.000  C
  C124     1.0000 0.15560  0.58100  0.35781  Biso   1.000  C
  C125     1.0000 0.16030  0.65000  0.35719  Biso   1.000  C
  C126     1.0000 0.18930  0.47250  0.37659  Biso   1.000  C
  C127     1.0000 0.22130  0.43740  0.35659  Biso   1.000  C
  C128     1.0000 0.21920  0.36740  0.35561  Biso   1.000  C
  C129     1.0000 0.18350  0.33260  0.37481  Biso   1.000  C
  C130     1.0000 0.14850  0.36900  0.39558  Biso   1.000  C
  C131     1.0000 0.15080  0.43780  0.39609  Biso   1.000  C
  C132     1.0000 0.11520  0.47270  0.41624  Biso   1.000  C
  C133     1.0000 0.07990  0.43890  0.43460  Biso   1.000  C
  C134     1.0000 0.07870  0.36920  0.43490  Biso   1.000  C
  C135     1.0000 0.11130  0.33640  0.41531  Biso   1.000  C
  C136     1.0000 0.18110  0.25960  0.37434  Biso   1.000  C
  C137     1.0000 0.13860  0.22610  0.35589  Biso   1.000  C
  C138     1.0000 0.09920  0.26000  0.33750  Biso   1.000  C
  C139     1.0000 0.05670  0.23010  0.32049  Biso   1.000  C
  C140     1.0000 0.04980  0.16130  0.32205  Biso   1.000  C
  C141     1.0000 0.08740  0.12530  0.33966  Biso   1.000  C
  C142     1.0000 0.13370  0.15560  0.35645  Biso   1.000  C
  C143     1.0000 0.17490  0.12050  0.37484  Biso   1.000  C
  C144     1.0000 0.21450  0.15320  0.39193  Biso   1.000  C
  C145     1.0000 0.21650  0.22370  0.39283  Biso   1.000  C
  C146     1.0000 0.18660  0.94550  0.39883  Biso   1.000  C
  C147     1.0000 0.17710  0.01270  0.39903  Biso   1.000  C
  C148     1.0000 0.17900  0.04740  0.37556  Biso   1.000  C
  C149     1.0000 0.18660  0.01050  0.35195  Biso   1.000  C
  C150     1.0000 0.19630  0.94340  0.35336  Biso   1.000  C
  C151     1.0000 0.11420  0.60690  0.21427  Biso   1.000  C
  C152     1.0000 0.08870  0.57080  0.19376  Biso   1.000  C
  C153     1.0000 0.02550  0.54960  0.19445  Biso   1.000  C
  C154     1.0000 0.99330  0.56770  0.21670  Biso   1.000  C
  C155     1.0000 0.02110  0.60450  0.23630  Biso   1.000  C
  C156     1.0000 0.99620  0.50760  0.17288  Biso   1.000  C
  C157     1.0000 0.97260  0.53670  0.14854  Biso   1.000  C
  C158     1.0000 0.97310  0.60690  0.14430  Biso   1.000  C
  C159     1.0000 0.95230  0.63170  0.12040  Biso   1.000  C
  C160     1.0000 0.92530  0.58990  0.09960  Biso   1.000  C
  C161     1.0000 0.92610  0.52360  0.10309  Biso   1.000  C
  C162     1.0000 0.94820  0.49540  0.12753  Biso   1.000  C
  C163     1.0000 0.94520  0.42610  0.13155  Biso   1.000  C
  C164     1.0000 0.96680  0.40010  0.15554  Biso   1.000  C
  C165     1.0000 0.99290  0.44250  0.17592  Biso   1.000  C
  C166     1.0000 0.91660  0.38310  0.11005  Biso   1.000  C
  C167     1.0000 0.95670  0.35610  0.08969  Biso   1.000  C
  C168     1.0000 0.02650  0.36570  0.09019  Biso   1.000  C
  C169     1.0000 0.06730  0.34270  0.07042  Biso   1.000  C
  C170     1.0000 0.03850  0.30820  0.04830  Biso   1.000  C
  C171     1.0000 0.97170  0.29800  0.04727  Biso   1.000  C
  C172     1.0000 0.93000  0.31950  0.06754  Biso   1.000  C
  C173     1.0000 0.85950  0.30770  0.06829  Biso   1.000  C
  C174     1.0000 0.82240  0.33130  0.08842  Biso   1.000  C
  C175     1.0000 0.85020  0.37050  0.10970  Biso   1.000  C
  C176     1.0000 0.80920  0.16880  0.02101  Biso   1.000  C
  C177     1.0000 0.84660  0.20620  0.03917  Biso   1.000  C
  C178     1.0000 0.82700  0.26810  0.04667  Biso   1.000  C
  C179     1.0000 0.76920  0.29270  0.03488  Biso   1.000  C
  C180     1.0000 0.73440  0.25430  0.01685  Biso   1.000  C
  C181     1.0000 0.76410  0.35220  0.89162  Biso   1.000  C
  C182     1.0000 0.76750  0.42010  0.89326  Biso   1.000  C
  C183     1.0000 0.80700  0.45500  0.87554  Biso   1.000  C
  C184     1.0000 0.84440  0.41900  0.85781  Biso   1.000  C
  C185     1.0000 0.83970  0.35000  0.85719  Biso   1.000  C
  C186     1.0000 0.81070  0.52750  0.87659  Biso   1.000  C
  C187     1.0000 0.77870  0.56260  0.85659  Biso   1.000  C
  C188     1.0000 0.78080  0.63260  0.85561  Biso   1.000  C
  C189     1.0000 0.81650  0.66740  0.87481  Biso   1.000  C
  C190     1.0000 0.85150  0.63100  0.89558  Biso   1.000  C
  C191     1.0000 0.84920  0.56220  0.89609  Biso   1.000  C
  C192     1.0000 0.88480  0.52730  0.91624  Biso   1.000  C
  C193     1.0000 0.92010  0.56110  0.93460  Biso   1.000  C
  C194     1.0000 0.92130  0.63080  0.93490  Biso   1.000  C
  C195     1.0000 0.88870  0.66360  0.91531  Biso   1.000  C
  C196     1.0000 0.81890  0.74040  0.87434  Biso   1.000  C
  C197     1.0000 0.86140  0.77390  0.85589  Biso   1.000  C
  C198     1.0000 0.90080  0.74000  0.83750  Biso   1.000  C
  C199     1.0000 0.94330  0.76990  0.82049  Biso   1.000  C
  C200     1.0000 0.95020  0.83870  0.82205  Biso   1.000  C
  C201     1.0000 0.91260  0.87470  0.83966  Biso   1.000  C
  C202     1.0000 0.86630  0.84440  0.85645  Biso   1.000  C
  C203     1.0000 0.82510  0.87950  0.87484  Biso   1.000  C
  C204     1.0000 0.78550  0.84680  0.89193  Biso   1.000  C
  C205     1.0000 0.78350  0.77630  0.89283  Biso   1.000  C
  C206     1.0000 0.81340  0.05450  0.89883  Biso   1.000  C
  C207     1.0000 0.82290  0.98730  0.89903  Biso   1.000  C
  C208     1.0000 0.82100  0.95260  0.87556  Biso   1.000  C
  C209     1.0000 0.81340  0.98950  0.85195  Biso   1.000  C
  C210     1.0000 0.80370  0.05660  0.85336  Biso   1.000  C
  C211     1.0000 0.88580  0.39310  0.71427  Biso   1.000  C
  C212     1.0000 0.91130  0.42920  0.69376  Biso   1.000  C
  C213     1.0000 0.97450  0.45040  0.69445  Biso   1.000  C
  C214     1.0000 0.00670  0.43230  0.71670  Biso   1.000  C
  C215     1.0000 0.97890  0.39550  0.73630  Biso   1.000  C
  C216     1.0000 0.00380  0.49240  0.67288  Biso   1.000  C
  C217     1.0000 0.02740  0.46330  0.64854  Biso   1.000  C
  C218     1.0000 0.02690  0.39310  0.64430  Biso   1.000  C
  C219     1.0000 0.04770  0.36830  0.62040  Biso   1.000  C
  C220     1.0000 0.07470  0.41010  0.59960  Biso   1.000  C
  C221     1.0000 0.07390  0.47640  0.60309  Biso   1.000  C
  C222     1.0000 0.05180  0.50460  0.62753  Biso   1.000  C
  C223     1.0000 0.05480  0.57390  0.63155  Biso   1.000  C
  C224     1.0000 0.03320  0.59990  0.65554  Biso   1.000  C
  C225     1.0000 0.00710  0.55750  0.67592  Biso   1.000  C
  C226     1.0000 0.08340  0.61690  0.61005  Biso   1.000  C
  C227     1.0000 0.04330  0.64390  0.58969  Biso   1.000  C
  C228     1.0000 0.97350  0.63430  0.59019  Biso   1.000  C
  C229     1.0000 0.93270  0.65730  0.57042  Biso   1.000  C
  C230     1.0000 0.96150  0.69180  0.54830  Biso   1.000  C
  C231     1.0000 0.02830  0.70200  0.54727  Biso   1.000  C
  C232     1.0000 0.07000  0.68050  0.56754  Biso   1.000  C
  C233     1.0000 0.14050  0.69230  0.56829  Biso   1.000  C
  C234     1.0000 0.17760  0.66870  0.58842  Biso   1.000  C
  C235     1.0000 0.14980  0.62950  0.60970  Biso   1.000  C
  C236     1.0000 0.19080  0.83120  0.52101  Biso   1.000  C
  C237     1.0000 0.15340  0.79380  0.53917  Biso   1.000  C
  C238     1.0000 0.17300  0.73190  0.54667  Biso   1.000  C
  C239     1.0000 0.23080  0.70730  0.53488  Biso   1.000  C
  C240     1.0000 0.26560  0.74570  0.51685  Biso   1.000  C
  N1       1.0000 0.68317  0.20110  0.87681  Biso   1.000  N
  N2       1.0000 0.91070  0.19710  0.87336  Biso   1.000  N
  N3       1.0000 0.62580  0.08100  0.01503  Biso   1.000  N
  N4       1.0000 0.19270  0.75350  0.23980  Biso   1.000  N
  N5       1.0000 0.57530  0.19240  0.96420  Biso   1.000  N
  N6       1.0000 0.76780  0.20530  0.94015  Biso   1.000  N
  N7       1.0000 0.31683  0.79890  0.37681  Biso   1.000  N
  N8       1.0000 0.08930  0.80290  0.37336  Biso   1.000  N
  N9       1.0000 0.37420  0.91900  0.51503  Biso   1.000  N
  N10      1.0000 0.80730  0.24650  0.73980  Biso   1.000  N
  N11      1.0000 0.42470  0.80760  0.46420  Biso   1.000  N
  N12      1.0000 0.23220  0.79470  0.44015  Biso   1.000  N
  N13      1.0000 0.20110  0.68317  0.37319  Biso   1.000  N
  N14      1.0000 0.19710  0.91070  0.37664  Biso   1.000  N
  N15      1.0000 0.08100  0.62580  0.23497  Biso   1.000  N
  N16      1.0000 0.75350  0.19270  0.01020  Biso   1.000  N
  N17      1.0000 0.19240  0.57530  0.28580  Biso   1.000  N
  N18      1.0000 0.20530  0.76780  0.30985  Biso   1.000  N
  N19      1.0000 0.79890  0.31683  0.87319  Biso   1.000  N
  N20      1.0000 0.80290  0.08930  0.87664  Biso   1.000  N
  N21      1.0000 0.91900  0.37420  0.73497  Biso   1.000  N
  N22      1.0000 0.24650  0.80730  0.51020  Biso   1.000  N
  N23      1.0000 0.80760  0.42470  0.78580  Biso   1.000  N
  N24      1.0000 0.79470  0.23220  0.80985  Biso   1.000  N
  Cl1      1.0000 0.48055  0.03580  0.79037  Biso   1.000  Cl
  Cl2      1.0000 0.12222  0.99512  0.94962  Biso   1.000  Cl
  Cl3      1.0000 0.71620  0.95420  0.13516  Biso   1.000  Cl
  Cl4      1.0000 0.27904  0.09081  0.22659  Biso   1.000  Cl
  Cl5      1.0000 0.51945  0.96420  0.29037  Biso   1.000  Cl
  Cl6      1.0000 0.87778  0.00488  0.44962  Biso   1.000  Cl
  Cl7      1.0000 0.28380  0.04580  0.63516  Biso   1.000  Cl
  Cl8      1.0000 0.72096  0.90919  0.72659  Biso   1.000  Cl
  Cl9      1.0000 0.03580  0.48055  0.45963  Biso   1.000  Cl
  Cl10     1.0000 0.99512  0.12222  0.30038  Biso   1.000  Cl
  Cl11     1.0000 0.95420  0.71620  0.11484  Biso   1.000  Cl
  Cl12     1.0000 0.09081  0.27904  0.02341  Biso   1.000  Cl
  Cl13     1.0000 0.96420  0.51945  0.95963  Biso   1.000  Cl
  Cl14     1.0000 0.00488  0.87778  0.80038  Biso   1.000  Cl
  Cl15     1.0000 0.04580  0.28380  0.61484  Biso   1.000  Cl
  Cl16     1.0000 0.90919  0.72096  0.52341  Biso   1.000  Cl
  O1       1.0000 0.33350  0.25040  0.91377  Biso   1.000  O
  O2       1.0000 0.25670  0.25670  0.84060  Biso   1.000  O
  O3       1.0000 0.33330  0.96380  0.09053  Biso   1.000  O
  O4       1.0000 0.39560  0.81100  0.12103  Biso   1.000  O
  O5       1.0000 0.52560  0.21810  0.95409  Biso   1.000  O
  O6       1.0000 0.59890  0.14120  0.95481  Biso   1.000  O
  O7       1.0000 0.60410  0.22010  0.98365  Biso   1.000  O
  O8       1.0000 0.72740  0.24570  0.94939  Biso   1.000  O
  O9       1.0000 0.76410  0.14980  0.94750  Biso   1.000  O
  O10      1.0000 0.80470  0.22470  0.92153  Biso   1.000  O
  O11      1.0000 0.66650  0.74960  0.41377  Biso   1.000  O
  O12      1.0000 0.74330  0.74330  0.34060  Biso   1.000  O
  O13      1.0000 0.66670  0.03620  0.59053  Biso   1.000  O
  O14      1.0000 0.60440  0.18900  0.62103  Biso   1.000  O
  O15      1.0000 0.47440  0.78190  0.45409  Biso   1.000  O
  O16      1.0000 0.40110  0.85880  0.45481  Biso   1.000  O
  O17      1.0000 0.39590  0.77990  0.48365  Biso   1.000  O
  O18      1.0000 0.27260  0.75430  0.44939  Biso   1.000  O
  O19      1.0000 0.23590  0.85020  0.44750  Biso   1.000  O
  O20      1.0000 0.19530  0.77530  0.42153  Biso   1.000  O
  O21      1.0000 0.25040  0.33350  0.33623  Biso   1.000  O
  O22      1.0000 0.25670  0.25670  0.40940  Biso   1.000  O
  O23      1.0000 0.96380  0.33330  0.15947  Biso   1.000  O
  O24      1.0000 0.81100  0.39560  0.12897  Biso   1.000  O
  O25      1.0000 0.21810  0.52560  0.29591  Biso   1.000  O
  O26      1.0000 0.14120  0.59890  0.29519  Biso   1.000  O
  O27      1.0000 0.22010  0.60410  0.26635  Biso   1.000  O
  O28      1.0000 0.24570  0.72740  0.30061  Biso   1.000  O
  O29      1.0000 0.14980  0.76410  0.30250  Biso   1.000  O
  O30      1.0000 0.22470  0.80470  0.32847  Biso   1.000  O
  O31      1.0000 0.74960  0.66650  0.83623  Biso   1.000  O
  O32      1.0000 0.74330  0.74330  0.90940  Biso   1.000  O
  O33      1.0000 0.03620  0.66670  0.65947  Biso   1.000  O
  O34      1.0000 0.18900  0.60440  0.62897  Biso   1.000  O
  O35      1.0000 0.78190  0.47440  0.79591  Biso   1.000  O
  O36      1.0000 0.85880  0.40110  0.79519  Biso   1.000  O
  O37      1.0000 0.77990  0.39590  0.76635  Biso   1.000  O
  O38      1.0000 0.75430  0.27260  0.80061  Biso   1.000  O
  O39      1.0000 0.85020  0.23590  0.80250  Biso   1.000  O
  O40      1.0000 0.77530  0.19530  0.82847  Biso   1.000  O
  Cd7      1.0000 0.87050  0.69109  0.73190  Biso   1.000  Cd
  Cd8      1.0000 0.12950  0.30891  0.23190  Biso   1.000  Cd
  Cd9      1.0000 0.30891  0.12950  0.01810  Biso   1.000  Cd
  Cd10     1.0000 0.69109  0.87050  0.51810  Biso   1.000  Cd
  Cd11     1.0000 0.79681  0.79681  0.62500  Biso   1.000  Cd
  Cd12     1.0000 0.20319  0.20319  0.12500  Biso   1.000  Cd
  H141     1.0000 0.75550  0.29300  0.66140  Biso   1.000  H
  H142     1.0000 0.74880  0.29740  0.59270  Biso   1.000  H
  H143     1.0000 0.01810  0.32370  0.82580  Biso   1.000  H
  H144     1.0000 0.16600  0.41570  0.85960  Biso   1.000  H
  H145     1.0000 0.73640  0.67070  0.59610  Biso   1.000  H
  H146     1.0000 0.74270  0.55720  0.59350  Biso   1.000  H
  H147     1.0000 0.87370  0.55910  0.65410  Biso   1.000  H
  H148     1.0000 0.86660  0.67390  0.65510  Biso   1.000  H
  H149     1.0000 0.75470  0.46060  0.65680  Biso   1.000  H
  H150     1.0000 0.88370  0.51940  0.58330  Biso   1.000  H
  H151     1.0000 0.94450  0.34610  0.55140  Biso   1.000  H
  H152     1.0000 0.89100  0.28960  0.58510  Biso   1.000  H
  H153     1.0000 0.89760  0.30670  0.66310  Biso   1.000  H
  H154     1.0000 0.96790  0.25490  0.69220  Biso   1.000  H
  H155     1.0000 0.91810  0.07890  0.65950  Biso   1.000  H
  H156     1.0000 0.75790  0.12880  0.59630  Biso   1.000  H
  H157     1.0000 0.81460  0.92280  0.58440  Biso   1.000  H
  H158     1.0000 0.83070  0.03490  0.58440  Biso   1.000  H
  H159     1.0000 0.81490  0.03170  0.66510  Biso   1.000  H
  H160     1.0000 0.79740  0.91950  0.66290  Biso   1.000  H
  H161     1.0000 0.84060  0.61890  0.78670  Biso   1.000  H
  H162     1.0000 0.88440  0.56030  0.82130  Biso   1.000  H
  H163     1.0000 0.05110  0.55400  0.78110  Biso   1.000  H
  H164     1.0000 0.00440  0.61520  0.74830  Biso   1.000  H
  H165     1.0000 0.01220  0.63560  0.84180  Biso   1.000  H
  H166     1.0000 0.09270  0.60850  0.91630  Biso   1.000  H
  H167     1.0000 0.08840  0.49570  0.91110  Biso   1.000  H
  H168     1.0000 0.99160  0.42350  0.80780  Biso   1.000  H
  H169     1.0000 0.95470  0.38900  0.89510  Biso   1.000  H
  H170     1.0000 0.88640  0.34940  0.92860  Biso   1.000  H
  H171     1.0000 0.04640  0.27550  0.96780  Biso   1.000  H
  H172     1.0000 0.22340  0.32180  0.91140  Biso   1.000  H
  H173     1.0000 0.11390  0.18840  0.95360  Biso   1.000  H
  H174     1.0000 0.24590  0.33570  0.96070  Biso   1.000  H
  H175     1.0000 0.30430  0.27190  0.99110  Biso   1.000  H
  H176     1.0000 0.24450  0.70700  0.16140  Biso   1.000  H
  H177     1.0000 0.25120  0.70260  0.09270  Biso   1.000  H
  H178     1.0000 0.98190  0.67630  0.32580  Biso   1.000  H
  H179     1.0000 0.83400  0.58430  0.35960  Biso   1.000  H
  H180     1.0000 0.26360  0.32930  0.09610  Biso   1.000  H
  H181     1.0000 0.25730  0.44280  0.09350  Biso   1.000  H
  H182     1.0000 0.12630  0.44090  0.15410  Biso   1.000  H
  H183     1.0000 0.13340  0.32610  0.15510  Biso   1.000  H
  H184     1.0000 0.24530  0.53940  0.15680  Biso   1.000  H
  H185     1.0000 0.11630  0.48060  0.08330  Biso   1.000  H
  H186     1.0000 0.05550  0.65390  0.05140  Biso   1.000  H
  H187     1.0000 0.10900  0.71040  0.08510  Biso   1.000  H
  H188     1.0000 0.10240  0.69330  0.16310  Biso   1.000  H
  H189     1.0000 0.03210  0.74510  0.19220  Biso   1.000  H
  H190     1.0000 0.08190  0.92110  0.15950  Biso   1.000  H
  H191     1.0000 0.24210  0.87120  0.09630  Biso   1.000  H
  H192     1.0000 0.18540  0.07720  0.08440  Biso   1.000  H
  H193     1.0000 0.16930  0.96510  0.08440  Biso   1.000  H
  H194     1.0000 0.18510  0.96830  0.16510  Biso   1.000  H
  H195     1.0000 0.20260  0.08050  0.16290  Biso   1.000  H
  H196     1.0000 0.15940  0.38110  0.28670  Biso   1.000  H
  H197     1.0000 0.11560  0.43970  0.32130  Biso   1.000  H
  H198     1.0000 0.94890  0.44600  0.28110  Biso   1.000  H
  H199     1.0000 0.99560  0.38480  0.24830  Biso   1.000  H
  H200     1.0000 0.98780  0.36440  0.34180  Biso   1.000  H
  H201     1.0000 0.90730  0.39150  0.41630  Biso   1.000  H
  H202     1.0000 0.91160  0.50430  0.41110  Biso   1.000  H
  H203     1.0000 0.00840  0.57650  0.30780  Biso   1.000  H
  H204     1.0000 0.04530  0.61100  0.39510  Biso   1.000  H
  H205     1.0000 0.11360  0.65060  0.42860  Biso   1.000  H
  H206     1.0000 0.95360  0.72450  0.46780  Biso   1.000  H
  H207     1.0000 0.77660  0.67820  0.41140  Biso   1.000  H
  H208     1.0000 0.88610  0.81160  0.45360  Biso   1.000  H
  H209     1.0000 0.75410  0.66430  0.46070  Biso   1.000  H
  H210     1.0000 0.69570  0.72810  0.49110  Biso   1.000  H
  H211     1.0000 0.70700  0.24450  0.08860  Biso   1.000  H
  H212     1.0000 0.70260  0.25120  0.15730  Biso   1.000  H
  H213     1.0000 0.67630  0.98190  0.92420  Biso   1.000  H
  H214     1.0000 0.58430  0.83400  0.89040  Biso   1.000  H
  H215     1.0000 0.32930  0.26360  0.15390  Biso   1.000  H
  H216     1.0000 0.44280  0.25730  0.15650  Biso   1.000  H
  H217     1.0000 0.44090  0.12630  0.09590  Biso   1.000  H
  H218     1.0000 0.32610  0.13340  0.09490  Biso   1.000  H
  H219     1.0000 0.53940  0.24530  0.09320  Biso   1.000  H
  H220     1.0000 0.48060  0.11630  0.16670  Biso   1.000  H
  H221     1.0000 0.65390  0.05550  0.19860  Biso   1.000  H
  H222     1.0000 0.71040  0.10900  0.16490  Biso   1.000  H
  H223     1.0000 0.69330  0.10240  0.08690  Biso   1.000  H
  H224     1.0000 0.74510  0.03210  0.05780  Biso   1.000  H
  H225     1.0000 0.92110  0.08190  0.09050  Biso   1.000  H
  H226     1.0000 0.87120  0.24210  0.15370  Biso   1.000  H
  H227     1.0000 0.07720  0.18540  0.16560  Biso   1.000  H
  H228     1.0000 0.96510  0.16930  0.16560  Biso   1.000  H
  H229     1.0000 0.96830  0.18510  0.08490  Biso   1.000  H
  H230     1.0000 0.08050  0.20260  0.08710  Biso   1.000  H
  H231     1.0000 0.38110  0.15940  0.96330  Biso   1.000  H
  H232     1.0000 0.43970  0.11560  0.92870  Biso   1.000  H
  H233     1.0000 0.44600  0.94890  0.96890  Biso   1.000  H
  H234     1.0000 0.38480  0.99560  0.00170  Biso   1.000  H
  H235     1.0000 0.36440  0.98780  0.90820  Biso   1.000  H
  H236     1.0000 0.39150  0.90730  0.83370  Biso   1.000  H
  H237     1.0000 0.50430  0.91160  0.83890  Biso   1.000  H
  H238     1.0000 0.57650  0.00840  0.94220  Biso   1.000  H
  H239     1.0000 0.61100  0.04530  0.85490  Biso   1.000  H
  H240     1.0000 0.65060  0.11360  0.82140  Biso   1.000  H
  H241     1.0000 0.72450  0.95360  0.78220  Biso   1.000  H
  H242     1.0000 0.67820  0.77660  0.83860  Biso   1.000  H
  H243     1.0000 0.81160  0.88610  0.79640  Biso   1.000  H
  H244     1.0000 0.66430  0.75410  0.78930  Biso   1.000  H
  H245     1.0000 0.72810  0.69570  0.75890  Biso   1.000  H
  H246     1.0000 0.29300  0.75550  0.58860  Biso   1.000  H
  H247     1.0000 0.29740  0.74880  0.65730  Biso   1.000  H
  H248     1.0000 0.32370  0.01810  0.42420  Biso   1.000  H
  H249     1.0000 0.41570  0.16600  0.39040  Biso   1.000  H
  H250     1.0000 0.67070  0.73640  0.65390  Biso   1.000  H
  H251     1.0000 0.55720  0.74270  0.65650  Biso   1.000  H
  H252     1.0000 0.55910  0.87370  0.59590  Biso   1.000  H
  H253     1.0000 0.67390  0.86660  0.59490  Biso   1.000  H
  H254     1.0000 0.46060  0.75470  0.59320  Biso   1.000  H
  H255     1.0000 0.51940  0.88370  0.66670  Biso   1.000  H
  H256     1.0000 0.34610  0.94450  0.69860  Biso   1.000  H
  H257     1.0000 0.28960  0.89100  0.66490  Biso   1.000  H
  H258     1.0000 0.30670  0.89760  0.58690  Biso   1.000  H
  H259     1.0000 0.25490  0.96790  0.55780  Biso   1.000  H
  H260     1.0000 0.07890  0.91810  0.59050  Biso   1.000  H
  H261     1.0000 0.12880  0.75790  0.65370  Biso   1.000  H
  H262     1.0000 0.92280  0.81460  0.66560  Biso   1.000  H
  H263     1.0000 0.03490  0.83070  0.66560  Biso   1.000  H
  H264     1.0000 0.03170  0.81490  0.58490  Biso   1.000  H
  H265     1.0000 0.91950  0.79740  0.58710  Biso   1.000  H
  H266     1.0000 0.61890  0.84060  0.46330  Biso   1.000  H
  H267     1.0000 0.56030  0.88440  0.42870  Biso   1.000  H
  H268     1.0000 0.55400  0.05110  0.46890  Biso   1.000  H
  H269     1.0000 0.61520  0.00440  0.50170  Biso   1.000  H
  H270     1.0000 0.63560  0.01220  0.40820  Biso   1.000  H
  H271     1.0000 0.60850  0.09270  0.33370  Biso   1.000  H
  H272     1.0000 0.49570  0.08840  0.33890  Biso   1.000  H
  H273     1.0000 0.42350  0.99160  0.44220  Biso   1.000  H
  H274     1.0000 0.38900  0.95470  0.35490  Biso   1.000  H
  H275     1.0000 0.34940  0.88640  0.32140  Biso   1.000  H
  H276     1.0000 0.27550  0.04640  0.28220  Biso   1.000  H
  H277     1.0000 0.32180  0.22340  0.33860  Biso   1.000  H
  H278     1.0000 0.18840  0.11390  0.29640  Biso   1.000  H
  H279     1.0000 0.33570  0.24590  0.28930  Biso   1.000  H
  H280     1.0000 0.27190  0.30430  0.25890  Biso   1.000  H
  C241     1.0000 0.76410  0.64780  0.60838  Biso   1.000  C
  C242     1.0000 0.76750  0.57990  0.60674  Biso   1.000  C
  C243     1.0000 0.80700  0.54500  0.62446  Biso   1.000  C
  C244     1.0000 0.84440  0.58100  0.64219  Biso   1.000  C
  C245     1.0000 0.83970  0.65000  0.64281  Biso   1.000  C
  C246     1.0000 0.81070  0.47250  0.62341  Biso   1.000  C
  C247     1.0000 0.77870  0.43740  0.64341  Biso   1.000  C
  C248     1.0000 0.78080  0.36740  0.64439  Biso   1.000  C
  C249     1.0000 0.81650  0.33260  0.62519  Biso   1.000  C
  C250     1.0000 0.85150  0.36900  0.60442  Biso   1.000  C
  C251     1.0000 0.84920  0.43780  0.60391  Biso   1.000  C
  C252     1.0000 0.88480  0.47270  0.58376  Biso   1.000  C
  C253     1.0000 0.92010  0.43890  0.56540  Biso   1.000  C
  C254     1.0000 0.92130  0.36920  0.56510  Biso   1.000  C
  C255     1.0000 0.88870  0.33640  0.58469  Biso   1.000  C
  C256     1.0000 0.81890  0.25960  0.62566  Biso   1.000  C
  C257     1.0000 0.86140  0.22610  0.64411  Biso   1.000  C
  C258     1.0000 0.90080  0.26000  0.66250  Biso   1.000  C
  C259     1.0000 0.94330  0.23010  0.67951  Biso   1.000  C
  C260     1.0000 0.95020  0.16130  0.67795  Biso   1.000  C
  C261     1.0000 0.91260  0.12530  0.66034  Biso   1.000  C
  C262     1.0000 0.86630  0.15560  0.64355  Biso   1.000  C
  C263     1.0000 0.82510  0.12050  0.62516  Biso   1.000  C
  C264     1.0000 0.78550  0.15320  0.60807  Biso   1.000  C
  C265     1.0000 0.78350  0.22370  0.60717  Biso   1.000  C
  C266     1.0000 0.81340  0.94550  0.60117  Biso   1.000  C
  C267     1.0000 0.82290  0.01270  0.60097  Biso   1.000  C
  C268     1.0000 0.82100  0.04740  0.62444  Biso   1.000  C
  C269     1.0000 0.81340  0.01050  0.64805  Biso   1.000  C
  C270     1.0000 0.80370  0.94340  0.64664  Biso   1.000  C
  C271     1.0000 0.88580  0.60690  0.78573  Biso   1.000  C
  C272     1.0000 0.91130  0.57080  0.80624  Biso   1.000  C
  C273     1.0000 0.97450  0.54960  0.80555  Biso   1.000  C
  C274     1.0000 0.00670  0.56770  0.78330  Biso   1.000  C
  C275     1.0000 0.97890  0.60450  0.76370  Biso   1.000  C
  C276     1.0000 0.00380  0.50760  0.82712  Biso   1.000  C
  C277     1.0000 0.02740  0.53670  0.85146  Biso   1.000  C
  C278     1.0000 0.02690  0.60690  0.85570  Biso   1.000  C
  C279     1.0000 0.04770  0.63170  0.87960  Biso   1.000  C
  C280     1.0000 0.07470  0.58990  0.90040  Biso   1.000  C
  C281     1.0000 0.07390  0.52360  0.89691  Biso   1.000  C
  C282     1.0000 0.05180  0.49540  0.87247  Biso   1.000  C
  C283     1.0000 0.05480  0.42610  0.86845  Biso   1.000  C
  C284     1.0000 0.03320  0.40010  0.84446  Biso   1.000  C
  C285     1.0000 0.00710  0.44250  0.82408  Biso   1.000  C
  C286     1.0000 0.08340  0.38310  0.88995  Biso   1.000  C
  C287     1.0000 0.04330  0.35610  0.91031  Biso   1.000  C
  C288     1.0000 0.97350  0.36570  0.90981  Biso   1.000  C
  C289     1.0000 0.93270  0.34270  0.92958  Biso   1.000  C
  C290     1.0000 0.96150  0.30820  0.95170  Biso   1.000  C
  C291     1.0000 0.02830  0.29800  0.95273  Biso   1.000  C
  C292     1.0000 0.07000  0.31950  0.93246  Biso   1.000  C
  C293     1.0000 0.14050  0.30770  0.93171  Biso   1.000  C
  C294     1.0000 0.17760  0.33130  0.91158  Biso   1.000  C
  C295     1.0000 0.14980  0.37050  0.89030  Biso   1.000  C
  C296     1.0000 0.19080  0.16880  0.97899  Biso   1.000  C
  C297     1.0000 0.15340  0.20620  0.96083  Biso   1.000  C
  C298     1.0000 0.17300  0.26810  0.95333  Biso   1.000  C
  C299     1.0000 0.23080  0.29270  0.96512  Biso   1.000  C
  C300     1.0000 0.26560  0.25430  0.98315  Biso   1.000  C
  C301     1.0000 0.23590  0.35220  0.10838  Biso   1.000  C
  C302     1.0000 0.23250  0.42010  0.10674  Biso   1.000  C
  C303     1.0000 0.19300  0.45500  0.12446  Biso   1.000  C
  C304     1.0000 0.15560  0.41900  0.14219  Biso   1.000  C
  C305     1.0000 0.16030  0.35000  0.14281  Biso   1.000  C
  C306     1.0000 0.18930  0.52750  0.12341  Biso   1.000  C
  C307     1.0000 0.22130  0.56260  0.14341  Biso   1.000  C
  C308     1.0000 0.21920  0.63260  0.14439  Biso   1.000  C
  C309     1.0000 0.18350  0.66740  0.12519  Biso   1.000  C
  C310     1.0000 0.14850  0.63100  0.10442  Biso   1.000  C
  C311     1.0000 0.15080  0.56220  0.10391  Biso   1.000  C
  C312     1.0000 0.11520  0.52730  0.08376  Biso   1.000  C
  C313     1.0000 0.07990  0.56110  0.06540  Biso   1.000  C
  C314     1.0000 0.07870  0.63080  0.06510  Biso   1.000  C
  C315     1.0000 0.11130  0.66360  0.08469  Biso   1.000  C
  C316     1.0000 0.18110  0.74040  0.12566  Biso   1.000  C
  C317     1.0000 0.13860  0.77390  0.14411  Biso   1.000  C
  C318     1.0000 0.09920  0.74000  0.16250  Biso   1.000  C
  C319     1.0000 0.05670  0.76990  0.17951  Biso   1.000  C
  C320     1.0000 0.04980  0.83870  0.17795  Biso   1.000  C
  C321     1.0000 0.08740  0.87470  0.16034  Biso   1.000  C
  C322     1.0000 0.13370  0.84440  0.14355  Biso   1.000  C
  C323     1.0000 0.17490  0.87950  0.12516  Biso   1.000  C
  C324     1.0000 0.21450  0.84680  0.10807  Biso   1.000  C
  C325     1.0000 0.21650  0.77630  0.10717  Biso   1.000  C
  C326     1.0000 0.18660  0.05450  0.10117  Biso   1.000  C
  C327     1.0000 0.17710  0.98730  0.10097  Biso   1.000  C
  C328     1.0000 0.17900  0.95260  0.12444  Biso   1.000  C
  C329     1.0000 0.18660  0.98950  0.14805  Biso   1.000  C
  C330     1.0000 0.19630  0.05660  0.14664  Biso   1.000  C
  C331     1.0000 0.11420  0.39310  0.28573  Biso   1.000  C
  C332     1.0000 0.08870  0.42920  0.30624  Biso   1.000  C
  C333     1.0000 0.02550  0.45040  0.30555  Biso   1.000  C
  C334     1.0000 0.99330  0.43230  0.28330  Biso   1.000  C
  C335     1.0000 0.02110  0.39550  0.26370  Biso   1.000  C
  C336     1.0000 0.99620  0.49240  0.32712  Biso   1.000  C
  C337     1.0000 0.97260  0.46330  0.35146  Biso   1.000  C
  C338     1.0000 0.97310  0.39310  0.35570  Biso   1.000  C
  C339     1.0000 0.95230  0.36830  0.37960  Biso   1.000  C
  C340     1.0000 0.92530  0.41010  0.40040  Biso   1.000  C
  C341     1.0000 0.92610  0.47640  0.39691  Biso   1.000  C
  C342     1.0000 0.94820  0.50460  0.37247  Biso   1.000  C
  C343     1.0000 0.94520  0.57390  0.36845  Biso   1.000  C
  C344     1.0000 0.96680  0.59990  0.34446  Biso   1.000  C
  C345     1.0000 0.99290  0.55750  0.32408  Biso   1.000  C
  C346     1.0000 0.91660  0.61690  0.38995  Biso   1.000  C
  C347     1.0000 0.95670  0.64390  0.41031  Biso   1.000  C
  C348     1.0000 0.02650  0.63430  0.40981  Biso   1.000  C
  C349     1.0000 0.06730  0.65730  0.42958  Biso   1.000  C
  C350     1.0000 0.03850  0.69180  0.45170  Biso   1.000  C
  C351     1.0000 0.97170  0.70200  0.45273  Biso   1.000  C
  C352     1.0000 0.93000  0.68050  0.43246  Biso   1.000  C
  C353     1.0000 0.85950  0.69230  0.43171  Biso   1.000  C
  C354     1.0000 0.82240  0.66870  0.41158  Biso   1.000  C
  C355     1.0000 0.85020  0.62950  0.39030  Biso   1.000  C
  C356     1.0000 0.80920  0.83120  0.47899  Biso   1.000  C
  C357     1.0000 0.84660  0.79380  0.46083  Biso   1.000  C
  C358     1.0000 0.82700  0.73190  0.45333  Biso   1.000  C
  C359     1.0000 0.76920  0.70730  0.46512  Biso   1.000  C
  C360     1.0000 0.73440  0.74570  0.48315  Biso   1.000  C
  C361     1.0000 0.35220  0.23590  0.14162  Biso   1.000  C
  C362     1.0000 0.42010  0.23250  0.14326  Biso   1.000  C
  C363     1.0000 0.45500  0.19300  0.12554  Biso   1.000  C
  C364     1.0000 0.41900  0.15560  0.10781  Biso   1.000  C
  C365     1.0000 0.35000  0.16030  0.10719  Biso   1.000  C
  C366     1.0000 0.52750  0.18930  0.12659  Biso   1.000  C
  C367     1.0000 0.56260  0.22130  0.10659  Biso   1.000  C
  C368     1.0000 0.63260  0.21920  0.10561  Biso   1.000  C
  C369     1.0000 0.66740  0.18350  0.12481  Biso   1.000  C
  C370     1.0000 0.63100  0.14850  0.14558  Biso   1.000  C
  C371     1.0000 0.56220  0.15080  0.14609  Biso   1.000  C
  C372     1.0000 0.52730  0.11520  0.16624  Biso   1.000  C
  C373     1.0000 0.56110  0.07990  0.18460  Biso   1.000  C
  C374     1.0000 0.63080  0.07870  0.18490  Biso   1.000  C
  C375     1.0000 0.66360  0.11130  0.16531  Biso   1.000  C
  C376     1.0000 0.74040  0.18110  0.12434  Biso   1.000  C
  C377     1.0000 0.77390  0.13860  0.10589  Biso   1.000  C
  C378     1.0000 0.74000  0.09920  0.08750  Biso   1.000  C
  C379     1.0000 0.76990  0.05670  0.07049  Biso   1.000  C
  C380     1.0000 0.83870  0.04980  0.07205  Biso   1.000  C
  C381     1.0000 0.87470  0.08740  0.08966  Biso   1.000  C
  C382     1.0000 0.84440  0.13370  0.10645  Biso   1.000  C
  C383     1.0000 0.87950  0.17490  0.12484  Biso   1.000  C
  C384     1.0000 0.84680  0.21450  0.14193  Biso   1.000  C
  C385     1.0000 0.77630  0.21650  0.14283  Biso   1.000  C
  C386     1.0000 0.05450  0.18660  0.14883  Biso   1.000  C
  C387     1.0000 0.98730  0.17710  0.14903  Biso   1.000  C
  C388     1.0000 0.95260  0.17900  0.12556  Biso   1.000  C
  C389     1.0000 0.98950  0.18660  0.10195  Biso   1.000  C
  C390     1.0000 0.05660  0.19630  0.10336  Biso   1.000  C
  C391     1.0000 0.39310  0.11420  0.96427  Biso   1.000  C
  C392     1.0000 0.42920  0.08870  0.94376  Biso   1.000  C
  C393     1.0000 0.45040  0.02550  0.94445  Biso   1.000  C
  C394     1.0000 0.43230  0.99330  0.96670  Biso   1.000  C
  C395     1.0000 0.39550  0.02110  0.98630  Biso   1.000  C
  C396     1.0000 0.49240  0.99620  0.92288  Biso   1.000  C
  C397     1.0000 0.46330  0.97260  0.89854  Biso   1.000  C
  C398     1.0000 0.39310  0.97310  0.89430  Biso   1.000  C
  C399     1.0000 0.36830  0.95230  0.87040  Biso   1.000  C
  C400     1.0000 0.41010  0.92530  0.84960  Biso   1.000  C
  C401     1.0000 0.47640  0.92610  0.85309  Biso   1.000  C
  C402     1.0000 0.50460  0.94820  0.87753  Biso   1.000  C
  C403     1.0000 0.57390  0.94520  0.88155  Biso   1.000  C
  C404     1.0000 0.59990  0.96680  0.90554  Biso   1.000  C
  C405     1.0000 0.55750  0.99290  0.92592  Biso   1.000  C
  C406     1.0000 0.61690  0.91660  0.86005  Biso   1.000  C
  C407     1.0000 0.64390  0.95670  0.83969  Biso   1.000  C
  C408     1.0000 0.63430  0.02650  0.84019  Biso   1.000  C
  C409     1.0000 0.65730  0.06730  0.82042  Biso   1.000  C
  C410     1.0000 0.69180  0.03850  0.79830  Biso   1.000  C
  C411     1.0000 0.70200  0.97170  0.79727  Biso   1.000  C
  C412     1.0000 0.68050  0.93000  0.81754  Biso   1.000  C
  C413     1.0000 0.69230  0.85950  0.81829  Biso   1.000  C
  C414     1.0000 0.66870  0.82240  0.83842  Biso   1.000  C
  C415     1.0000 0.62950  0.85020  0.85970  Biso   1.000  C
  C416     1.0000 0.83120  0.80920  0.77101  Biso   1.000  C
  C417     1.0000 0.79380  0.84660  0.78917  Biso   1.000  C
  C418     1.0000 0.73190  0.82700  0.79667  Biso   1.000  C
  C419     1.0000 0.70730  0.76920  0.78488  Biso   1.000  C
  C420     1.0000 0.74570  0.73440  0.76685  Biso   1.000  C
  C421     1.0000 0.64780  0.76410  0.64162  Biso   1.000  C
  C422     1.0000 0.57990  0.76750  0.64326  Biso   1.000  C
  C423     1.0000 0.54500  0.80700  0.62554  Biso   1.000  C
  C424     1.0000 0.58100  0.84440  0.60781  Biso   1.000  C
  C425     1.0000 0.65000  0.83970  0.60719  Biso   1.000  C
  C426     1.0000 0.47250  0.81070  0.62659  Biso   1.000  C
  C427     1.0000 0.43740  0.77870  0.60659  Biso   1.000  C
  C428     1.0000 0.36740  0.78080  0.60561  Biso   1.000  C
  C429     1.0000 0.33260  0.81650  0.62481  Biso   1.000  C
  C430     1.0000 0.36900  0.85150  0.64558  Biso   1.000  C
  C431     1.0000 0.43780  0.84920  0.64609  Biso   1.000  C
  C432     1.0000 0.47270  0.88480  0.66624  Biso   1.000  C
  C433     1.0000 0.43890  0.92010  0.68460  Biso   1.000  C
  C434     1.0000 0.36920  0.92130  0.68490  Biso   1.000  C
  C435     1.0000 0.33640  0.88870  0.66531  Biso   1.000  C
  C436     1.0000 0.25960  0.81890  0.62434  Biso   1.000  C
  C437     1.0000 0.22610  0.86140  0.60589  Biso   1.000  C
  C438     1.0000 0.26000  0.90080  0.58750  Biso   1.000  C
  C439     1.0000 0.23010  0.94330  0.57049  Biso   1.000  C
  C440     1.0000 0.16130  0.95020  0.57205  Biso   1.000  C
  C441     1.0000 0.12530  0.91260  0.58966  Biso   1.000  C
  C442     1.0000 0.15560  0.86630  0.60645  Biso   1.000  C
  C443     1.0000 0.12050  0.82510  0.62484  Biso   1.000  C
  C444     1.0000 0.15320  0.78550  0.64193  Biso   1.000  C
  C445     1.0000 0.22370  0.78350  0.64283  Biso   1.000  C
  C446     1.0000 0.94550  0.81340  0.64883  Biso   1.000  C
  C447     1.0000 0.01270  0.82290  0.64903  Biso   1.000  C
  C448     1.0000 0.04740  0.82100  0.62556  Biso   1.000  C
  C449     1.0000 0.01050  0.81340  0.60195  Biso   1.000  C
  C450     1.0000 0.94340  0.80370  0.60336  Biso   1.000  C
  C451     1.0000 0.60690  0.88580  0.46427  Biso   1.000  C
  C452     1.0000 0.57080  0.91130  0.44376  Biso   1.000  C
  C453     1.0000 0.54960  0.97450  0.44445  Biso   1.000  C
  C454     1.0000 0.56770  0.00670  0.46670  Biso   1.000  C
  C455     1.0000 0.60450  0.97890  0.48630  Biso   1.000  C
  C456     1.0000 0.50760  0.00380  0.42288  Biso   1.000  C
  C457     1.0000 0.53670  0.02740  0.39854  Biso   1.000  C
  C458     1.0000 0.60690  0.02690  0.39430  Biso   1.000  C
  C459     1.0000 0.63170  0.04770  0.37040  Biso   1.000  C
  C460     1.0000 0.58990  0.07470  0.34960  Biso   1.000  C
  C461     1.0000 0.52360  0.07390  0.35309  Biso   1.000  C
  C462     1.0000 0.49540  0.05180  0.37753  Biso   1.000  C
  C463     1.0000 0.42610  0.05480  0.38155  Biso   1.000  C
  C464     1.0000 0.40010  0.03320  0.40554  Biso   1.000  C
  C465     1.0000 0.44250  0.00710  0.42592  Biso   1.000  C
  C466     1.0000 0.38310  0.08340  0.36005  Biso   1.000  C
  C467     1.0000 0.35610  0.04330  0.33969  Biso   1.000  C
  C468     1.0000 0.36570  0.97350  0.34019  Biso   1.000  C
  C469     1.0000 0.34270  0.93270  0.32042  Biso   1.000  C
  C470     1.0000 0.30820  0.96150  0.29830  Biso   1.000  C
  C471     1.0000 0.29800  0.02830  0.29727  Biso   1.000  C
  C472     1.0000 0.31950  0.07000  0.31754  Biso   1.000  C
  C473     1.0000 0.30770  0.14050  0.31829  Biso   1.000  C
  C474     1.0000 0.33130  0.17760  0.33842  Biso   1.000  C
  C475     1.0000 0.37050  0.14980  0.35970  Biso   1.000  C
  C476     1.0000 0.16880  0.19080  0.27101  Biso   1.000  C
  C477     1.0000 0.20620  0.15340  0.28917  Biso   1.000  C
  C478     1.0000 0.26810  0.17300  0.29667  Biso   1.000  C
  C479     1.0000 0.29270  0.23080  0.28488  Biso   1.000  C
  C480     1.0000 0.25430  0.26560  0.26685  Biso   1.000  C
  N25      1.0000 0.79890  0.68317  0.62681  Biso   1.000  N
  N26      1.0000 0.80290  0.91070  0.62336  Biso   1.000  N
  N27      1.0000 0.91900  0.62580  0.76503  Biso   1.000  N
  N28      1.0000 0.24650  0.19270  0.98980  Biso   1.000  N
  N29      1.0000 0.80760  0.57530  0.71420  Biso   1.000  N
  N30      1.0000 0.79470  0.76780  0.69015  Biso   1.000  N
  N31      1.0000 0.20110  0.31683  0.12681  Biso   1.000  N
  N32      1.0000 0.19710  0.08930  0.12336  Biso   1.000  N
  N33      1.0000 0.08100  0.37420  0.26503  Biso   1.000  N
  N34      1.0000 0.75350  0.80730  0.48980  Biso   1.000  N
  N35      1.0000 0.19240  0.42470  0.21420  Biso   1.000  N
  N36      1.0000 0.20530  0.23220  0.19015  Biso   1.000  N
  N37      1.0000 0.31683  0.20110  0.12319  Biso   1.000  N
  N38      1.0000 0.08930  0.19710  0.12664  Biso   1.000  N
  N39      1.0000 0.37420  0.08100  0.98497  Biso   1.000  N
  N40      1.0000 0.80730  0.75350  0.76020  Biso   1.000  N
  N41      1.0000 0.42470  0.19240  0.03580  Biso   1.000  N
  N42      1.0000 0.23220  0.20530  0.05985  Biso   1.000  N
  N43      1.0000 0.68317  0.79890  0.62319  Biso   1.000  N
  N44      1.0000 0.91070  0.80290  0.62664  Biso   1.000  N
  N45      1.0000 0.62580  0.91900  0.48497  Biso   1.000  N
  N46      1.0000 0.19270  0.24650  0.26020  Biso   1.000  N
  N47      1.0000 0.57530  0.80760  0.53580  Biso   1.000  N
  N48      1.0000 0.76780  0.79470  0.55985  Biso   1.000  N
  Cl17     1.0000 0.96420  0.48055  0.54037  Biso   1.000  Cl
  Cl18     1.0000 0.00488  0.12222  0.69962  Biso   1.000  Cl
  Cl19     1.0000 0.04580  0.71620  0.88516  Biso   1.000  Cl
  Cl20     1.0000 0.90919  0.27904  0.97659  Biso   1.000  Cl
  Cl21     1.0000 0.03580  0.51945  0.04037  Biso   1.000  Cl
  Cl22     1.0000 0.99512  0.87778  0.19962  Biso   1.000  Cl
  Cl23     1.0000 0.95420  0.28380  0.38516  Biso   1.000  Cl
  Cl24     1.0000 0.09081  0.72096  0.47659  Biso   1.000  Cl
  Cl25     1.0000 0.51945  0.03580  0.20963  Biso   1.000  Cl
  Cl26     1.0000 0.87778  0.99512  0.05038  Biso   1.000  Cl
  Cl27     1.0000 0.28380  0.95420  0.86484  Biso   1.000  Cl
  Cl28     1.0000 0.72096  0.09081  0.77341  Biso   1.000  Cl
  Cl29     1.0000 0.48055  0.96420  0.70963  Biso   1.000  Cl
  Cl30     1.0000 0.12222  0.00488  0.55038  Biso   1.000  Cl
  Cl31     1.0000 0.71620  0.04580  0.36484  Biso   1.000  Cl
  Cl32     1.0000 0.27904  0.90919  0.27341  Biso   1.000  Cl
  O41      1.0000 0.74960  0.33350  0.66377  Biso   1.000  O
  O42      1.0000 0.74330  0.25670  0.59060  Biso   1.000  O
  O43      1.0000 0.03620  0.33330  0.84053  Biso   1.000  O
  O44      1.0000 0.18900  0.39560  0.87103  Biso   1.000  O
  O45      1.0000 0.78190  0.52560  0.70409  Biso   1.000  O
  O46      1.0000 0.85880  0.59890  0.70481  Biso   1.000  O
  O47      1.0000 0.77990  0.60410  0.73365  Biso   1.000  O
  O48      1.0000 0.75430  0.72740  0.69939  Biso   1.000  O
  O49      1.0000 0.85020  0.76410  0.69750  Biso   1.000  O
  O50      1.0000 0.77530  0.80470  0.67153  Biso   1.000  O
  O51      1.0000 0.25040  0.66650  0.16377  Biso   1.000  O
  O52      1.0000 0.25670  0.74330  0.09060  Biso   1.000  O
  O53      1.0000 0.96380  0.66670  0.34053  Biso   1.000  O
  O54      1.0000 0.81100  0.60440  0.37103  Biso   1.000  O
  O55      1.0000 0.21810  0.47440  0.20409  Biso   1.000  O
  O56      1.0000 0.14120  0.40110  0.20481  Biso   1.000  O
  O57      1.0000 0.22010  0.39590  0.23365  Biso   1.000  O
  O58      1.0000 0.24570  0.27260  0.19939  Biso   1.000  O
  O59      1.0000 0.14980  0.23590  0.19750  Biso   1.000  O
  O60      1.0000 0.22470  0.19530  0.17153  Biso   1.000  O
  O61      1.0000 0.66650  0.25040  0.08623  Biso   1.000  O
  O62      1.0000 0.74330  0.25670  0.15940  Biso   1.000  O
  O63      1.0000 0.66670  0.96380  0.90947  Biso   1.000  O
  O64      1.0000 0.60440  0.81100  0.87897  Biso   1.000  O
  O65      1.0000 0.47440  0.21810  0.04591  Biso   1.000  O
  O66      1.0000 0.40110  0.14120  0.04519  Biso   1.000  O
  O67      1.0000 0.39590  0.22010  0.01635  Biso   1.000  O
  O68      1.0000 0.27260  0.24570  0.05061  Biso   1.000  O
  O69      1.0000 0.23590  0.14980  0.05250  Biso   1.000  O
  O70      1.0000 0.19530  0.22470  0.07847  Biso   1.000  O
  O71      1.0000 0.33350  0.74960  0.58623  Biso   1.000  O
  O72      1.0000 0.25670  0.74330  0.65940  Biso   1.000  O
  O73      1.0000 0.33330  0.03620  0.40947  Biso   1.000  O
  O74      1.0000 0.39560  0.18900  0.37897  Biso   1.000  O
  O75      1.0000 0.52560  0.78190  0.54591  Biso   1.000  O
  O76      1.0000 0.59890  0.85880  0.54519  Biso   1.000  O
  O77      1.0000 0.60410  0.77990  0.51635  Biso   1.000  O
  O78      1.0000 0.72740  0.75430  0.55061  Biso   1.000  O
  O79      1.0000 0.76410  0.85020  0.55250  Biso   1.000  O
  O80      1.0000 0.80470  0.77530  0.57847  Biso   1.000  O
