data_image0
_cell_length_a       20.1716
_cell_length_b       20.1716
_cell_length_c       41.23
_cell_angle_alpha    90
_cell_angle_beta     90
_cell_angle_gamma    90

_symmetry_space_group_name_H-M    P 1
_symmetry_int_tables_number       1

loop_
  _symmetry_equiv_pos_as_xyz
  'x, y, z'

loop_
  _atom_site_label
  _atom_site_occupancy
  _atom_site_fract_x
  _atom_site_fract_y
  _atom_site_fract_z
  _atom_site_thermal_displace_type
  _atom_site_B_iso_or_equiv
  _atom_site_type_symbol
  Mn1      1.0000 0.04727  0.72723  0.89173  Biso   1.000  Mn
  Mn2      1.0000 0.55080  0.73600  0.88027  Biso   1.000  Mn
  Mn3      1.0000 0.95273  0.27277  0.39173  Biso   1.000  Mn
  Mn4      1.0000 0.44920  0.26400  0.38027  Biso   1.000  Mn
  Mn5      1.0000 0.77277  0.54727  0.64173  Biso   1.000  Mn
  Mn6      1.0000 0.76400  0.05080  0.63027  Biso   1.000  Mn
  Mn7      1.0000 0.22723  0.45273  0.14173  Biso   1.000  Mn
  Mn8      1.0000 0.23600  0.94920  0.13027  Biso   1.000  Mn
  H1       1.0000 0.86870  0.69050  0.75550  Biso   1.000  H
  H2       1.0000 0.95710  0.64300  0.77930  Biso   1.000  H
  H3       1.0000 0.99850  0.81290  0.82460  Biso   1.000  H
  H4       1.0000 0.90470  0.85930  0.80380  Biso   1.000  H
  H5       1.0000 0.00100  0.57650  0.80730  Biso   1.000  H
  H6       1.0000 0.06710  0.53600  0.81060  Biso   1.000  H
  H7       1.0000 0.03940  0.57540  0.84040  Biso   1.000  H
  H8       1.0000 0.15270  0.63810  0.84480  Biso   1.000  H
  H9       1.0000 0.18110  0.60290  0.81390  Biso   1.000  H
  H10      1.0000 0.17550  0.68040  0.81490  Biso   1.000  H
  H11      1.0000 0.05040  0.63530  0.75880  Biso   1.000  H
  H12      1.0000 0.11410  0.67870  0.76350  Biso   1.000  H
  H13      1.0000 0.11980  0.60120  0.76250  Biso   1.000  H
  H14      1.0000 0.75710  0.92530  0.79230  Biso   1.000  H
  H15      1.0000 0.69290  0.93700  0.83690  Biso   1.000  H
  H16      1.0000 0.70860  0.74390  0.85470  Biso   1.000  H
  H17      1.0000 0.77010  0.73300  0.80840  Biso   1.000  H
  H18      1.0000 0.59690  0.95260  0.85650  Biso   1.000  H
  H19      1.0000 0.54390  0.91060  0.87520  Biso   1.000  H
  H20      1.0000 0.56470  0.98050  0.88830  Biso   1.000  H
  H21      1.0000 0.64310  0.87000  0.94460  Biso   1.000  H
  H22      1.0000 0.59330  0.92950  0.94270  Biso   1.000  H
  H23      1.0000 0.57240  0.85960  0.92960  Biso   1.000  H
  H24      1.0000 0.71400  0.96610  0.88100  Biso   1.000  H
  H25      1.0000 0.68390  0.99410  0.91330  Biso   1.000  H
  H26      1.0000 0.73050  0.93200  0.91420  Biso   1.000  H
  H27      1.0000 0.68980  0.75380  0.76450  Biso   1.000  H
  H28      1.0000 0.63570  0.69040  0.72640  Biso   1.000  H
  H29      1.0000 0.79250  0.70370  0.66760  Biso   1.000  H
  H30      1.0000 0.84310  0.76860  0.70390  Biso   1.000  H
  H31      1.0000 0.54190  0.58970  0.63230  Biso   1.000  H
  H32      1.0000 0.59560  0.63830  0.61850  Biso   1.000  H
  H33      1.0000 0.61610  0.56700  0.62990  Biso   1.000  H
  H34      1.0000 0.59710  0.59790  0.71630  Biso   1.000  H
  H35      1.0000 0.54310  0.56440  0.69440  Biso   1.000  H
  H36      1.0000 0.61730  0.54190  0.69190  Biso   1.000  H
  H37      1.0000 0.56570  0.71180  0.69570  Biso   1.000  H
  H38      1.0000 0.57060  0.72730  0.65850  Biso   1.000  H
  H39      1.0000 0.51210  0.68400  0.67180  Biso   1.000  H
  H40      1.0000 0.73390  0.90920  0.73870  Biso   1.000  H
  H41      1.0000 0.75590  0.00320  0.70910  Biso   1.000  H
  H42      1.0000 0.94890  0.95170  0.70710  Biso   1.000  H
  H43      1.0000 0.92670  0.86340  0.73990  Biso   1.000  H
  H44      1.0000 0.94590  0.02950  0.63370  Biso   1.000  H
  H45      1.0000 0.01380  0.05360  0.64800  Biso   1.000  H
  H46      1.0000 0.97860  0.99100  0.66260  Biso   1.000  H
  H47      1.0000 0.01580  0.10660  0.70430  Biso   1.000  H
  H48      1.0000 0.94880  0.11580  0.72310  Biso   1.000  H
  H49      1.0000 0.97950  0.04480  0.71910  Biso   1.000  H
  H50      1.0000 0.89920  0.13950  0.64280  Biso   1.000  H
  H51      1.0000 0.89800  0.17080  0.67760  Biso   1.000  H
  H52      1.0000 0.96500  0.16530  0.65860  Biso   1.000  H
  H53      1.0000 0.07180  0.58550  0.97300  Biso   1.000  H
  H54      1.0000 0.83240  0.75750  0.89700  Biso   1.000  H
  H55      1.0000 0.55600  0.69640  0.77660  Biso   1.000  H
  H56      1.0000 0.33410  0.75430  0.88870  Biso   1.000  H
  H57      1.0000 0.13130  0.30950  0.25550  Biso   1.000  H
  H58      1.0000 0.04290  0.35700  0.27930  Biso   1.000  H
  H59      1.0000 0.00150  0.18710  0.32460  Biso   1.000  H
  H60      1.0000 0.09530  0.14070  0.30380  Biso   1.000  H
  H61      1.0000 0.99900  0.42350  0.30730  Biso   1.000  H
  H62      1.0000 0.93290  0.46400  0.31060  Biso   1.000  H
  H63      1.0000 0.96060  0.42460  0.34040  Biso   1.000  H
  H64      1.0000 0.84730  0.36190  0.34480  Biso   1.000  H
  H65      1.0000 0.81890  0.39710  0.31390  Biso   1.000  H
  H66      1.0000 0.82450  0.31960  0.31490  Biso   1.000  H
  H67      1.0000 0.94960  0.36470  0.25880  Biso   1.000  H
  H68      1.0000 0.88590  0.32130  0.26350  Biso   1.000  H
  H69      1.0000 0.88020  0.39880  0.26250  Biso   1.000  H
  H70      1.0000 0.24290  0.07470  0.29230  Biso   1.000  H
  H71      1.0000 0.30710  0.06300  0.33690  Biso   1.000  H
  H72      1.0000 0.29140  0.25610  0.35470  Biso   1.000  H
  H73      1.0000 0.22990  0.26700  0.30840  Biso   1.000  H
  H74      1.0000 0.40310  0.04740  0.35650  Biso   1.000  H
  H75      1.0000 0.45610  0.08940  0.37520  Biso   1.000  H
  H76      1.0000 0.43530  0.01950  0.38830  Biso   1.000  H
  H77      1.0000 0.35690  0.13000  0.44460  Biso   1.000  H
  H78      1.0000 0.40670  0.07050  0.44270  Biso   1.000  H
  H79      1.0000 0.42760  0.14040  0.42960  Biso   1.000  H
  H80      1.0000 0.28600  0.03390  0.38100  Biso   1.000  H
  H81      1.0000 0.31610  0.00590  0.41330  Biso   1.000  H
  H82      1.0000 0.26950  0.06800  0.41420  Biso   1.000  H
  H83      1.0000 0.31020  0.24620  0.26450  Biso   1.000  H
  H84      1.0000 0.36430  0.30960  0.22640  Biso   1.000  H
  H85      1.0000 0.20750  0.29630  0.16760  Biso   1.000  H
  H86      1.0000 0.15690  0.23140  0.20390  Biso   1.000  H
  H87      1.0000 0.45810  0.41030  0.13230  Biso   1.000  H
  H88      1.0000 0.40440  0.36170  0.11850  Biso   1.000  H
  H89      1.0000 0.38390  0.43300  0.12990  Biso   1.000  H
  H90      1.0000 0.40290  0.40210  0.21630  Biso   1.000  H
  H91      1.0000 0.45690  0.43560  0.19440  Biso   1.000  H
  H92      1.0000 0.38270  0.45810  0.19190  Biso   1.000  H
  H93      1.0000 0.43430  0.28820  0.19570  Biso   1.000  H
  H94      1.0000 0.42940  0.27270  0.15850  Biso   1.000  H
  H95      1.0000 0.48790  0.31600  0.17180  Biso   1.000  H
  H96      1.0000 0.26610  0.09080  0.23870  Biso   1.000  H
  H97      1.0000 0.24410  0.99680  0.20910  Biso   1.000  H
  H98      1.0000 0.05110  0.04830  0.20710  Biso   1.000  H
  H99      1.0000 0.07330  0.13660  0.23990  Biso   1.000  H
  H100     1.0000 0.05410  0.97050  0.13370  Biso   1.000  H
  H101     1.0000 0.98620  0.94640  0.14800  Biso   1.000  H
  H102     1.0000 0.02140  0.00900  0.16260  Biso   1.000  H
  H103     1.0000 0.98420  0.89340  0.20430  Biso   1.000  H
  H104     1.0000 0.05120  0.88420  0.22310  Biso   1.000  H
  H105     1.0000 0.02050  0.95520  0.21910  Biso   1.000  H
  H106     1.0000 0.10080  0.86050  0.14280  Biso   1.000  H
  H107     1.0000 0.10200  0.82920  0.17760  Biso   1.000  H
  H108     1.0000 0.03500  0.83470  0.15860  Biso   1.000  H
  H109     1.0000 0.92820  0.41450  0.47300  Biso   1.000  H
  H110     1.0000 0.16760  0.24250  0.39700  Biso   1.000  H
  H111     1.0000 0.44400  0.30360  0.27660  Biso   1.000  H
  H112     1.0000 0.66590  0.24570  0.38870  Biso   1.000  H
  H113     1.0000 0.80950  0.36870  0.50550  Biso   1.000  H
  H114     1.0000 0.85700  0.45710  0.52930  Biso   1.000  H
  H115     1.0000 0.68710  0.49850  0.57460  Biso   1.000  H
  H116     1.0000 0.64070  0.40470  0.55380  Biso   1.000  H
  H117     1.0000 0.92350  0.50100  0.55730  Biso   1.000  H
  H118     1.0000 0.96400  0.56710  0.56060  Biso   1.000  H
  H119     1.0000 0.92460  0.53940  0.59040  Biso   1.000  H
  H120     1.0000 0.86190  0.65270  0.59480  Biso   1.000  H
  H121     1.0000 0.89710  0.68110  0.56390  Biso   1.000  H
  H122     1.0000 0.81960  0.67550  0.56490  Biso   1.000  H
  H123     1.0000 0.86470  0.55040  0.50880  Biso   1.000  H
  H124     1.0000 0.82130  0.61410  0.51350  Biso   1.000  H
  H125     1.0000 0.89880  0.61980  0.51250  Biso   1.000  H
  H126     1.0000 0.57470  0.25710  0.54230  Biso   1.000  H
  H127     1.0000 0.56300  0.19290  0.58690  Biso   1.000  H
  H128     1.0000 0.75610  0.20860  0.60470  Biso   1.000  H
  H129     1.0000 0.76700  0.27010  0.55840  Biso   1.000  H
  H130     1.0000 0.54740  0.09690  0.60650  Biso   1.000  H
  H131     1.0000 0.58940  0.04390  0.62520  Biso   1.000  H
  H132     1.0000 0.51950  0.06470  0.63830  Biso   1.000  H
  H133     1.0000 0.63000  0.14310  0.69460  Biso   1.000  H
  H134     1.0000 0.57050  0.09330  0.69270  Biso   1.000  H
  H135     1.0000 0.64040  0.07240  0.67960  Biso   1.000  H
  H136     1.0000 0.53390  0.21400  0.63100  Biso   1.000  H
  H137     1.0000 0.50590  0.18390  0.66330  Biso   1.000  H
  H138     1.0000 0.56800  0.23050  0.66420  Biso   1.000  H
  H139     1.0000 0.74620  0.18980  0.51450  Biso   1.000  H
  H140     1.0000 0.80960  0.13570  0.47640  Biso   1.000  H
  H141     1.0000 0.79630  0.29250  0.41760  Biso   1.000  H
  H142     1.0000 0.73140  0.34310  0.45390  Biso   1.000  H
  H143     1.0000 0.91030  0.04190  0.38230  Biso   1.000  H
  H144     1.0000 0.86170  0.09560  0.36850  Biso   1.000  H
  H145     1.0000 0.93300  0.11610  0.37990  Biso   1.000  H
  H146     1.0000 0.90210  0.09710  0.46630  Biso   1.000  H
  H147     1.0000 0.93560  0.04310  0.44440  Biso   1.000  H
  H148     1.0000 0.95810  0.11730  0.44190  Biso   1.000  H
  H149     1.0000 0.78820  0.06570  0.44570  Biso   1.000  H
  H150     1.0000 0.77270  0.07060  0.40850  Biso   1.000  H
  H151     1.0000 0.81600  0.01210  0.42180  Biso   1.000  H
  H152     1.0000 0.59080  0.23390  0.48870  Biso   1.000  H
  H153     1.0000 0.49680  0.25590  0.45910  Biso   1.000  H
  H154     1.0000 0.54830  0.44890  0.45710  Biso   1.000  H
  H155     1.0000 0.63660  0.42670  0.48990  Biso   1.000  H
  H156     1.0000 0.47050  0.44590  0.38370  Biso   1.000  H
  H157     1.0000 0.44640  0.51380  0.39800  Biso   1.000  H
  H158     1.0000 0.50900  0.47860  0.41260  Biso   1.000  H
  H159     1.0000 0.39340  0.51580  0.45430  Biso   1.000  H
  H160     1.0000 0.38420  0.44880  0.47310  Biso   1.000  H
  H161     1.0000 0.45520  0.47950  0.46910  Biso   1.000  H
  H162     1.0000 0.36050  0.39920  0.39280  Biso   1.000  H
  H163     1.0000 0.32920  0.39800  0.42760  Biso   1.000  H
  H164     1.0000 0.33470  0.46500  0.40860  Biso   1.000  H
  H165     1.0000 0.91450  0.57180  0.72300  Biso   1.000  H
  H166     1.0000 0.74250  0.33240  0.64700  Biso   1.000  H
  H167     1.0000 0.80360  0.05600  0.52660  Biso   1.000  H
  H168     1.0000 0.74570  0.83410  0.63870  Biso   1.000  H
  H169     1.0000 0.19050  0.63130  0.00550  Biso   1.000  H
  H170     1.0000 0.14300  0.54290  0.02930  Biso   1.000  H
  H171     1.0000 0.31290  0.50150  0.07460  Biso   1.000  H
  H172     1.0000 0.35930  0.59530  0.05380  Biso   1.000  H
  H173     1.0000 0.07650  0.49900  0.05730  Biso   1.000  H
  H174     1.0000 0.03600  0.43290  0.06060  Biso   1.000  H
  H175     1.0000 0.07540  0.46060  0.09040  Biso   1.000  H
  H176     1.0000 0.13810  0.34730  0.09480  Biso   1.000  H
  H177     1.0000 0.10290  0.31890  0.06390  Biso   1.000  H
  H178     1.0000 0.18040  0.32450  0.06490  Biso   1.000  H
  H179     1.0000 0.13530  0.44960  0.00880  Biso   1.000  H
  H180     1.0000 0.17870  0.38590  0.01350  Biso   1.000  H
  H181     1.0000 0.10120  0.38020  0.01250  Biso   1.000  H
  H182     1.0000 0.42530  0.74290  0.04230  Biso   1.000  H
  H183     1.0000 0.43700  0.80710  0.08690  Biso   1.000  H
  H184     1.0000 0.24390  0.79140  0.10470  Biso   1.000  H
  H185     1.0000 0.23300  0.72990  0.05840  Biso   1.000  H
  H186     1.0000 0.45260  0.90310  0.10650  Biso   1.000  H
  H187     1.0000 0.41060  0.95610  0.12520  Biso   1.000  H
  H188     1.0000 0.48050  0.93530  0.13830  Biso   1.000  H
  H189     1.0000 0.37000  0.85690  0.19460  Biso   1.000  H
  H190     1.0000 0.42950  0.90670  0.19270  Biso   1.000  H
  H191     1.0000 0.35960  0.92760  0.17960  Biso   1.000  H
  H192     1.0000 0.46610  0.78600  0.13100  Biso   1.000  H
  H193     1.0000 0.49410  0.81610  0.16330  Biso   1.000  H
  H194     1.0000 0.43200  0.76950  0.16420  Biso   1.000  H
  H195     1.0000 0.25380  0.81020  0.01450  Biso   1.000  H
  H196     1.0000 0.19040  0.86430  0.97640  Biso   1.000  H
  H197     1.0000 0.20370  0.70750  0.91760  Biso   1.000  H
  H198     1.0000 0.26860  0.65690  0.95390  Biso   1.000  H
  H199     1.0000 0.08970  0.95810  0.88230  Biso   1.000  H
  H200     1.0000 0.13830  0.90440  0.86850  Biso   1.000  H
  H201     1.0000 0.06700  0.88390  0.87990  Biso   1.000  H
  H202     1.0000 0.09790  0.90290  0.96630  Biso   1.000  H
  H203     1.0000 0.06440  0.95690  0.94440  Biso   1.000  H
  H204     1.0000 0.04190  0.88270  0.94190  Biso   1.000  H
  H205     1.0000 0.21180  0.93430  0.94570  Biso   1.000  H
  H206     1.0000 0.22730  0.92940  0.90850  Biso   1.000  H
  H207     1.0000 0.18400  0.98790  0.92180  Biso   1.000  H
  H208     1.0000 0.40920  0.76610  0.98870  Biso   1.000  H
  H209     1.0000 0.50320  0.74410  0.95910  Biso   1.000  H
  H210     1.0000 0.45170  0.55110  0.95710  Biso   1.000  H
  H211     1.0000 0.36340  0.57330  0.98990  Biso   1.000  H
  H212     1.0000 0.52950  0.55410  0.88370  Biso   1.000  H
  H213     1.0000 0.55360  0.48620  0.89800  Biso   1.000  H
  H214     1.0000 0.49100  0.52140  0.91260  Biso   1.000  H
  H215     1.0000 0.60660  0.48420  0.95430  Biso   1.000  H
  H216     1.0000 0.61580  0.55120  0.97310  Biso   1.000  H
  H217     1.0000 0.54480  0.52050  0.96910  Biso   1.000  H
  H218     1.0000 0.63950  0.60080  0.89280  Biso   1.000  H
  H219     1.0000 0.67080  0.60200  0.92760  Biso   1.000  H
  H220     1.0000 0.66530  0.53500  0.90860  Biso   1.000  H
  H221     1.0000 0.08550  0.42820  0.22300  Biso   1.000  H
  H222     1.0000 0.25750  0.66760  0.14700  Biso   1.000  H
  H223     1.0000 0.19640  0.94400  0.02660  Biso   1.000  H
  H224     1.0000 0.25430  0.16590  0.13870  Biso   1.000  H
  C1       1.0000 0.81086  0.81381  0.76367  Biso   1.000  C
  C2       1.0000 0.87464  0.78071  0.77654  Biso   1.000  C
  C3       1.0000 0.89405  0.71534  0.76992  Biso   1.000  C
  C4       1.0000 0.94735  0.68723  0.78339  Biso   1.000  C
  C5       1.0000 0.98813  0.72429  0.80355  Biso   1.000  C
  C6       1.0000 0.97156  0.78823  0.81088  Biso   1.000  C
  C7       1.0000 0.91585  0.81612  0.79818  Biso   1.000  C
  C8       1.0000 0.08284  0.63512  0.80693  Biso   1.000  C
  C9       1.0000 0.04410  0.57539  0.81723  Biso   1.000  C
  C10      1.0000 0.15514  0.63958  0.82160  Biso   1.000  C
  C11      1.0000 0.09274  0.63790  0.76930  Biso   1.000  C
  C12      1.0000 0.76933  0.82802  0.79412  Biso   1.000  C
  C13      1.0000 0.74661  0.88783  0.80438  Biso   1.000  C
  C14      1.0000 0.70920  0.89525  0.83159  Biso   1.000  C
  C15      1.0000 0.69513  0.84233  0.85134  Biso   1.000  C
  C16      1.0000 0.71793  0.78099  0.84210  Biso   1.000  C
  C17      1.0000 0.75456  0.77476  0.81414  Biso   1.000  C
  C18      1.0000 0.63597  0.90860  0.89789  Biso   1.000  C
  C19      1.0000 0.58002  0.94121  0.87752  Biso   1.000  C
  C20      1.0000 0.60859  0.89017  0.93195  Biso   1.000  C
  C21      1.0000 0.69690  0.95457  0.90197  Biso   1.000  C
  C22      1.0000 0.77303  0.76943  0.73926  Biso   1.000  C
  C23      1.0000 0.71062  0.74466  0.74491  Biso   1.000  C
  C24      1.0000 0.67800  0.70621  0.72193  Biso   1.000  C
  C25      1.0000 0.70725  0.69112  0.69263  Biso   1.000  C
  C26      1.0000 0.77094  0.71450  0.68684  Biso   1.000  C
  C27      1.0000 0.80110  0.75234  0.70880  Biso   1.000  C
  C28      1.0000 0.60047  0.63104  0.66923  Biso   1.000  C
  C29      1.0000 0.58723  0.60386  0.63406  Biso   1.000  C
  C30      1.0000 0.58836  0.57900  0.69541  Biso   1.000  C
  C31      1.0000 0.55817  0.69459  0.67426  Biso   1.000  C
  C32      1.0000 0.82806  0.87664  0.74344  Biso   1.000  C
  C33      1.0000 0.77750  0.91892  0.73309  Biso   1.000  C
  C34      1.0000 0.79032  0.97477  0.71481  Biso   1.000  C
  C35      1.0000 0.85592  0.98869  0.70475  Biso   1.000  C
  C36      1.0000 0.90562  0.94455  0.71412  Biso   1.000  C
  C37      1.0000 0.89217  0.89089  0.73341  Biso   1.000  C
  C38      1.0000 0.93490  0.07788  0.67713  Biso   1.000  C
  C39      1.0000 0.97169  0.03392  0.65313  Biso   1.000  C
  C40      1.0000 0.97336  0.08712  0.70889  Biso   1.000  C
  C41      1.0000 0.92324  0.14422  0.66277  Biso   1.000  C
  C42      1.0000 0.02790  0.69090  0.99777  Biso   1.000  C
  C43      1.0000 0.04582  0.67905  0.96268  Biso   1.000  C
  C44      1.0000 0.07079  0.61683  0.95645  Biso   1.000  C
  C45      1.0000 0.09396  0.60055  0.92653  Biso   1.000  C
  C46      1.0000 0.85101  0.63559  0.87668  Biso   1.000  C
  C47      1.0000 0.89767  0.68965  0.88354  Biso   1.000  C
  C48      1.0000 0.87733  0.75141  0.89288  Biso   1.000  C
  C49      1.0000 0.91673  0.80294  0.89647  Biso   1.000  C
  C50      1.0000 0.88307  0.86886  0.90430  Biso   1.000  C
  C51      1.0000 0.60760  0.59181  0.80790  Biso   1.000  C
  C52      1.0000 0.58627  0.66027  0.81985  Biso   1.000  C
  C53      1.0000 0.55992  0.70673  0.79847  Biso   1.000  C
  C54      1.0000 0.54008  0.76646  0.80933  Biso   1.000  C
  C55      1.0000 0.52030  0.81020  0.78524  Biso   1.000  C
  C56      1.0000 0.35470  0.64539  0.87016  Biso   1.000  C
  C57      1.0000 0.40362  0.69292  0.87905  Biso   1.000  C
  C58      1.0000 0.37982  0.74845  0.88903  Biso   1.000  C
  C59      1.0000 0.41896  0.79980  0.90018  Biso   1.000  C
  C60      1.0000 0.37510  0.86449  0.90749  Biso   1.000  C
  C61      1.0000 0.18914  0.18619  0.26367  Biso   1.000  C
  C62      1.0000 0.12536  0.21929  0.27654  Biso   1.000  C
  C63      1.0000 0.10595  0.28466  0.26992  Biso   1.000  C
  C64      1.0000 0.05265  0.31277  0.28339  Biso   1.000  C
  C65      1.0000 0.01187  0.27571  0.30355  Biso   1.000  C
  C66      1.0000 0.02844  0.21177  0.31088  Biso   1.000  C
  C67      1.0000 0.08415  0.18388  0.29818  Biso   1.000  C
  C68      1.0000 0.91716  0.36488  0.30693  Biso   1.000  C
  C69      1.0000 0.95590  0.42461  0.31723  Biso   1.000  C
  C70      1.0000 0.84486  0.36042  0.32160  Biso   1.000  C
  C71      1.0000 0.90726  0.36210  0.26930  Biso   1.000  C
  C72      1.0000 0.23067  0.17198  0.29412  Biso   1.000  C
  C73      1.0000 0.25339  0.11217  0.30438  Biso   1.000  C
  C74      1.0000 0.29080  0.10475  0.33159  Biso   1.000  C
  C75      1.0000 0.30487  0.15767  0.35134  Biso   1.000  C
  C76      1.0000 0.28207  0.21901  0.34210  Biso   1.000  C
  C77      1.0000 0.24544  0.22524  0.31414  Biso   1.000  C
  C78      1.0000 0.36403  0.09140  0.39789  Biso   1.000  C
  C79      1.0000 0.41998  0.05879  0.37752  Biso   1.000  C
  C80      1.0000 0.39141  0.10983  0.43195  Biso   1.000  C
  C81      1.0000 0.30310  0.04543  0.40197  Biso   1.000  C
  C82      1.0000 0.22697  0.23057  0.23926  Biso   1.000  C
  C83      1.0000 0.28938  0.25534  0.24491  Biso   1.000  C
  C84      1.0000 0.32200  0.29379  0.22193  Biso   1.000  C
  C85      1.0000 0.29275  0.30888  0.19263  Biso   1.000  C
  C86      1.0000 0.22906  0.28550  0.18684  Biso   1.000  C
  C87      1.0000 0.19890  0.24766  0.20880  Biso   1.000  C
  C88      1.0000 0.39953  0.36896  0.16923  Biso   1.000  C
  C89      1.0000 0.41277  0.39614  0.13406  Biso   1.000  C
  C90      1.0000 0.41164  0.42100  0.19541  Biso   1.000  C
  C91      1.0000 0.44183  0.30541  0.17426  Biso   1.000  C
  C92      1.0000 0.17194  0.12336  0.24344  Biso   1.000  C
  C93      1.0000 0.22250  0.08108  0.23309  Biso   1.000  C
  C94      1.0000 0.20968  0.02523  0.21481  Biso   1.000  C
  C95      1.0000 0.14408  0.01131  0.20475  Biso   1.000  C
  C96      1.0000 0.09438  0.05545  0.21412  Biso   1.000  C
  C97      1.0000 0.10783  0.10911  0.23341  Biso   1.000  C
  C98      1.0000 0.06510  0.92212  0.17713  Biso   1.000  C
  C99      1.0000 0.02831  0.96608  0.15313  Biso   1.000  C
  C100     1.0000 0.02664  0.91288  0.20889  Biso   1.000  C
  C101     1.0000 0.07676  0.85578  0.16277  Biso   1.000  C
  C102     1.0000 0.97210  0.30910  0.49777  Biso   1.000  C
  C103     1.0000 0.95418  0.32095  0.46268  Biso   1.000  C
  C104     1.0000 0.92921  0.38317  0.45645  Biso   1.000  C
  C105     1.0000 0.90604  0.39945  0.42653  Biso   1.000  C
  C106     1.0000 0.14899  0.36441  0.37668  Biso   1.000  C
  C107     1.0000 0.10233  0.31035  0.38354  Biso   1.000  C
  C108     1.0000 0.12267  0.24859  0.39288  Biso   1.000  C
  C109     1.0000 0.08327  0.19706  0.39647  Biso   1.000  C
  C110     1.0000 0.11693  0.13114  0.40430  Biso   1.000  C
  C111     1.0000 0.39240  0.40819  0.30790  Biso   1.000  C
  C112     1.0000 0.41373  0.33973  0.31985  Biso   1.000  C
  C113     1.0000 0.44008  0.29327  0.29847  Biso   1.000  C
  C114     1.0000 0.45992  0.23354  0.30933  Biso   1.000  C
  C115     1.0000 0.47970  0.18980  0.28524  Biso   1.000  C
  C116     1.0000 0.64530  0.35461  0.37016  Biso   1.000  C
  C117     1.0000 0.59638  0.30708  0.37905  Biso   1.000  C
  C118     1.0000 0.62018  0.25155  0.38903  Biso   1.000  C
  C119     1.0000 0.58104  0.20020  0.40018  Biso   1.000  C
  C120     1.0000 0.62490  0.13551  0.40749  Biso   1.000  C
  C121     1.0000 0.68619  0.31086  0.51367  Biso   1.000  C
  C122     1.0000 0.71929  0.37464  0.52654  Biso   1.000  C
  C123     1.0000 0.78466  0.39405  0.51992  Biso   1.000  C
  C124     1.0000 0.81277  0.44735  0.53339  Biso   1.000  C
  C125     1.0000 0.77571  0.48813  0.55355  Biso   1.000  C
  C126     1.0000 0.71177  0.47156  0.56088  Biso   1.000  C
  C127     1.0000 0.68388  0.41585  0.54818  Biso   1.000  C
  C128     1.0000 0.86488  0.58284  0.55693  Biso   1.000  C
  C129     1.0000 0.92461  0.54410  0.56723  Biso   1.000  C
  C130     1.0000 0.86042  0.65514  0.57160  Biso   1.000  C
  C131     1.0000 0.86210  0.59274  0.51930  Biso   1.000  C
  C132     1.0000 0.67198  0.26933  0.54412  Biso   1.000  C
  C133     1.0000 0.61217  0.24661  0.55438  Biso   1.000  C
  C134     1.0000 0.60475  0.20920  0.58159  Biso   1.000  C
  C135     1.0000 0.65767  0.19513  0.60134  Biso   1.000  C
  C136     1.0000 0.71901  0.21793  0.59210  Biso   1.000  C
  C137     1.0000 0.72524  0.25456  0.56414  Biso   1.000  C
  C138     1.0000 0.59140  0.13597  0.64789  Biso   1.000  C
  C139     1.0000 0.55879  0.08002  0.62752  Biso   1.000  C
  C140     1.0000 0.60983  0.10859  0.68195  Biso   1.000  C
  C141     1.0000 0.54543  0.19690  0.65197  Biso   1.000  C
  C142     1.0000 0.73057  0.27303  0.48926  Biso   1.000  C
  C143     1.0000 0.75534  0.21062  0.49491  Biso   1.000  C
  C144     1.0000 0.79379  0.17800  0.47193  Biso   1.000  C
  C145     1.0000 0.80888  0.20725  0.44263  Biso   1.000  C
  C146     1.0000 0.78550  0.27094  0.43684  Biso   1.000  C
  C147     1.0000 0.74766  0.30110  0.45880  Biso   1.000  C
  C148     1.0000 0.86896  0.10047  0.41923  Biso   1.000  C
  C149     1.0000 0.89614  0.08723  0.38406  Biso   1.000  C
  C150     1.0000 0.92100  0.08836  0.44541  Biso   1.000  C
  C151     1.0000 0.80541  0.05817  0.42426  Biso   1.000  C
  C152     1.0000 0.62336  0.32806  0.49344  Biso   1.000  C
  C153     1.0000 0.58108  0.27750  0.48309  Biso   1.000  C
  C154     1.0000 0.52523  0.29032  0.46481  Biso   1.000  C
  C155     1.0000 0.51131  0.35592  0.45475  Biso   1.000  C
  C156     1.0000 0.55545  0.40562  0.46412  Biso   1.000  C
  C157     1.0000 0.60911  0.39217  0.48341  Biso   1.000  C
  C158     1.0000 0.42212  0.43490  0.42713  Biso   1.000  C
  C159     1.0000 0.46608  0.47169  0.40313  Biso   1.000  C
  C160     1.0000 0.41288  0.47336  0.45889  Biso   1.000  C
  C161     1.0000 0.35578  0.42324  0.41277  Biso   1.000  C
  C162     1.0000 0.80910  0.52790  0.74777  Biso   1.000  C
  C163     1.0000 0.82095  0.54582  0.71268  Biso   1.000  C
  C164     1.0000 0.88317  0.57079  0.70645  Biso   1.000  C
  C165     1.0000 0.89945  0.59396  0.67653  Biso   1.000  C
  C166     1.0000 0.86441  0.35101  0.62668  Biso   1.000  C
  C167     1.0000 0.81035  0.39767  0.63354  Biso   1.000  C
  C168     1.0000 0.74859  0.37733  0.64288  Biso   1.000  C
  C169     1.0000 0.69706  0.41673  0.64647  Biso   1.000  C
  C170     1.0000 0.63114  0.38307  0.65430  Biso   1.000  C
  C171     1.0000 0.90819  0.10760  0.55790  Biso   1.000  C
  C172     1.0000 0.83973  0.08627  0.56985  Biso   1.000  C
  C173     1.0000 0.79327  0.05992  0.54847  Biso   1.000  C
  C174     1.0000 0.73354  0.04008  0.55933  Biso   1.000  C
  C175     1.0000 0.68980  0.02030  0.53524  Biso   1.000  C
  C176     1.0000 0.85461  0.85470  0.62016  Biso   1.000  C
  C177     1.0000 0.80708  0.90362  0.62905  Biso   1.000  C
  C178     1.0000 0.75155  0.87982  0.63903  Biso   1.000  C
  C179     1.0000 0.70020  0.91896  0.65018  Biso   1.000  C
  C180     1.0000 0.63551  0.87510  0.65749  Biso   1.000  C
  C181     1.0000 0.31381  0.68914  0.01367  Biso   1.000  C
  C182     1.0000 0.28071  0.62536  0.02654  Biso   1.000  C
  C183     1.0000 0.21534  0.60595  0.01992  Biso   1.000  C
  C184     1.0000 0.18723  0.55265  0.03339  Biso   1.000  C
  C185     1.0000 0.22429  0.51187  0.05355  Biso   1.000  C
  C186     1.0000 0.28823  0.52844  0.06088  Biso   1.000  C
  C187     1.0000 0.31612  0.58415  0.04818  Biso   1.000  C
  C188     1.0000 0.13512  0.41716  0.05693  Biso   1.000  C
  C189     1.0000 0.07539  0.45590  0.06723  Biso   1.000  C
  C190     1.0000 0.13958  0.34486  0.07160  Biso   1.000  C
  C191     1.0000 0.13790  0.40726  0.01930  Biso   1.000  C
  C192     1.0000 0.32802  0.73067  0.04412  Biso   1.000  C
  C193     1.0000 0.38783  0.75339  0.05438  Biso   1.000  C
  C194     1.0000 0.39525  0.79080  0.08159  Biso   1.000  C
  C195     1.0000 0.34233  0.80487  0.10134  Biso   1.000  C
  C196     1.0000 0.28099  0.78207  0.09210  Biso   1.000  C
  C197     1.0000 0.27476  0.74544  0.06414  Biso   1.000  C
  C198     1.0000 0.40860  0.86403  0.14789  Biso   1.000  C
  C199     1.0000 0.44121  0.91998  0.12752  Biso   1.000  C
  C200     1.0000 0.39017  0.89141  0.18195  Biso   1.000  C
  C201     1.0000 0.45457  0.80310  0.15197  Biso   1.000  C
  C202     1.0000 0.26943  0.72697  0.98926  Biso   1.000  C
  C203     1.0000 0.24466  0.78938  0.99491  Biso   1.000  C
  C204     1.0000 0.20621  0.82200  0.97193  Biso   1.000  C
  C205     1.0000 0.19112  0.79275  0.94263  Biso   1.000  C
  C206     1.0000 0.21450  0.72906  0.93684  Biso   1.000  C
  C207     1.0000 0.25234  0.69890  0.95880  Biso   1.000  C
  C208     1.0000 0.13104  0.89953  0.91923  Biso   1.000  C
  C209     1.0000 0.10386  0.91277  0.88406  Biso   1.000  C
  C210     1.0000 0.07900  0.91164  0.94541  Biso   1.000  C
  C211     1.0000 0.19459  0.94183  0.92426  Biso   1.000  C
  C212     1.0000 0.37664  0.67194  0.99344  Biso   1.000  C
  C213     1.0000 0.41892  0.72250  0.98309  Biso   1.000  C
  C214     1.0000 0.47477  0.70968  0.96481  Biso   1.000  C
  C215     1.0000 0.48869  0.64408  0.95475  Biso   1.000  C
  C216     1.0000 0.44455  0.59438  0.96412  Biso   1.000  C
  C217     1.0000 0.39089  0.60783  0.98341  Biso   1.000  C
  C218     1.0000 0.57788  0.56510  0.92713  Biso   1.000  C
  C219     1.0000 0.53392  0.52831  0.90313  Biso   1.000  C
  C220     1.0000 0.58712  0.52664  0.95889  Biso   1.000  C
  C221     1.0000 0.64422  0.57676  0.91277  Biso   1.000  C
  C222     1.0000 0.19090  0.47210  0.24777  Biso   1.000  C
  C223     1.0000 0.17905  0.45418  0.21268  Biso   1.000  C
  C224     1.0000 0.11683  0.42921  0.20645  Biso   1.000  C
  C225     1.0000 0.10055  0.40604  0.17653  Biso   1.000  C
  C226     1.0000 0.13559  0.64899  0.12668  Biso   1.000  C
  C227     1.0000 0.18965  0.60233  0.13354  Biso   1.000  C
  C228     1.0000 0.25141  0.62267  0.14288  Biso   1.000  C
  C229     1.0000 0.30294  0.58327  0.14647  Biso   1.000  C
  C230     1.0000 0.36886  0.61693  0.15430  Biso   1.000  C
  C231     1.0000 0.09181  0.89240  0.05790  Biso   1.000  C
  C232     1.0000 0.16027  0.91373  0.06985  Biso   1.000  C
  C233     1.0000 0.20673  0.94008  0.04847  Biso   1.000  C
  C234     1.0000 0.26646  0.95992  0.05933  Biso   1.000  C
  C235     1.0000 0.31020  0.97970  0.03524  Biso   1.000  C
  C236     1.0000 0.14539  0.14530  0.12016  Biso   1.000  C
  C237     1.0000 0.19292  0.09638  0.12905  Biso   1.000  C
  C238     1.0000 0.24845  0.12018  0.13903  Biso   1.000  C
  C239     1.0000 0.29980  0.08104  0.15018  Biso   1.000  C
  C240     1.0000 0.36449  0.12490  0.15749  Biso   1.000  C
  N1       1.0000 0.04728  0.69672  0.81834  Biso   1.000  N
  N2       1.0000 0.65614  0.84570  0.87948  Biso   1.000  N
  N3       1.0000 0.67503  0.65216  0.66891  Biso   1.000  N
  N4       1.0000 0.86766  0.04683  0.68528  Biso   1.000  N
  N5       1.0000 0.95272  0.30328  0.31834  Biso   1.000  N
  N6       1.0000 0.34386  0.15430  0.37948  Biso   1.000  N
  N7       1.0000 0.32497  0.34784  0.16891  Biso   1.000  N
  N8       1.0000 0.13234  0.95317  0.18528  Biso   1.000  N
  N9       1.0000 0.80328  0.54728  0.56834  Biso   1.000  N
  N10      1.0000 0.65430  0.15614  0.62948  Biso   1.000  N
  N11      1.0000 0.84784  0.17503  0.41891  Biso   1.000  N
  N12      1.0000 0.45317  0.36766  0.43528  Biso   1.000  N
  N13      1.0000 0.19672  0.45272  0.06834  Biso   1.000  N
  N14      1.0000 0.34570  0.84386  0.12948  Biso   1.000  N
  N15      1.0000 0.15216  0.82497  0.91891  Biso   1.000  N
  N16      1.0000 0.54683  0.63234  0.93528  Biso   1.000  N
  O1       1.0000 0.07237  0.73070  0.84220  Biso   1.000  O
  O2       1.0000 0.63625  0.79040  0.89177  Biso   1.000  O
  O3       1.0000 0.71185  0.63109  0.64544  Biso   1.000  O
  O4       1.0000 0.81576  0.07408  0.67290  Biso   1.000  O
  O5       1.0000 0.03585  0.72673  0.94310  Biso   1.000  O
  O6       1.0000 0.09546  0.63513  0.90102  Biso   1.000  O
  O7       1.0000 0.95827  0.67236  0.88022  Biso   1.000  O
  O8       1.0000 0.97682  0.80694  0.89369  Biso   1.000  O
  O9       1.0000 0.59474  0.66543  0.84940  Biso   1.000  O
  O10      1.0000 0.53958  0.79011  0.83662  Biso   1.000  O
  O11      1.0000 0.46353  0.67661  0.87442  Biso   1.000  O
  O12      1.0000 0.48123  0.80403  0.90016  Biso   1.000  O
  O13      1.0000 0.92763  0.26930  0.34220  Biso   1.000  O
  O14      1.0000 0.36375  0.20960  0.39177  Biso   1.000  O
  O15      1.0000 0.28815  0.36891  0.14544  Biso   1.000  O
  O16      1.0000 0.18424  0.92592  0.17290  Biso   1.000  O
  O17      1.0000 0.96415  0.27327  0.44310  Biso   1.000  O
  O18      1.0000 0.90454  0.36487  0.40102  Biso   1.000  O
  O19      1.0000 0.04173  0.32764  0.38022  Biso   1.000  O
  O20      1.0000 0.02318  0.19306  0.39369  Biso   1.000  O
  O21      1.0000 0.40526  0.33457  0.34940  Biso   1.000  O
  O22      1.0000 0.46042  0.20989  0.33662  Biso   1.000  O
  O23      1.0000 0.53647  0.32339  0.37442  Biso   1.000  O
  O24      1.0000 0.51877  0.19597  0.40016  Biso   1.000  O
  O25      1.0000 0.76930  0.57237  0.59220  Biso   1.000  O
  O26      1.0000 0.70960  0.13625  0.64177  Biso   1.000  O
  O27      1.0000 0.86891  0.21185  0.39544  Biso   1.000  O
  O28      1.0000 0.42592  0.31576  0.42290  Biso   1.000  O
  O29      1.0000 0.77327  0.53585  0.69310  Biso   1.000  O
  O30      1.0000 0.86487  0.59546  0.65102  Biso   1.000  O
  O31      1.0000 0.82764  0.45827  0.63022  Biso   1.000  O
  O32      1.0000 0.69306  0.47682  0.64369  Biso   1.000  O
  O33      1.0000 0.83457  0.09474  0.59940  Biso   1.000  O
  O34      1.0000 0.70989  0.03958  0.58662  Biso   1.000  O
  O35      1.0000 0.82339  0.96353  0.62442  Biso   1.000  O
  O36      1.0000 0.69597  0.98123  0.65016  Biso   1.000  O
  O37      1.0000 0.23070  0.42763  0.09220  Biso   1.000  O
  O38      1.0000 0.29040  0.86375  0.14177  Biso   1.000  O
  O39      1.0000 0.13109  0.78815  0.89544  Biso   1.000  O
  O40      1.0000 0.57408  0.68424  0.92290  Biso   1.000  O
  O41      1.0000 0.22673  0.46415  0.19310  Biso   1.000  O
  O42      1.0000 0.13513  0.40454  0.15102  Biso   1.000  O
  O43      1.0000 0.17236  0.54173  0.13022  Biso   1.000  O
  O44      1.0000 0.30694  0.52318  0.14369  Biso   1.000  O
  O45      1.0000 0.16543  0.90526  0.09940  Biso   1.000  O
  O46      1.0000 0.29011  0.96042  0.08662  Biso   1.000  O
  O47      1.0000 0.17661  0.03647  0.12442  Biso   1.000  O
  O48      1.0000 0.30403  0.01877  0.15016  Biso   1.000  O
  F1       1.0000 0.07410  0.72753  0.01093  Biso   1.000  F
  F2       1.0000 0.97701  0.71960  0.00206  Biso   1.000  F
  F3       1.0000 0.02974  0.64192  0.01694  Biso   1.000  F
  F4       1.0000 0.85864  0.61352  0.84588  Biso   1.000  F
  F5       1.0000 0.78961  0.64956  0.88163  Biso   1.000  F
  F6       1.0000 0.85769  0.58401  0.89457  Biso   1.000  F
  F7       1.0000 0.85827  0.89868  0.87775  Biso   1.000  F
  F8       1.0000 0.91909  0.91150  0.91470  Biso   1.000  F
  F9       1.0000 0.82923  0.86142  0.92099  Biso   1.000  F
  F10      1.0000 0.57530  0.54760  0.81768  Biso   1.000  F
  F11      1.0000 0.66134  0.56918  0.82081  Biso   1.000  F
  F12      1.0000 0.60870  0.58542  0.77861  Biso   1.000  F
  F13      1.0000 0.56190  0.85750  0.77825  Biso   1.000  F
  F14      1.0000 0.51211  0.79234  0.75436  Biso   1.000  F
  F15      1.0000 0.47562  0.85147  0.78914  Biso   1.000  F
  F16      1.0000 0.35406  0.59335  0.89138  Biso   1.000  F
  F17      1.0000 0.36473  0.61303  0.84420  Biso   1.000  F
  F18      1.0000 0.29327  0.65723  0.86948  Biso   1.000  F
  F19      1.0000 0.40175  0.91558  0.90149  Biso   1.000  F
  F20      1.0000 0.33666  0.85492  0.93117  Biso   1.000  F
  F21      1.0000 0.92590  0.27247  0.51093  Biso   1.000  F
  F22      1.0000 0.02299  0.28040  0.50206  Biso   1.000  F
  F23      1.0000 0.97026  0.35808  0.51694  Biso   1.000  F
  F24      1.0000 0.14136  0.38648  0.34588  Biso   1.000  F
  F25      1.0000 0.21039  0.35044  0.38163  Biso   1.000  F
  F26      1.0000 0.14231  0.41599  0.39457  Biso   1.000  F
  F27      1.0000 0.14173  0.10132  0.37775  Biso   1.000  F
  F28      1.0000 0.08091  0.08850  0.41470  Biso   1.000  F
  F29      1.0000 0.17077  0.13858  0.42099  Biso   1.000  F
  F30      1.0000 0.42470  0.45240  0.31768  Biso   1.000  F
  F31      1.0000 0.33866  0.43082  0.32081  Biso   1.000  F
  F32      1.0000 0.39130  0.41458  0.27861  Biso   1.000  F
  F33      1.0000 0.43810  0.14250  0.27825  Biso   1.000  F
  F34      1.0000 0.48789  0.20766  0.25436  Biso   1.000  F
  F35      1.0000 0.52438  0.14853  0.28914  Biso   1.000  F
  F36      1.0000 0.64594  0.40665  0.39138  Biso   1.000  F
  F37      1.0000 0.63527  0.38697  0.34420  Biso   1.000  F
  F38      1.0000 0.70673  0.34277  0.36948  Biso   1.000  F
  F39      1.0000 0.59825  0.08442  0.40149  Biso   1.000  F
  F40      1.0000 0.66334  0.14508  0.43117  Biso   1.000  F
  F41      1.0000 0.77247  0.57410  0.76093  Biso   1.000  F
  F42      1.0000 0.78040  0.47701  0.75206  Biso   1.000  F
  F43      1.0000 0.85808  0.52974  0.76694  Biso   1.000  F
  F44      1.0000 0.88648  0.35864  0.59588  Biso   1.000  F
  F45      1.0000 0.85044  0.28961  0.63163  Biso   1.000  F
  F46      1.0000 0.91599  0.35769  0.64457  Biso   1.000  F
  F47      1.0000 0.60132  0.35827  0.62775  Biso   1.000  F
  F48      1.0000 0.58850  0.41909  0.66470  Biso   1.000  F
  F49      1.0000 0.63858  0.32923  0.67099  Biso   1.000  F
  F50      1.0000 0.95240  0.07530  0.56768  Biso   1.000  F
  F51      1.0000 0.93082  0.16134  0.57081  Biso   1.000  F
  F52      1.0000 0.91458  0.10870  0.52861  Biso   1.000  F
  F53      1.0000 0.64250  0.06190  0.52825  Biso   1.000  F
  F54      1.0000 0.70766  0.01211  0.50436  Biso   1.000  F
  F55      1.0000 0.64853  0.97562  0.53914  Biso   1.000  F
  F56      1.0000 0.90665  0.85406  0.64138  Biso   1.000  F
  F57      1.0000 0.88697  0.86473  0.59420  Biso   1.000  F
  F58      1.0000 0.84277  0.79327  0.61948  Biso   1.000  F
  F59      1.0000 0.58442  0.90175  0.65149  Biso   1.000  F
  F60      1.0000 0.64508  0.83666  0.68117  Biso   1.000  F
  F61      1.0000 0.22753  0.42590  0.26093  Biso   1.000  F
  F62      1.0000 0.21960  0.52299  0.25206  Biso   1.000  F
  F63      1.0000 0.14192  0.47026  0.26694  Biso   1.000  F
  F64      1.0000 0.11352  0.64136  0.09588  Biso   1.000  F
  F65      1.0000 0.14956  0.71039  0.13163  Biso   1.000  F
  F66      1.0000 0.08401  0.64231  0.14457  Biso   1.000  F
  F67      1.0000 0.39868  0.64173  0.12775  Biso   1.000  F
  F68      1.0000 0.41150  0.58091  0.16470  Biso   1.000  F
  F69      1.0000 0.36142  0.67077  0.17099  Biso   1.000  F
  F70      1.0000 0.04760  0.92470  0.06768  Biso   1.000  F
  F71      1.0000 0.06918  0.83866  0.07081  Biso   1.000  F
  F72      1.0000 0.08542  0.89130  0.02861  Biso   1.000  F
  F73      1.0000 0.35750  0.93810  0.02825  Biso   1.000  F
  F74      1.0000 0.29234  0.98789  0.00436  Biso   1.000  F
  F75      1.0000 0.35147  0.02438  0.03914  Biso   1.000  F
  F76      1.0000 0.09335  0.14594  0.14138  Biso   1.000  F
  F77      1.0000 0.11303  0.13527  0.09420  Biso   1.000  F
  F78      1.0000 0.15723  0.20673  0.11948  Biso   1.000  F
  F79      1.0000 0.41558  0.09825  0.15149  Biso   1.000  F
  F80      1.0000 0.35492  0.16334  0.18117  Biso   1.000  F
  Mn9      1.0000 0.45273  0.22723  0.85827  Biso   1.000  Mn
  Mn10     1.0000 0.94920  0.23600  0.86973  Biso   1.000  Mn
  Mn11     1.0000 0.54727  0.77277  0.35827  Biso   1.000  Mn
  Mn12     1.0000 0.05080  0.76400  0.36973  Biso   1.000  Mn
  Mn13     1.0000 0.72723  0.04727  0.10827  Biso   1.000  Mn
  Mn14     1.0000 0.73600  0.55080  0.11973  Biso   1.000  Mn
  Mn15     1.0000 0.27277  0.95273  0.60827  Biso   1.000  Mn
  Mn16     1.0000 0.26400  0.44920  0.61973  Biso   1.000  Mn
  H225     1.0000 0.63130  0.19050  0.99450  Biso   1.000  H
  H226     1.0000 0.54290  0.14300  0.97070  Biso   1.000  H
  H227     1.0000 0.50150  0.31290  0.92540  Biso   1.000  H
  H228     1.0000 0.59530  0.35930  0.94620  Biso   1.000  H
  H229     1.0000 0.49900  0.07650  0.94270  Biso   1.000  H
  H230     1.0000 0.43290  0.03600  0.93940  Biso   1.000  H
  H231     1.0000 0.46060  0.07540  0.90960  Biso   1.000  H
  H232     1.0000 0.34730  0.13810  0.90520  Biso   1.000  H
  H233     1.0000 0.31890  0.10290  0.93610  Biso   1.000  H
  H234     1.0000 0.32450  0.18040  0.93510  Biso   1.000  H
  H235     1.0000 0.44960  0.13530  0.99120  Biso   1.000  H
  H236     1.0000 0.38590  0.17870  0.98650  Biso   1.000  H
  H237     1.0000 0.38020  0.10120  0.98750  Biso   1.000  H
  H238     1.0000 0.74290  0.42530  0.95770  Biso   1.000  H
  H239     1.0000 0.80710  0.43700  0.91310  Biso   1.000  H
  H240     1.0000 0.79140  0.24390  0.89530  Biso   1.000  H
  H241     1.0000 0.72990  0.23300  0.94160  Biso   1.000  H
  H242     1.0000 0.90310  0.45260  0.89350  Biso   1.000  H
  H243     1.0000 0.95610  0.41060  0.87480  Biso   1.000  H
  H244     1.0000 0.93530  0.48050  0.86170  Biso   1.000  H
  H245     1.0000 0.85690  0.37000  0.80540  Biso   1.000  H
  H246     1.0000 0.90670  0.42950  0.80730  Biso   1.000  H
  H247     1.0000 0.92760  0.35960  0.82040  Biso   1.000  H
  H248     1.0000 0.78600  0.46610  0.86900  Biso   1.000  H
  H249     1.0000 0.81610  0.49410  0.83670  Biso   1.000  H
  H250     1.0000 0.76950  0.43200  0.83580  Biso   1.000  H
  H251     1.0000 0.81020  0.25380  0.98550  Biso   1.000  H
  H252     1.0000 0.86430  0.19040  0.02360  Biso   1.000  H
  H253     1.0000 0.70750  0.20370  0.08240  Biso   1.000  H
  H254     1.0000 0.65690  0.26860  0.04610  Biso   1.000  H
  H255     1.0000 0.95810  0.08970  0.11770  Biso   1.000  H
  H256     1.0000 0.90440  0.13830  0.13150  Biso   1.000  H
  H257     1.0000 0.88390  0.06700  0.12010  Biso   1.000  H
  H258     1.0000 0.90290  0.09790  0.03370  Biso   1.000  H
  H259     1.0000 0.95690  0.06440  0.05560  Biso   1.000  H
  H260     1.0000 0.88270  0.04190  0.05810  Biso   1.000  H
  H261     1.0000 0.93430  0.21180  0.05430  Biso   1.000  H
  H262     1.0000 0.92940  0.22730  0.09150  Biso   1.000  H
  H263     1.0000 0.98790  0.18400  0.07820  Biso   1.000  H
  H264     1.0000 0.76610  0.40920  0.01130  Biso   1.000  H
  H265     1.0000 0.74410  0.50320  0.04090  Biso   1.000  H
  H266     1.0000 0.55110  0.45170  0.04290  Biso   1.000  H
  H267     1.0000 0.57330  0.36340  0.01010  Biso   1.000  H
  H268     1.0000 0.55410  0.52950  0.11630  Biso   1.000  H
  H269     1.0000 0.48620  0.55360  0.10200  Biso   1.000  H
  H270     1.0000 0.52140  0.49100  0.08740  Biso   1.000  H
  H271     1.0000 0.48420  0.60660  0.04570  Biso   1.000  H
  H272     1.0000 0.55120  0.61580  0.02690  Biso   1.000  H
  H273     1.0000 0.52050  0.54480  0.03090  Biso   1.000  H
  H274     1.0000 0.60080  0.63950  0.10720  Biso   1.000  H
  H275     1.0000 0.60200  0.67080  0.07240  Biso   1.000  H
  H276     1.0000 0.53500  0.66530  0.09140  Biso   1.000  H
  H277     1.0000 0.42820  0.08550  0.77700  Biso   1.000  H
  H278     1.0000 0.66760  0.25750  0.85300  Biso   1.000  H
  H279     1.0000 0.94400  0.19640  0.97340  Biso   1.000  H
  H280     1.0000 0.16590  0.25430  0.86130  Biso   1.000  H
  H281     1.0000 0.36870  0.80950  0.49450  Biso   1.000  H
  H282     1.0000 0.45710  0.85700  0.47070  Biso   1.000  H
  H283     1.0000 0.49850  0.68710  0.42540  Biso   1.000  H
  H284     1.0000 0.40470  0.64070  0.44620  Biso   1.000  H
  H285     1.0000 0.50100  0.92350  0.44270  Biso   1.000  H
  H286     1.0000 0.56710  0.96400  0.43940  Biso   1.000  H
  H287     1.0000 0.53940  0.92460  0.40960  Biso   1.000  H
  H288     1.0000 0.65270  0.86190  0.40520  Biso   1.000  H
  H289     1.0000 0.68110  0.89710  0.43610  Biso   1.000  H
  H290     1.0000 0.67550  0.81960  0.43510  Biso   1.000  H
  H291     1.0000 0.55040  0.86470  0.49120  Biso   1.000  H
  H292     1.0000 0.61410  0.82130  0.48650  Biso   1.000  H
  H293     1.0000 0.61980  0.89880  0.48750  Biso   1.000  H
  H294     1.0000 0.25710  0.57470  0.45770  Biso   1.000  H
  H295     1.0000 0.19290  0.56300  0.41310  Biso   1.000  H
  H296     1.0000 0.20860  0.75610  0.39530  Biso   1.000  H
  H297     1.0000 0.27010  0.76700  0.44160  Biso   1.000  H
  H298     1.0000 0.09690  0.54740  0.39350  Biso   1.000  H
  H299     1.0000 0.04390  0.58940  0.37480  Biso   1.000  H
  H300     1.0000 0.06470  0.51950  0.36170  Biso   1.000  H
  H301     1.0000 0.14310  0.63000  0.30540  Biso   1.000  H
  H302     1.0000 0.09330  0.57050  0.30730  Biso   1.000  H
  H303     1.0000 0.07240  0.64040  0.32040  Biso   1.000  H
  H304     1.0000 0.21400  0.53390  0.36900  Biso   1.000  H
  H305     1.0000 0.18390  0.50590  0.33670  Biso   1.000  H
  H306     1.0000 0.23050  0.56800  0.33580  Biso   1.000  H
  H307     1.0000 0.18980  0.74620  0.48550  Biso   1.000  H
  H308     1.0000 0.13570  0.80960  0.52360  Biso   1.000  H
  H309     1.0000 0.29250  0.79630  0.58240  Biso   1.000  H
  H310     1.0000 0.34310  0.73140  0.54610  Biso   1.000  H
  H311     1.0000 0.04190  0.91030  0.61770  Biso   1.000  H
  H312     1.0000 0.09560  0.86170  0.63150  Biso   1.000  H
  H313     1.0000 0.11610  0.93300  0.62010  Biso   1.000  H
  H314     1.0000 0.09710  0.90210  0.53370  Biso   1.000  H
  H315     1.0000 0.04310  0.93560  0.55560  Biso   1.000  H
  H316     1.0000 0.11730  0.95810  0.55810  Biso   1.000  H
  H317     1.0000 0.06570  0.78820  0.55430  Biso   1.000  H
  H318     1.0000 0.07060  0.77270  0.59150  Biso   1.000  H
  H319     1.0000 0.01210  0.81600  0.57820  Biso   1.000  H
  H320     1.0000 0.23390  0.59080  0.51130  Biso   1.000  H
  H321     1.0000 0.25590  0.49680  0.54090  Biso   1.000  H
  H322     1.0000 0.44890  0.54830  0.54290  Biso   1.000  H
  H323     1.0000 0.42670  0.63660  0.51010  Biso   1.000  H
  H324     1.0000 0.44590  0.47050  0.61630  Biso   1.000  H
  H325     1.0000 0.51380  0.44640  0.60200  Biso   1.000  H
  H326     1.0000 0.47860  0.50900  0.58740  Biso   1.000  H
  H327     1.0000 0.51580  0.39340  0.54570  Biso   1.000  H
  H328     1.0000 0.44880  0.38420  0.52690  Biso   1.000  H
  H329     1.0000 0.47950  0.45520  0.53090  Biso   1.000  H
  H330     1.0000 0.39920  0.36050  0.60720  Biso   1.000  H
  H331     1.0000 0.39800  0.32920  0.57240  Biso   1.000  H
  H332     1.0000 0.46500  0.33470  0.59140  Biso   1.000  H
  H333     1.0000 0.57180  0.91450  0.27700  Biso   1.000  H
  H334     1.0000 0.33240  0.74250  0.35300  Biso   1.000  H
  H335     1.0000 0.05600  0.80360  0.47340  Biso   1.000  H
  H336     1.0000 0.83410  0.74570  0.36130  Biso   1.000  H
  H337     1.0000 0.69050  0.86870  0.24450  Biso   1.000  H
  H338     1.0000 0.64300  0.95710  0.22070  Biso   1.000  H
  H339     1.0000 0.81290  0.99850  0.17540  Biso   1.000  H
  H340     1.0000 0.85930  0.90470  0.19620  Biso   1.000  H
  H341     1.0000 0.57650  0.00100  0.19270  Biso   1.000  H
  H342     1.0000 0.53600  0.06710  0.18940  Biso   1.000  H
  H343     1.0000 0.57540  0.03940  0.15960  Biso   1.000  H
  H344     1.0000 0.63810  0.15270  0.15520  Biso   1.000  H
  H345     1.0000 0.60290  0.18110  0.18610  Biso   1.000  H
  H346     1.0000 0.68040  0.17550  0.18510  Biso   1.000  H
  H347     1.0000 0.63530  0.05040  0.24120  Biso   1.000  H
  H348     1.0000 0.67870  0.11410  0.23650  Biso   1.000  H
  H349     1.0000 0.60120  0.11980  0.23750  Biso   1.000  H
  H350     1.0000 0.92530  0.75710  0.20770  Biso   1.000  H
  H351     1.0000 0.93700  0.69290  0.16310  Biso   1.000  H
  H352     1.0000 0.74390  0.70860  0.14530  Biso   1.000  H
  H353     1.0000 0.73300  0.77010  0.19160  Biso   1.000  H
  H354     1.0000 0.95260  0.59690  0.14350  Biso   1.000  H
  H355     1.0000 0.91060  0.54390  0.12480  Biso   1.000  H
  H356     1.0000 0.98050  0.56470  0.11170  Biso   1.000  H
  H357     1.0000 0.87000  0.64310  0.05540  Biso   1.000  H
  H358     1.0000 0.92950  0.59330  0.05730  Biso   1.000  H
  H359     1.0000 0.85960  0.57240  0.07040  Biso   1.000  H
  H360     1.0000 0.96610  0.71400  0.11900  Biso   1.000  H
  H361     1.0000 0.99410  0.68390  0.08670  Biso   1.000  H
  H362     1.0000 0.93200  0.73050  0.08580  Biso   1.000  H
  H363     1.0000 0.75380  0.68980  0.23550  Biso   1.000  H
  H364     1.0000 0.69040  0.63570  0.27360  Biso   1.000  H
  H365     1.0000 0.70370  0.79250  0.33240  Biso   1.000  H
  H366     1.0000 0.76860  0.84310  0.29610  Biso   1.000  H
  H367     1.0000 0.58970  0.54190  0.36770  Biso   1.000  H
  H368     1.0000 0.63830  0.59560  0.38150  Biso   1.000  H
  H369     1.0000 0.56700  0.61610  0.37010  Biso   1.000  H
  H370     1.0000 0.59790  0.59710  0.28370  Biso   1.000  H
  H371     1.0000 0.56440  0.54310  0.30560  Biso   1.000  H
  H372     1.0000 0.54190  0.61730  0.30810  Biso   1.000  H
  H373     1.0000 0.71180  0.56570  0.30430  Biso   1.000  H
  H374     1.0000 0.72730  0.57060  0.34150  Biso   1.000  H
  H375     1.0000 0.68400  0.51210  0.32820  Biso   1.000  H
  H376     1.0000 0.90920  0.73390  0.26130  Biso   1.000  H
  H377     1.0000 0.00320  0.75590  0.29090  Biso   1.000  H
  H378     1.0000 0.95170  0.94890  0.29290  Biso   1.000  H
  H379     1.0000 0.86340  0.92670  0.26010  Biso   1.000  H
  H380     1.0000 0.02950  0.94590  0.36630  Biso   1.000  H
  H381     1.0000 0.05360  0.01380  0.35200  Biso   1.000  H
  H382     1.0000 0.99100  0.97860  0.33740  Biso   1.000  H
  H383     1.0000 0.10660  0.01580  0.29570  Biso   1.000  H
  H384     1.0000 0.11580  0.94880  0.27690  Biso   1.000  H
  H385     1.0000 0.04480  0.97950  0.28090  Biso   1.000  H
  H386     1.0000 0.13950  0.89920  0.35720  Biso   1.000  H
  H387     1.0000 0.17080  0.89800  0.32240  Biso   1.000  H
  H388     1.0000 0.16530  0.96500  0.34140  Biso   1.000  H
  H389     1.0000 0.58550  0.07180  0.02700  Biso   1.000  H
  H390     1.0000 0.75750  0.83240  0.10300  Biso   1.000  H
  H391     1.0000 0.69640  0.55600  0.22340  Biso   1.000  H
  H392     1.0000 0.75430  0.33410  0.11130  Biso   1.000  H
  H393     1.0000 0.30950  0.13130  0.74450  Biso   1.000  H
  H394     1.0000 0.35700  0.04290  0.72070  Biso   1.000  H
  H395     1.0000 0.18710  0.00150  0.67540  Biso   1.000  H
  H396     1.0000 0.14070  0.09530  0.69620  Biso   1.000  H
  H397     1.0000 0.42350  0.99900  0.69270  Biso   1.000  H
  H398     1.0000 0.46400  0.93290  0.68940  Biso   1.000  H
  H399     1.0000 0.42460  0.96060  0.65960  Biso   1.000  H
  H400     1.0000 0.36190  0.84730  0.65520  Biso   1.000  H
  H401     1.0000 0.39710  0.81890  0.68610  Biso   1.000  H
  H402     1.0000 0.31960  0.82450  0.68510  Biso   1.000  H
  H403     1.0000 0.36470  0.94960  0.74120  Biso   1.000  H
  H404     1.0000 0.32130  0.88590  0.73650  Biso   1.000  H
  H405     1.0000 0.39880  0.88020  0.73750  Biso   1.000  H
  H406     1.0000 0.07470  0.24290  0.70770  Biso   1.000  H
  H407     1.0000 0.06300  0.30710  0.66310  Biso   1.000  H
  H408     1.0000 0.25610  0.29140  0.64530  Biso   1.000  H
  H409     1.0000 0.26700  0.22990  0.69160  Biso   1.000  H
  H410     1.0000 0.04740  0.40310  0.64350  Biso   1.000  H
  H411     1.0000 0.08940  0.45610  0.62480  Biso   1.000  H
  H412     1.0000 0.01950  0.43530  0.61170  Biso   1.000  H
  H413     1.0000 0.13000  0.35690  0.55540  Biso   1.000  H
  H414     1.0000 0.07050  0.40670  0.55730  Biso   1.000  H
  H415     1.0000 0.14040  0.42760  0.57040  Biso   1.000  H
  H416     1.0000 0.03390  0.28600  0.61900  Biso   1.000  H
  H417     1.0000 0.00590  0.31610  0.58670  Biso   1.000  H
  H418     1.0000 0.06800  0.26950  0.58580  Biso   1.000  H
  H419     1.0000 0.24620  0.31020  0.73550  Biso   1.000  H
  H420     1.0000 0.30960  0.36430  0.77360  Biso   1.000  H
  H421     1.0000 0.29630  0.20750  0.83240  Biso   1.000  H
  H422     1.0000 0.23140  0.15690  0.79610  Biso   1.000  H
  H423     1.0000 0.41030  0.45810  0.86770  Biso   1.000  H
  H424     1.0000 0.36170  0.40440  0.88150  Biso   1.000  H
  H425     1.0000 0.43300  0.38390  0.87010  Biso   1.000  H
  H426     1.0000 0.40210  0.40290  0.78370  Biso   1.000  H
  H427     1.0000 0.43560  0.45690  0.80560  Biso   1.000  H
  H428     1.0000 0.45810  0.38270  0.80810  Biso   1.000  H
  H429     1.0000 0.28820  0.43430  0.80430  Biso   1.000  H
  H430     1.0000 0.27270  0.42940  0.84150  Biso   1.000  H
  H431     1.0000 0.31600  0.48790  0.82820  Biso   1.000  H
  H432     1.0000 0.09080  0.26610  0.76130  Biso   1.000  H
  H433     1.0000 0.99680  0.24410  0.79090  Biso   1.000  H
  H434     1.0000 0.04830  0.05110  0.79290  Biso   1.000  H
  H435     1.0000 0.13660  0.07330  0.76010  Biso   1.000  H
  H436     1.0000 0.97050  0.05410  0.86630  Biso   1.000  H
  H437     1.0000 0.94640  0.98620  0.85200  Biso   1.000  H
  H438     1.0000 0.00900  0.02140  0.83740  Biso   1.000  H
  H439     1.0000 0.89340  0.98420  0.79570  Biso   1.000  H
  H440     1.0000 0.88420  0.05120  0.77690  Biso   1.000  H
  H441     1.0000 0.95520  0.02050  0.78090  Biso   1.000  H
  H442     1.0000 0.86050  0.10080  0.85720  Biso   1.000  H
  H443     1.0000 0.82920  0.10200  0.82240  Biso   1.000  H
  H444     1.0000 0.83470  0.03500  0.84140  Biso   1.000  H
  H445     1.0000 0.41450  0.92820  0.52700  Biso   1.000  H
  H446     1.0000 0.24250  0.16760  0.60300  Biso   1.000  H
  H447     1.0000 0.30360  0.44400  0.72340  Biso   1.000  H
  H448     1.0000 0.24570  0.66590  0.61130  Biso   1.000  H
  C241     1.0000 0.68914  0.31381  0.98633  Biso   1.000  C
  C242     1.0000 0.62536  0.28071  0.97346  Biso   1.000  C
  C243     1.0000 0.60595  0.21534  0.98008  Biso   1.000  C
  C244     1.0000 0.55265  0.18723  0.96661  Biso   1.000  C
  C245     1.0000 0.51187  0.22429  0.94645  Biso   1.000  C
  C246     1.0000 0.52844  0.28823  0.93912  Biso   1.000  C
  C247     1.0000 0.58415  0.31612  0.95182  Biso   1.000  C
  C248     1.0000 0.41716  0.13512  0.94307  Biso   1.000  C
  C249     1.0000 0.45590  0.07539  0.93277  Biso   1.000  C
  C250     1.0000 0.34486  0.13958  0.92840  Biso   1.000  C
  C251     1.0000 0.40726  0.13790  0.98070  Biso   1.000  C
  C252     1.0000 0.73067  0.32802  0.95588  Biso   1.000  C
  C253     1.0000 0.75339  0.38783  0.94562  Biso   1.000  C
  C254     1.0000 0.79080  0.39525  0.91841  Biso   1.000  C
  C255     1.0000 0.80487  0.34233  0.89866  Biso   1.000  C
  C256     1.0000 0.78207  0.28099  0.90790  Biso   1.000  C
  C257     1.0000 0.74544  0.27476  0.93586  Biso   1.000  C
  C258     1.0000 0.86403  0.40860  0.85211  Biso   1.000  C
  C259     1.0000 0.91998  0.44121  0.87248  Biso   1.000  C
  C260     1.0000 0.89141  0.39017  0.81805  Biso   1.000  C
  C261     1.0000 0.80310  0.45457  0.84803  Biso   1.000  C
  C262     1.0000 0.72697  0.26943  0.01074  Biso   1.000  C
  C263     1.0000 0.78938  0.24466  0.00509  Biso   1.000  C
  C264     1.0000 0.82200  0.20621  0.02807  Biso   1.000  C
  C265     1.0000 0.79275  0.19112  0.05737  Biso   1.000  C
  C266     1.0000 0.72906  0.21450  0.06316  Biso   1.000  C
  C267     1.0000 0.69890  0.25234  0.04120  Biso   1.000  C
  C268     1.0000 0.89953  0.13104  0.08077  Biso   1.000  C
  C269     1.0000 0.91277  0.10386  0.11594  Biso   1.000  C
  C270     1.0000 0.91164  0.07900  0.05459  Biso   1.000  C
  C271     1.0000 0.94183  0.19459  0.07574  Biso   1.000  C
  C272     1.0000 0.67194  0.37664  0.00656  Biso   1.000  C
  C273     1.0000 0.72250  0.41892  0.01691  Biso   1.000  C
  C274     1.0000 0.70968  0.47477  0.03519  Biso   1.000  C
  C275     1.0000 0.64408  0.48869  0.04525  Biso   1.000  C
  C276     1.0000 0.59438  0.44455  0.03588  Biso   1.000  C
  C277     1.0000 0.60783  0.39089  0.01659  Biso   1.000  C
  C278     1.0000 0.56510  0.57788  0.07287  Biso   1.000  C
  C279     1.0000 0.52831  0.53392  0.09687  Biso   1.000  C
  C280     1.0000 0.52664  0.58712  0.04111  Biso   1.000  C
  C281     1.0000 0.57676  0.64422  0.08723  Biso   1.000  C
  C282     1.0000 0.47210  0.19090  0.75223  Biso   1.000  C
  C283     1.0000 0.45418  0.17905  0.78732  Biso   1.000  C
  C284     1.0000 0.42921  0.11683  0.79355  Biso   1.000  C
  C285     1.0000 0.40604  0.10055  0.82347  Biso   1.000  C
  C286     1.0000 0.64899  0.13559  0.87332  Biso   1.000  C
  C287     1.0000 0.60233  0.18965  0.86646  Biso   1.000  C
  C288     1.0000 0.62267  0.25141  0.85712  Biso   1.000  C
  C289     1.0000 0.58327  0.30294  0.85353  Biso   1.000  C
  C290     1.0000 0.61693  0.36886  0.84570  Biso   1.000  C
  C291     1.0000 0.89240  0.09181  0.94210  Biso   1.000  C
  C292     1.0000 0.91373  0.16027  0.93015  Biso   1.000  C
  C293     1.0000 0.94008  0.20673  0.95153  Biso   1.000  C
  C294     1.0000 0.95992  0.26646  0.94067  Biso   1.000  C
  C295     1.0000 0.97970  0.31020  0.96476  Biso   1.000  C
  C296     1.0000 0.14530  0.14539  0.87984  Biso   1.000  C
  C297     1.0000 0.09638  0.19292  0.87095  Biso   1.000  C
  C298     1.0000 0.12018  0.24845  0.86097  Biso   1.000  C
  C299     1.0000 0.08104  0.29980  0.84982  Biso   1.000  C
  C300     1.0000 0.12490  0.36449  0.84251  Biso   1.000  C
  C301     1.0000 0.31086  0.68619  0.48633  Biso   1.000  C
  C302     1.0000 0.37464  0.71929  0.47346  Biso   1.000  C
  C303     1.0000 0.39405  0.78466  0.48008  Biso   1.000  C
  C304     1.0000 0.44735  0.81277  0.46661  Biso   1.000  C
  C305     1.0000 0.48813  0.77571  0.44645  Biso   1.000  C
  C306     1.0000 0.47156  0.71177  0.43912  Biso   1.000  C
  C307     1.0000 0.41585  0.68388  0.45182  Biso   1.000  C
  C308     1.0000 0.58284  0.86488  0.44307  Biso   1.000  C
  C309     1.0000 0.54410  0.92461  0.43277  Biso   1.000  C
  C310     1.0000 0.65514  0.86042  0.42840  Biso   1.000  C
  C311     1.0000 0.59274  0.86210  0.48070  Biso   1.000  C
  C312     1.0000 0.26933  0.67198  0.45588  Biso   1.000  C
  C313     1.0000 0.24661  0.61217  0.44562  Biso   1.000  C
  C314     1.0000 0.20920  0.60475  0.41841  Biso   1.000  C
  C315     1.0000 0.19513  0.65767  0.39866  Biso   1.000  C
  C316     1.0000 0.21793  0.71901  0.40790  Biso   1.000  C
  C317     1.0000 0.25456  0.72524  0.43586  Biso   1.000  C
  C318     1.0000 0.13597  0.59140  0.35211  Biso   1.000  C
  C319     1.0000 0.08002  0.55879  0.37248  Biso   1.000  C
  C320     1.0000 0.10859  0.60983  0.31805  Biso   1.000  C
  C321     1.0000 0.19690  0.54543  0.34803  Biso   1.000  C
  C322     1.0000 0.27303  0.73057  0.51074  Biso   1.000  C
  C323     1.0000 0.21062  0.75534  0.50509  Biso   1.000  C
  C324     1.0000 0.17800  0.79379  0.52807  Biso   1.000  C
  C325     1.0000 0.20725  0.80888  0.55737  Biso   1.000  C
  C326     1.0000 0.27094  0.78550  0.56316  Biso   1.000  C
  C327     1.0000 0.30110  0.74766  0.54120  Biso   1.000  C
  C328     1.0000 0.10047  0.86896  0.58077  Biso   1.000  C
  C329     1.0000 0.08723  0.89614  0.61594  Biso   1.000  C
  C330     1.0000 0.08836  0.92100  0.55459  Biso   1.000  C
  C331     1.0000 0.05817  0.80541  0.57574  Biso   1.000  C
  C332     1.0000 0.32806  0.62336  0.50656  Biso   1.000  C
  C333     1.0000 0.27750  0.58108  0.51691  Biso   1.000  C
  C334     1.0000 0.29032  0.52523  0.53519  Biso   1.000  C
  C335     1.0000 0.35592  0.51131  0.54525  Biso   1.000  C
  C336     1.0000 0.40562  0.55545  0.53588  Biso   1.000  C
  C337     1.0000 0.39217  0.60911  0.51659  Biso   1.000  C
  C338     1.0000 0.43490  0.42212  0.57287  Biso   1.000  C
  C339     1.0000 0.47169  0.46608  0.59687  Biso   1.000  C
  C340     1.0000 0.47336  0.41288  0.54111  Biso   1.000  C
  C341     1.0000 0.42324  0.35578  0.58723  Biso   1.000  C
  C342     1.0000 0.52790  0.80910  0.25223  Biso   1.000  C
  C343     1.0000 0.54582  0.82095  0.28732  Biso   1.000  C
  C344     1.0000 0.57079  0.88317  0.29355  Biso   1.000  C
  C345     1.0000 0.59396  0.89945  0.32347  Biso   1.000  C
  C346     1.0000 0.35101  0.86441  0.37332  Biso   1.000  C
  C347     1.0000 0.39767  0.81035  0.36646  Biso   1.000  C
  C348     1.0000 0.37733  0.74859  0.35712  Biso   1.000  C
  C349     1.0000 0.41673  0.69706  0.35353  Biso   1.000  C
  C350     1.0000 0.38307  0.63114  0.34570  Biso   1.000  C
  C351     1.0000 0.10760  0.90819  0.44210  Biso   1.000  C
  C352     1.0000 0.08627  0.83973  0.43015  Biso   1.000  C
  C353     1.0000 0.05992  0.79327  0.45153  Biso   1.000  C
  C354     1.0000 0.04008  0.73354  0.44067  Biso   1.000  C
  C355     1.0000 0.02030  0.68980  0.46476  Biso   1.000  C
  C356     1.0000 0.85470  0.85461  0.37984  Biso   1.000  C
  C357     1.0000 0.90362  0.80708  0.37095  Biso   1.000  C
  C358     1.0000 0.87982  0.75155  0.36097  Biso   1.000  C
  C359     1.0000 0.91896  0.70020  0.34982  Biso   1.000  C
  C360     1.0000 0.87510  0.63551  0.34251  Biso   1.000  C
  C361     1.0000 0.81381  0.81086  0.23633  Biso   1.000  C
  C362     1.0000 0.78071  0.87464  0.22346  Biso   1.000  C
  C363     1.0000 0.71534  0.89405  0.23008  Biso   1.000  C
  C364     1.0000 0.68723  0.94735  0.21661  Biso   1.000  C
  C365     1.0000 0.72429  0.98813  0.19645  Biso   1.000  C
  C366     1.0000 0.78823  0.97156  0.18912  Biso   1.000  C
  C367     1.0000 0.81612  0.91585  0.20182  Biso   1.000  C
  C368     1.0000 0.63512  0.08284  0.19307  Biso   1.000  C
  C369     1.0000 0.57539  0.04410  0.18277  Biso   1.000  C
  C370     1.0000 0.63958  0.15514  0.17840  Biso   1.000  C
  C371     1.0000 0.63790  0.09274  0.23070  Biso   1.000  C
  C372     1.0000 0.82802  0.76933  0.20588  Biso   1.000  C
  C373     1.0000 0.88783  0.74661  0.19562  Biso   1.000  C
  C374     1.0000 0.89525  0.70920  0.16841  Biso   1.000  C
  C375     1.0000 0.84233  0.69513  0.14866  Biso   1.000  C
  C376     1.0000 0.78099  0.71793  0.15790  Biso   1.000  C
  C377     1.0000 0.77476  0.75456  0.18586  Biso   1.000  C
  C378     1.0000 0.90860  0.63597  0.10211  Biso   1.000  C
  C379     1.0000 0.94121  0.58002  0.12248  Biso   1.000  C
  C380     1.0000 0.89017  0.60859  0.06805  Biso   1.000  C
  C381     1.0000 0.95457  0.69690  0.09803  Biso   1.000  C
  C382     1.0000 0.76943  0.77303  0.26074  Biso   1.000  C
  C383     1.0000 0.74466  0.71062  0.25509  Biso   1.000  C
  C384     1.0000 0.70621  0.67800  0.27807  Biso   1.000  C
  C385     1.0000 0.69112  0.70725  0.30737  Biso   1.000  C
  C386     1.0000 0.71450  0.77094  0.31316  Biso   1.000  C
  C387     1.0000 0.75234  0.80110  0.29120  Biso   1.000  C
  C388     1.0000 0.63104  0.60047  0.33077  Biso   1.000  C
  C389     1.0000 0.60386  0.58723  0.36594  Biso   1.000  C
  C390     1.0000 0.57900  0.58836  0.30459  Biso   1.000  C
  C391     1.0000 0.69459  0.55817  0.32574  Biso   1.000  C
  C392     1.0000 0.87664  0.82806  0.25656  Biso   1.000  C
  C393     1.0000 0.91892  0.77750  0.26691  Biso   1.000  C
  C394     1.0000 0.97477  0.79032  0.28519  Biso   1.000  C
  C395     1.0000 0.98869  0.85592  0.29525  Biso   1.000  C
  C396     1.0000 0.94455  0.90562  0.28588  Biso   1.000  C
  C397     1.0000 0.89089  0.89217  0.26659  Biso   1.000  C
  C398     1.0000 0.07788  0.93490  0.32287  Biso   1.000  C
  C399     1.0000 0.03392  0.97169  0.34687  Biso   1.000  C
  C400     1.0000 0.08712  0.97336  0.29111  Biso   1.000  C
  C401     1.0000 0.14422  0.92324  0.33723  Biso   1.000  C
  C402     1.0000 0.69090  0.02790  0.00223  Biso   1.000  C
  C403     1.0000 0.67905  0.04582  0.03732  Biso   1.000  C
  C404     1.0000 0.61683  0.07079  0.04355  Biso   1.000  C
  C405     1.0000 0.60055  0.09396  0.07347  Biso   1.000  C
  C406     1.0000 0.63559  0.85101  0.12332  Biso   1.000  C
  C407     1.0000 0.68965  0.89767  0.11646  Biso   1.000  C
  C408     1.0000 0.75141  0.87733  0.10712  Biso   1.000  C
  C409     1.0000 0.80294  0.91673  0.10353  Biso   1.000  C
  C410     1.0000 0.86886  0.88307  0.09570  Biso   1.000  C
  C411     1.0000 0.59181  0.60760  0.19210  Biso   1.000  C
  C412     1.0000 0.66027  0.58627  0.18015  Biso   1.000  C
  C413     1.0000 0.70673  0.55992  0.20153  Biso   1.000  C
  C414     1.0000 0.76646  0.54008  0.19067  Biso   1.000  C
  C415     1.0000 0.81020  0.52030  0.21476  Biso   1.000  C
  C416     1.0000 0.64539  0.35470  0.12984  Biso   1.000  C
  C417     1.0000 0.69292  0.40362  0.12095  Biso   1.000  C
  C418     1.0000 0.74845  0.37982  0.11097  Biso   1.000  C
  C419     1.0000 0.79980  0.41896  0.09982  Biso   1.000  C
  C420     1.0000 0.86449  0.37510  0.09251  Biso   1.000  C
  C421     1.0000 0.18619  0.18914  0.73633  Biso   1.000  C
  C422     1.0000 0.21929  0.12536  0.72346  Biso   1.000  C
  C423     1.0000 0.28466  0.10595  0.73008  Biso   1.000  C
  C424     1.0000 0.31277  0.05265  0.71661  Biso   1.000  C
  C425     1.0000 0.27571  0.01187  0.69645  Biso   1.000  C
  C426     1.0000 0.21177  0.02844  0.68912  Biso   1.000  C
  C427     1.0000 0.18388  0.08415  0.70182  Biso   1.000  C
  C428     1.0000 0.36488  0.91716  0.69307  Biso   1.000  C
  C429     1.0000 0.42461  0.95590  0.68277  Biso   1.000  C
  C430     1.0000 0.36042  0.84486  0.67840  Biso   1.000  C
  C431     1.0000 0.36210  0.90726  0.73070  Biso   1.000  C
  C432     1.0000 0.17198  0.23067  0.70588  Biso   1.000  C
  C433     1.0000 0.11217  0.25339  0.69562  Biso   1.000  C
  C434     1.0000 0.10475  0.29080  0.66841  Biso   1.000  C
  C435     1.0000 0.15767  0.30487  0.64866  Biso   1.000  C
  C436     1.0000 0.21901  0.28207  0.65790  Biso   1.000  C
  C437     1.0000 0.22524  0.24544  0.68586  Biso   1.000  C
  C438     1.0000 0.09140  0.36403  0.60211  Biso   1.000  C
  C439     1.0000 0.05879  0.41998  0.62248  Biso   1.000  C
  C440     1.0000 0.10983  0.39141  0.56805  Biso   1.000  C
  C441     1.0000 0.04543  0.30310  0.59803  Biso   1.000  C
  C442     1.0000 0.23057  0.22697  0.76074  Biso   1.000  C
  C443     1.0000 0.25534  0.28938  0.75509  Biso   1.000  C
  C444     1.0000 0.29379  0.32200  0.77807  Biso   1.000  C
  C445     1.0000 0.30888  0.29275  0.80737  Biso   1.000  C
  C446     1.0000 0.28550  0.22906  0.81316  Biso   1.000  C
  C447     1.0000 0.24766  0.19890  0.79120  Biso   1.000  C
  C448     1.0000 0.36896  0.39953  0.83077  Biso   1.000  C
  C449     1.0000 0.39614  0.41277  0.86594  Biso   1.000  C
  C450     1.0000 0.42100  0.41164  0.80459  Biso   1.000  C
  C451     1.0000 0.30541  0.44183  0.82574  Biso   1.000  C
  C452     1.0000 0.12336  0.17194  0.75656  Biso   1.000  C
  C453     1.0000 0.08108  0.22250  0.76691  Biso   1.000  C
  C454     1.0000 0.02523  0.20968  0.78519  Biso   1.000  C
  C455     1.0000 0.01131  0.14408  0.79525  Biso   1.000  C
  C456     1.0000 0.05545  0.09438  0.78588  Biso   1.000  C
  C457     1.0000 0.10911  0.10783  0.76659  Biso   1.000  C
  C458     1.0000 0.92212  0.06510  0.82287  Biso   1.000  C
  C459     1.0000 0.96608  0.02831  0.84687  Biso   1.000  C
  C460     1.0000 0.91288  0.02664  0.79111  Biso   1.000  C
  C461     1.0000 0.85578  0.07676  0.83723  Biso   1.000  C
  C462     1.0000 0.30910  0.97210  0.50223  Biso   1.000  C
  C463     1.0000 0.32095  0.95418  0.53732  Biso   1.000  C
  C464     1.0000 0.38317  0.92921  0.54355  Biso   1.000  C
  C465     1.0000 0.39945  0.90604  0.57347  Biso   1.000  C
  C466     1.0000 0.36441  0.14899  0.62332  Biso   1.000  C
  C467     1.0000 0.31035  0.10233  0.61646  Biso   1.000  C
  C468     1.0000 0.24859  0.12267  0.60712  Biso   1.000  C
  C469     1.0000 0.19706  0.08327  0.60353  Biso   1.000  C
  C470     1.0000 0.13114  0.11693  0.59570  Biso   1.000  C
  C471     1.0000 0.40819  0.39240  0.69210  Biso   1.000  C
  C472     1.0000 0.33973  0.41373  0.68015  Biso   1.000  C
  C473     1.0000 0.29327  0.44008  0.70153  Biso   1.000  C
  C474     1.0000 0.23354  0.45992  0.69067  Biso   1.000  C
  C475     1.0000 0.18980  0.47970  0.71476  Biso   1.000  C
  C476     1.0000 0.35461  0.64530  0.62984  Biso   1.000  C
  C477     1.0000 0.30708  0.59638  0.62095  Biso   1.000  C
  C478     1.0000 0.25155  0.62018  0.61097  Biso   1.000  C
  C479     1.0000 0.20020  0.58104  0.59982  Biso   1.000  C
  C480     1.0000 0.13551  0.62490  0.59251  Biso   1.000  C
  N17      1.0000 0.45272  0.19672  0.93166  Biso   1.000  N
  N18      1.0000 0.84386  0.34570  0.87052  Biso   1.000  N
  N19      1.0000 0.82497  0.15216  0.08109  Biso   1.000  N
  N20      1.0000 0.63234  0.54683  0.06472  Biso   1.000  N
  N21      1.0000 0.54728  0.80328  0.43166  Biso   1.000  N
  N22      1.0000 0.15614  0.65430  0.37052  Biso   1.000  N
  N23      1.0000 0.17503  0.84784  0.58109  Biso   1.000  N
  N24      1.0000 0.36766  0.45317  0.56472  Biso   1.000  N
  N25      1.0000 0.69672  0.04728  0.18166  Biso   1.000  N
  N26      1.0000 0.84570  0.65614  0.12052  Biso   1.000  N
  N27      1.0000 0.65216  0.67503  0.33109  Biso   1.000  N
  N28      1.0000 0.04683  0.86766  0.31472  Biso   1.000  N
  N29      1.0000 0.30328  0.95272  0.68166  Biso   1.000  N
  N30      1.0000 0.15430  0.34386  0.62052  Biso   1.000  N
  N31      1.0000 0.34784  0.32497  0.83109  Biso   1.000  N
  N32      1.0000 0.95317  0.13234  0.81472  Biso   1.000  N
  O49      1.0000 0.42763  0.23070  0.90780  Biso   1.000  O
  O50      1.0000 0.86375  0.29040  0.85823  Biso   1.000  O
  O51      1.0000 0.78815  0.13109  0.10456  Biso   1.000  O
  O52      1.0000 0.68424  0.57408  0.07710  Biso   1.000  O
  O53      1.0000 0.46415  0.22673  0.80690  Biso   1.000  O
  O54      1.0000 0.40454  0.13513  0.84898  Biso   1.000  O
  O55      1.0000 0.54173  0.17236  0.86978  Biso   1.000  O
  O56      1.0000 0.52318  0.30694  0.85631  Biso   1.000  O
  O57      1.0000 0.90526  0.16543  0.90060  Biso   1.000  O
  O58      1.0000 0.96042  0.29011  0.91338  Biso   1.000  O
  O59      1.0000 0.03647  0.17661  0.87558  Biso   1.000  O
  O60      1.0000 0.01877  0.30403  0.84984  Biso   1.000  O
  O61      1.0000 0.57237  0.76930  0.40780  Biso   1.000  O
  O62      1.0000 0.13625  0.70960  0.35823  Biso   1.000  O
  O63      1.0000 0.21185  0.86891  0.60456  Biso   1.000  O
  O64      1.0000 0.31576  0.42592  0.57710  Biso   1.000  O
  O65      1.0000 0.53585  0.77327  0.30690  Biso   1.000  O
  O66      1.0000 0.59546  0.86487  0.34898  Biso   1.000  O
  O67      1.0000 0.45827  0.82764  0.36978  Biso   1.000  O
  O68      1.0000 0.47682  0.69306  0.35631  Biso   1.000  O
  O69      1.0000 0.09474  0.83457  0.40060  Biso   1.000  O
  O70      1.0000 0.03958  0.70989  0.41338  Biso   1.000  O
  O71      1.0000 0.96353  0.82339  0.37558  Biso   1.000  O
  O72      1.0000 0.98123  0.69597  0.34984  Biso   1.000  O
  O73      1.0000 0.73070  0.07237  0.15780  Biso   1.000  O
  O74      1.0000 0.79040  0.63625  0.10823  Biso   1.000  O
  O75      1.0000 0.63109  0.71185  0.35456  Biso   1.000  O
  O76      1.0000 0.07408  0.81576  0.32710  Biso   1.000  O
  O77      1.0000 0.72673  0.03585  0.05690  Biso   1.000  O
  O78      1.0000 0.63513  0.09546  0.09898  Biso   1.000  O
  O79      1.0000 0.67236  0.95827  0.11978  Biso   1.000  O
  O80      1.0000 0.80694  0.97682  0.10631  Biso   1.000  O
  O81      1.0000 0.66543  0.59474  0.15060  Biso   1.000  O
  O82      1.0000 0.79011  0.53958  0.16338  Biso   1.000  O
  O83      1.0000 0.67661  0.46353  0.12558  Biso   1.000  O
  O84      1.0000 0.80403  0.48123  0.09984  Biso   1.000  O
  O85      1.0000 0.26930  0.92763  0.65780  Biso   1.000  O
  O86      1.0000 0.20960  0.36375  0.60823  Biso   1.000  O
  O87      1.0000 0.36891  0.28815  0.85456  Biso   1.000  O
  O88      1.0000 0.92592  0.18424  0.82710  Biso   1.000  O
  O89      1.0000 0.27327  0.96415  0.55690  Biso   1.000  O
  O90      1.0000 0.36487  0.90454  0.59898  Biso   1.000  O
  O91      1.0000 0.32764  0.04173  0.61978  Biso   1.000  O
  O92      1.0000 0.19306  0.02318  0.60631  Biso   1.000  O
  O93      1.0000 0.33457  0.40526  0.65060  Biso   1.000  O
  O94      1.0000 0.20989  0.46042  0.66338  Biso   1.000  O
  O95      1.0000 0.32339  0.53647  0.62558  Biso   1.000  O
  O96      1.0000 0.19597  0.51877  0.59984  Biso   1.000  O
  F81      1.0000 0.42590  0.22753  0.73907  Biso   1.000  F
  F82      1.0000 0.52299  0.21960  0.74794  Biso   1.000  F
  F83      1.0000 0.47026  0.14192  0.73306  Biso   1.000  F
  F84      1.0000 0.64136  0.11352  0.90412  Biso   1.000  F
  F85      1.0000 0.71039  0.14956  0.86837  Biso   1.000  F
  F86      1.0000 0.64231  0.08401  0.85543  Biso   1.000  F
  F87      1.0000 0.64173  0.39868  0.87225  Biso   1.000  F
  F88      1.0000 0.58091  0.41150  0.83530  Biso   1.000  F
  F89      1.0000 0.67077  0.36142  0.82901  Biso   1.000  F
  F90      1.0000 0.92470  0.04760  0.93232  Biso   1.000  F
  F91      1.0000 0.83866  0.06918  0.92919  Biso   1.000  F
  F92      1.0000 0.89130  0.08542  0.97139  Biso   1.000  F
  F93      1.0000 0.93810  0.35750  0.97175  Biso   1.000  F
  F94      1.0000 0.98789  0.29234  0.99564  Biso   1.000  F
  F95      1.0000 0.02438  0.35147  0.96086  Biso   1.000  F
  F96      1.0000 0.14594  0.09335  0.85862  Biso   1.000  F
  F97      1.0000 0.13527  0.11303  0.90580  Biso   1.000  F
  F98      1.0000 0.20673  0.15723  0.88052  Biso   1.000  F
  F99      1.0000 0.09825  0.41558  0.84851  Biso   1.000  F
  F100     1.0000 0.16334  0.35492  0.81883  Biso   1.000  F
  F101     1.0000 0.57410  0.77247  0.23907  Biso   1.000  F
  F102     1.0000 0.47701  0.78040  0.24794  Biso   1.000  F
  F103     1.0000 0.52974  0.85808  0.23306  Biso   1.000  F
  F104     1.0000 0.35864  0.88648  0.40412  Biso   1.000  F
  F105     1.0000 0.28961  0.85044  0.36837  Biso   1.000  F
  F106     1.0000 0.35769  0.91599  0.35543  Biso   1.000  F
  F107     1.0000 0.35827  0.60132  0.37225  Biso   1.000  F
  F108     1.0000 0.41909  0.58850  0.33530  Biso   1.000  F
  F109     1.0000 0.32923  0.63858  0.32901  Biso   1.000  F
  F110     1.0000 0.07530  0.95240  0.43232  Biso   1.000  F
  F111     1.0000 0.16134  0.93082  0.42919  Biso   1.000  F
  F112     1.0000 0.10870  0.91458  0.47139  Biso   1.000  F
  F113     1.0000 0.06190  0.64250  0.47175  Biso   1.000  F
  F114     1.0000 0.01211  0.70766  0.49564  Biso   1.000  F
  F115     1.0000 0.97562  0.64853  0.46086  Biso   1.000  F
  F116     1.0000 0.85406  0.90665  0.35862  Biso   1.000  F
  F117     1.0000 0.86473  0.88697  0.40580  Biso   1.000  F
  F118     1.0000 0.79327  0.84277  0.38052  Biso   1.000  F
  F119     1.0000 0.90175  0.58442  0.34851  Biso   1.000  F
  F120     1.0000 0.83666  0.64508  0.31883  Biso   1.000  F
  F121     1.0000 0.72753  0.07410  0.98907  Biso   1.000  F
  F122     1.0000 0.71960  0.97701  0.99794  Biso   1.000  F
  F123     1.0000 0.64192  0.02974  0.98306  Biso   1.000  F
  F124     1.0000 0.61352  0.85864  0.15412  Biso   1.000  F
  F125     1.0000 0.64956  0.78961  0.11837  Biso   1.000  F
  F126     1.0000 0.58401  0.85769  0.10543  Biso   1.000  F
  F127     1.0000 0.89868  0.85827  0.12225  Biso   1.000  F
  F128     1.0000 0.91150  0.91909  0.08530  Biso   1.000  F
  F129     1.0000 0.86142  0.82923  0.07901  Biso   1.000  F
  F130     1.0000 0.54760  0.57530  0.18232  Biso   1.000  F
  F131     1.0000 0.56918  0.66134  0.17919  Biso   1.000  F
  F132     1.0000 0.58542  0.60870  0.22139  Biso   1.000  F
  F133     1.0000 0.85750  0.56190  0.22175  Biso   1.000  F
  F134     1.0000 0.79234  0.51211  0.24564  Biso   1.000  F
  F135     1.0000 0.85147  0.47562  0.21086  Biso   1.000  F
  F136     1.0000 0.59335  0.35406  0.10862  Biso   1.000  F
  F137     1.0000 0.61303  0.36473  0.15580  Biso   1.000  F
  F138     1.0000 0.65723  0.29327  0.13052  Biso   1.000  F
  F139     1.0000 0.91558  0.40175  0.09851  Biso   1.000  F
  F140     1.0000 0.85492  0.33666  0.06883  Biso   1.000  F
  F141     1.0000 0.27247  0.92590  0.48907  Biso   1.000  F
  F142     1.0000 0.28040  0.02299  0.49794  Biso   1.000  F
  F143     1.0000 0.35808  0.97026  0.48306  Biso   1.000  F
  F144     1.0000 0.38648  0.14136  0.65412  Biso   1.000  F
  F145     1.0000 0.35044  0.21039  0.61837  Biso   1.000  F
  F146     1.0000 0.41599  0.14231  0.60543  Biso   1.000  F
  F147     1.0000 0.10132  0.14173  0.62225  Biso   1.000  F
  F148     1.0000 0.08850  0.08091  0.58530  Biso   1.000  F
  F149     1.0000 0.13858  0.17077  0.57901  Biso   1.000  F
  F150     1.0000 0.45240  0.42470  0.68232  Biso   1.000  F
  F151     1.0000 0.43082  0.33866  0.67919  Biso   1.000  F
  F152     1.0000 0.41458  0.39130  0.72139  Biso   1.000  F
  F153     1.0000 0.14250  0.43810  0.72175  Biso   1.000  F
  F154     1.0000 0.20766  0.48789  0.74564  Biso   1.000  F
  F155     1.0000 0.14853  0.52438  0.71086  Biso   1.000  F
  F156     1.0000 0.40665  0.64594  0.60862  Biso   1.000  F
  F157     1.0000 0.38697  0.63527  0.65580  Biso   1.000  F
  F158     1.0000 0.34277  0.70673  0.63052  Biso   1.000  F
  F159     1.0000 0.08442  0.59825  0.59851  Biso   1.000  F
  F160     1.0000 0.14508  0.66334  0.56883  Biso   1.000  F
