data_image0
_cell_length_a       24.5467
_cell_length_b       24.5467
_cell_length_c       40.1403
_cell_angle_alpha    72.196
_cell_angle_beta     72.196
_cell_angle_gamma    90

_symmetry_space_group_name_H-M    P 1
_symmetry_int_tables_number       1

loop_
  _symmetry_equiv_pos_as_xyz
  'x, y, z'

loop_
  _atom_site_label
  _atom_site_occupancy
  _atom_site_fract_x
  _atom_site_fract_y
  _atom_site_fract_z
  _atom_site_thermal_displace_type
  _atom_site_B_iso_or_equiv
  _atom_site_type_symbol
  Cu1      1.0000 0.23588  0.56159  0.94810  Biso   1.000  Cu
  Cu2      1.0000 0.20977  0.96476  0.00024  Biso   1.000  Cu
  Cu3      1.0000 0.31602  0.49031  0.94810  Biso   1.000  Cu
  Cu4      1.0000 0.28999  0.03500  0.00024  Biso   1.000  Cu
  Cu5      1.0000 0.56159  0.31602  0.44810  Biso   1.000  Cu
  Cu6      1.0000 0.96476  0.28999  0.50024  Biso   1.000  Cu
  Cu7      1.0000 0.49031  0.23588  0.44810  Biso   1.000  Cu
  Cu8      1.0000 0.03500  0.20977  0.50024  Biso   1.000  Cu
  H1       1.0000 0.13750  0.14730  0.86460  Biso   1.000  H
  H2       1.0000 0.15610  0.07550  0.91260  Biso   1.000  H
  H3       1.0000 0.27900  0.18560  0.91280  Biso   1.000  H
  H4       1.0000 0.26030  0.25730  0.86500  Biso   1.000  H
  H5       1.0000 0.28180  0.39620  0.81780  Biso   1.000  H
  H6       1.0000 0.30860  0.43190  0.85900  Biso   1.000  H
  H7       1.0000 0.16770  0.51930  0.87140  Biso   1.000  H
  H8       1.0000 0.14090  0.48370  0.83020  Biso   1.000  H
  H9       1.0000 0.17920  0.49400  0.76240  Biso   1.000  H
  H10      1.0000 0.14570  0.27120  0.75620  Biso   1.000  H
  H11      1.0000 0.16900  0.19980  0.80340  Biso   1.000  H
  H12      1.0000 0.20940  0.32130  0.84140  Biso   1.000  H
  H13      1.0000 0.45000  0.37260  0.53500  Biso   1.000  H
  H14      1.0000 0.37940  0.38690  0.58500  Biso   1.000  H
  H15      1.0000 0.26720  0.27120  0.57960  Biso   1.000  H
  H16      1.0000 0.33800  0.25710  0.52940  Biso   1.000  H
  H17      1.0000 0.13490  0.24950  0.62840  Biso   1.000  H
  H18      1.0000 0.10220  0.22440  0.58560  Biso   1.000  H
  H19      1.0000 0.00800  0.36060  0.57700  Biso   1.000  H
  H20      1.0000 0.04070  0.38570  0.61980  Biso   1.000  H
  H21      1.0000 0.03220  0.34490  0.68560  Biso   1.000  H
  H22      1.0000 0.25810  0.37780  0.69160  Biso   1.000  H
  H23      1.0000 0.32700  0.35510  0.64600  Biso   1.000  H
  H24      1.0000 0.20510  0.32860  0.60300  Biso   1.000  H
  H25      1.0000 0.97750  0.33110  0.74200  Biso   1.000  H
  H26      1.0000 0.97850  0.39800  0.72520  Biso   1.000  H
  H27      1.0000 0.90770  0.36250  0.78620  Biso   1.000  H
  H28      1.0000 0.95390  0.40740  0.78540  Biso   1.000  H
  H29      1.0000 0.95700  0.34140  0.80280  Biso   1.000  H
  H30      1.0000 0.21190  0.54520  0.70000  Biso   1.000  H
  H31      1.0000 0.15020  0.55340  0.72200  Biso   1.000  H
  H32      1.0000 0.18960  0.62860  0.66740  Biso   1.000  H
  H33      1.0000 0.13120  0.60020  0.66900  Biso   1.000  H
  H34      1.0000 0.18960  0.58640  0.64500  Biso   1.000  H
  H35      1.0000 0.49790  0.98810  0.86460  Biso   1.000  H
  H36      1.0000 0.43130  0.01190  0.91260  Biso   1.000  H
  H37      1.0000 0.30820  0.90160  0.91280  Biso   1.000  H
  H38      1.0000 0.37470  0.87770  0.86500  Biso   1.000  H
  H39      1.0000 0.40040  0.78600  0.81780  Biso   1.000  H
  H40      1.0000 0.33240  0.70910  0.85900  Biso   1.000  H
  H41      1.0000 0.46090  0.60930  0.87140  Biso   1.000  H
  H42      1.0000 0.52890  0.68610  0.83020  Biso   1.000  H
  H43      1.0000 0.55840  0.74360  0.76240  Biso   1.000  H
  H44      1.0000 0.59810  0.97260  0.75620  Biso   1.000  H
  H45      1.0000 0.52760  0.99680  0.80340  Biso   1.000  H
  H46      1.0000 0.44920  0.83730  0.84140  Biso   1.000  H
  H47      1.0000 0.51500  0.09240  0.53500  Biso   1.000  H
  H48      1.0000 0.53560  0.02810  0.58500  Biso   1.000  H
  H49      1.0000 0.65320  0.14920  0.57960  Biso   1.000  H
  H50      1.0000 0.63260  0.21350  0.52940  Biso   1.000  H
  H51      1.0000 0.73670  0.12210  0.62840  Biso   1.000  H
  H52      1.0000 0.81220  0.19000  0.58560  Biso   1.000  H
  H53      1.0000 0.91500  0.06240  0.57700  Biso   1.000  H
  H54      1.0000 0.83950  0.99450  0.61980  Biso   1.000  H
  H55      1.0000 0.78220  0.96950  0.68560  Biso   1.000  H
  H56      1.0000 0.55030  0.93060  0.69160  Biso   1.000  H
  H57      1.0000 0.52700  0.99890  0.64600  Biso   1.000  H
  H58      1.0000 0.69190  0.06840  0.60300  Biso   1.000  H
  H59      1.0000 0.78050  0.92690  0.74200  Biso   1.000  H
  H60      1.0000 0.79630  0.87680  0.72520  Biso   1.000  H
  H61      1.0000 0.80610  0.85130  0.78620  Biso   1.000  H
  H62      1.0000 0.76070  0.80720  0.78540  Biso   1.000  H
  H63      1.0000 0.74020  0.85580  0.80280  Biso   1.000  H
  H64      1.0000 0.58810  0.75480  0.70000  Biso   1.000  H
  H65      1.0000 0.62780  0.72460  0.72200  Biso   1.000  H
  H66      1.0000 0.64300  0.70400  0.66740  Biso   1.000  H
  H67      1.0000 0.69980  0.73080  0.66900  Biso   1.000  H
  H68      1.0000 0.66540  0.76860  0.64500  Biso   1.000  H
  H69      1.0000 0.14730  0.49790  0.36460  Biso   1.000  H
  H70      1.0000 0.07550  0.43130  0.41260  Biso   1.000  H
  H71      1.0000 0.18560  0.30820  0.41280  Biso   1.000  H
  H72      1.0000 0.25730  0.37470  0.36500  Biso   1.000  H
  H73      1.0000 0.39620  0.40040  0.31780  Biso   1.000  H
  H74      1.0000 0.43190  0.33240  0.35900  Biso   1.000  H
  H75      1.0000 0.51930  0.46090  0.37140  Biso   1.000  H
  H76      1.0000 0.48370  0.52890  0.33020  Biso   1.000  H
  H77      1.0000 0.49400  0.55840  0.26240  Biso   1.000  H
  H78      1.0000 0.27120  0.59810  0.25620  Biso   1.000  H
  H79      1.0000 0.19980  0.52760  0.30340  Biso   1.000  H
  H80      1.0000 0.32130  0.44920  0.34140  Biso   1.000  H
  H81      1.0000 0.37260  0.51500  0.03500  Biso   1.000  H
  H82      1.0000 0.38690  0.53560  0.08500  Biso   1.000  H
  H83      1.0000 0.27120  0.65320  0.07960  Biso   1.000  H
  H84      1.0000 0.25710  0.63260  0.02940  Biso   1.000  H
  H85      1.0000 0.24950  0.73670  0.12840  Biso   1.000  H
  H86      1.0000 0.22440  0.81220  0.08560  Biso   1.000  H
  H87      1.0000 0.36060  0.91500  0.07700  Biso   1.000  H
  H88      1.0000 0.38570  0.83950  0.11980  Biso   1.000  H
  H89      1.0000 0.34490  0.78220  0.18560  Biso   1.000  H
  H90      1.0000 0.37780  0.55030  0.19160  Biso   1.000  H
  H91      1.0000 0.35510  0.52700  0.14600  Biso   1.000  H
  H92      1.0000 0.32860  0.69190  0.10300  Biso   1.000  H
  H93      1.0000 0.33110  0.78050  0.24200  Biso   1.000  H
  H94      1.0000 0.39800  0.79630  0.22520  Biso   1.000  H
  H95      1.0000 0.36250  0.80610  0.28620  Biso   1.000  H
  H96      1.0000 0.40740  0.76070  0.28540  Biso   1.000  H
  H97      1.0000 0.34140  0.74020  0.30280  Biso   1.000  H
  H98      1.0000 0.54520  0.58810  0.20000  Biso   1.000  H
  H99      1.0000 0.55340  0.62780  0.22200  Biso   1.000  H
  H100     1.0000 0.62860  0.64300  0.16740  Biso   1.000  H
  H101     1.0000 0.60020  0.69980  0.16900  Biso   1.000  H
  H102     1.0000 0.58640  0.66540  0.14500  Biso   1.000  H
  H103     1.0000 0.98810  0.13750  0.36460  Biso   1.000  H
  H104     1.0000 0.01190  0.15610  0.41260  Biso   1.000  H
  H105     1.0000 0.90160  0.27900  0.41280  Biso   1.000  H
  H106     1.0000 0.87770  0.26030  0.36500  Biso   1.000  H
  H107     1.0000 0.78600  0.28180  0.31780  Biso   1.000  H
  H108     1.0000 0.70910  0.30860  0.35900  Biso   1.000  H
  H109     1.0000 0.60930  0.16770  0.37140  Biso   1.000  H
  H110     1.0000 0.68610  0.14090  0.33020  Biso   1.000  H
  H111     1.0000 0.74360  0.17920  0.26240  Biso   1.000  H
  H112     1.0000 0.97260  0.14570  0.25620  Biso   1.000  H
  H113     1.0000 0.99680  0.16900  0.30340  Biso   1.000  H
  H114     1.0000 0.83730  0.20940  0.34140  Biso   1.000  H
  H115     1.0000 0.09240  0.45000  0.03500  Biso   1.000  H
  H116     1.0000 0.02810  0.37940  0.08500  Biso   1.000  H
  H117     1.0000 0.14920  0.26720  0.07960  Biso   1.000  H
  H118     1.0000 0.21350  0.33800  0.02940  Biso   1.000  H
  H119     1.0000 0.12210  0.13490  0.12840  Biso   1.000  H
  H120     1.0000 0.19000  0.10220  0.08560  Biso   1.000  H
  H121     1.0000 0.06240  0.00800  0.07700  Biso   1.000  H
  H122     1.0000 0.99450  0.04070  0.11980  Biso   1.000  H
  H123     1.0000 0.96950  0.03220  0.18560  Biso   1.000  H
  H124     1.0000 0.93060  0.25810  0.19160  Biso   1.000  H
  H125     1.0000 0.99890  0.32700  0.14600  Biso   1.000  H
  H126     1.0000 0.06840  0.20510  0.10300  Biso   1.000  H
  H127     1.0000 0.92690  0.97750  0.24200  Biso   1.000  H
  H128     1.0000 0.87680  0.97850  0.22520  Biso   1.000  H
  H129     1.0000 0.85130  0.90770  0.28620  Biso   1.000  H
  H130     1.0000 0.80720  0.95390  0.28540  Biso   1.000  H
  H131     1.0000 0.85580  0.95700  0.30280  Biso   1.000  H
  H132     1.0000 0.75480  0.21190  0.20000  Biso   1.000  H
  H133     1.0000 0.72460  0.15020  0.22200  Biso   1.000  H
  H134     1.0000 0.70400  0.18960  0.16740  Biso   1.000  H
  H135     1.0000 0.73080  0.13120  0.16900  Biso   1.000  H
  H136     1.0000 0.76860  0.18960  0.14500  Biso   1.000  H
  C1       1.0000 0.19695  0.20965  0.85990  Biso   1.000  C
  C2       1.0000 0.16561  0.15488  0.87424  Biso   1.000  C
  C3       1.0000 0.17685  0.11165  0.90310  Biso   1.000  C
  C4       1.0000 0.21949  0.12319  0.91762  Biso   1.000  C
  C5       1.0000 0.25084  0.17796  0.90328  Biso   1.000  C
  C6       1.0000 0.23959  0.22119  0.87442  Biso   1.000  C
  C7       1.0000 0.24225  0.49035  0.90330  Biso   1.000  C
  C8       1.0000 0.20859  0.43629  0.81982  Biso   1.000  C
  C9       1.0000 0.25918  0.42067  0.82844  Biso   1.000  C
  C10      1.0000 0.27531  0.44219  0.85322  Biso   1.000  C
  C11      1.0000 0.24092  0.47932  0.86936  Biso   1.000  C
  C12      1.0000 0.19033  0.49486  0.86074  Biso   1.000  C
  C13      1.0000 0.17418  0.47331  0.83598  Biso   1.000  C
  C14      1.0000 0.45028  0.29908  0.49864  Biso   1.000  C
  C15      1.0000 0.15521  0.38061  0.73998  Biso   1.000  C
  C16      1.0000 0.15875  0.43895  0.73790  Biso   1.000  C
  C17      1.0000 0.17690  0.45554  0.76380  Biso   1.000  C
  C18      1.0000 0.19161  0.41371  0.79178  Biso   1.000  C
  C19      1.0000 0.18806  0.35536  0.79388  Biso   1.000  C
  C20      1.0000 0.16992  0.33885  0.76796  Biso   1.000  C
  C21      1.0000 0.16007  0.28187  0.77246  Biso   1.000  C
  C22      1.0000 0.17168  0.23838  0.80184  Biso   1.000  C
  C23      1.0000 0.18721  0.25551  0.82778  Biso   1.000  C
  C24      1.0000 0.19685  0.31135  0.82410  Biso   1.000  C
  C25      1.0000 0.40128  0.31338  0.52704  Biso   1.000  C
  C26      1.0000 0.41375  0.35251  0.54378  Biso   1.000  C
  C27      1.0000 0.37111  0.36111  0.57398  Biso   1.000  C
  C28      1.0000 0.31608  0.33058  0.58744  Biso   1.000  C
  C29      1.0000 0.30358  0.29145  0.57070  Biso   1.000  C
  C30      1.0000 0.34615  0.28285  0.54050  Biso   1.000  C
  C31      1.0000 0.02699  0.27129  0.54962  Biso   1.000  C
  C32      1.0000 0.09113  0.32013  0.62854  Biso   1.000  C
  C33      1.0000 0.10969  0.27159  0.61822  Biso   1.000  C
  C34      1.0000 0.09000  0.25640  0.59240  Biso   1.000  C
  C35      1.0000 0.05176  0.28996  0.57688  Biso   1.000  C
  C36      1.0000 0.03325  0.33851  0.58718  Biso   1.000  C
  C37      1.0000 0.05289  0.35359  0.61302  Biso   1.000  C
  C38      1.0000 0.22382  0.08512  0.95016  Biso   1.000  C
  C39      1.0000 0.14524  0.36964  0.70812  Biso   1.000  C
  C40      1.0000 0.08684  0.36474  0.71052  Biso   1.000  C
  C41      1.0000 0.07077  0.34814  0.68392  Biso   1.000  C
  C42      1.0000 0.11315  0.33625  0.65490  Biso   1.000  C
  C43      1.0000 0.17156  0.34106  0.65248  Biso   1.000  C
  C44      1.0000 0.18762  0.35775  0.67910  Biso   1.000  C
  C45      1.0000 0.24715  0.36485  0.67490  Biso   1.000  C
  C46      1.0000 0.28859  0.35339  0.64722  Biso   1.000  C
  C47      1.0000 0.27153  0.33873  0.62034  Biso   1.000  C
  C48      1.0000 0.21492  0.33512  0.62216  Biso   1.000  C
  C49      1.0000 0.98670  0.36770  0.74460  Biso   1.000  C
  C50      1.0000 0.94740  0.37000  0.78360  Biso   1.000  C
  C51      1.0000 0.17230  0.54420  0.70020  Biso   1.000  C
  C52      1.0000 0.17050  0.59440  0.66740  Biso   1.000  C
  C53      1.0000 0.44315  0.93045  0.85990  Biso   1.000  C
  C54      1.0000 0.46015  0.97088  0.87424  Biso   1.000  C
  C55      1.0000 0.42005  0.98525  0.90310  Biso   1.000  C
  C56      1.0000 0.36289  0.95919  0.91762  Biso   1.000  C
  C57      1.0000 0.34588  0.91876  0.90328  Biso   1.000  C
  C58      1.0000 0.38599  0.90439  0.87442  Biso   1.000  C
  C59      1.0000 0.35445  0.60635  0.90330  Biso   1.000  C
  C60      1.0000 0.47159  0.74389  0.81982  Biso   1.000  C
  C61      1.0000 0.41238  0.75089  0.82844  Biso   1.000  C
  C62      1.0000 0.37147  0.70459  0.85322  Biso   1.000  C
  C63      1.0000 0.38972  0.65132  0.86936  Biso   1.000  C
  C64      1.0000 0.44893  0.64440  0.86074  Biso   1.000  C
  C65      1.0000 0.48984  0.69071  0.83598  Biso   1.000  C
  C66      1.0000 0.55108  0.20228  0.49864  Biso   1.000  C
  C67      1.0000 0.60481  0.87941  0.73998  Biso   1.000  C
  C68      1.0000 0.60335  0.82315  0.73790  Biso   1.000  C
  C69      1.0000 0.55930  0.78066  0.76380  Biso   1.000  C
  C70      1.0000 0.51661  0.79451  0.79178  Biso   1.000  C
  C71      1.0000 0.51806  0.85076  0.79388  Biso   1.000  C
  C72      1.0000 0.56212  0.89319  0.76796  Biso   1.000  C
  C73      1.0000 0.56747  0.94567  0.77246  Biso   1.000  C
  C74      1.0000 0.52648  0.95978  0.80184  Biso   1.000  C
  C75      1.0000 0.48501  0.91671  0.82778  Biso   1.000  C
  C76      1.0000 0.47905  0.86455  0.82410  Biso   1.000  C
  C77      1.0000 0.57168  0.15958  0.52704  Biso   1.000  C
  C78      1.0000 0.54247  0.10371  0.54378  Biso   1.000  C
  C79      1.0000 0.55491  0.06491  0.57398  Biso   1.000  C
  C80      1.0000 0.59648  0.08198  0.58744  Biso   1.000  C
  C81      1.0000 0.62572  0.13785  0.57070  Biso   1.000  C
  C82      1.0000 0.61335  0.17665  0.54050  Biso   1.000  C
  C83      1.0000 0.92339  0.17909  0.54962  Biso   1.000  C
  C84      1.0000 0.78033  0.05133  0.62854  Biso   1.000  C
  C85      1.0000 0.77209  0.11019  0.61822  Biso   1.000  C
  C86      1.0000 0.81760  0.15120  0.59240  Biso   1.000  C
  C87      1.0000 0.87136  0.13316  0.57688  Biso   1.000  C
  C88      1.0000 0.87957  0.07431  0.58718  Biso   1.000  C
  C89      1.0000 0.83409  0.03339  0.61302  Biso   1.000  C
  C90      1.0000 0.32602  0.96472  0.95016  Biso   1.000  C
  C91      1.0000 0.64664  0.92224  0.70812  Biso   1.000  C
  C92      1.0000 0.70264  0.92474  0.71052  Biso   1.000  C
  C93      1.0000 0.74531  0.96794  0.68392  Biso   1.000  C
  C94      1.0000 0.73195  0.00885  0.65490  Biso   1.000  C
  C95      1.0000 0.67596  0.00646  0.65248  Biso   1.000  C
  C96      1.0000 0.63328  0.96315  0.67910  Biso   1.000  C
  C97      1.0000 0.57795  0.96025  0.67490  Biso   1.000  C
  C98      1.0000 0.56419  0.99939  0.64722  Biso   1.000  C
  C99      1.0000 0.60813  0.04093  0.62034  Biso   1.000  C
  C100     1.0000 0.66292  0.04272  0.62216  Biso   1.000  C
  C101     1.0000 0.76870  0.88770  0.74460  Biso   1.000  C
  C102     1.0000 0.76900  0.84640  0.78360  Biso   1.000  C
  C103     1.0000 0.62750  0.75560  0.70020  Biso   1.000  C
  C104     1.0000 0.66210  0.73820  0.66740  Biso   1.000  C
  C105     1.0000 0.20965  0.44315  0.35990  Biso   1.000  C
  C106     1.0000 0.15488  0.46015  0.37424  Biso   1.000  C
  C107     1.0000 0.11165  0.42005  0.40310  Biso   1.000  C
  C108     1.0000 0.12319  0.36289  0.41762  Biso   1.000  C
  C109     1.0000 0.17796  0.34588  0.40328  Biso   1.000  C
  C110     1.0000 0.22119  0.38599  0.37442  Biso   1.000  C
  C111     1.0000 0.49035  0.35445  0.40330  Biso   1.000  C
  C112     1.0000 0.43629  0.47159  0.31982  Biso   1.000  C
  C113     1.0000 0.42067  0.41238  0.32844  Biso   1.000  C
  C114     1.0000 0.44219  0.37147  0.35322  Biso   1.000  C
  C115     1.0000 0.47932  0.38972  0.36936  Biso   1.000  C
  C116     1.0000 0.49486  0.44893  0.36074  Biso   1.000  C
  C117     1.0000 0.47331  0.48984  0.33598  Biso   1.000  C
  C118     1.0000 0.29908  0.55108  0.99864  Biso   1.000  C
  C119     1.0000 0.38061  0.60481  0.23998  Biso   1.000  C
  C120     1.0000 0.43895  0.60335  0.23790  Biso   1.000  C
  C121     1.0000 0.45554  0.55930  0.26380  Biso   1.000  C
  C122     1.0000 0.41371  0.51661  0.29178  Biso   1.000  C
  C123     1.0000 0.35536  0.51806  0.29388  Biso   1.000  C
  C124     1.0000 0.33885  0.56212  0.26796  Biso   1.000  C
  C125     1.0000 0.28187  0.56747  0.27246  Biso   1.000  C
  C126     1.0000 0.23838  0.52648  0.30184  Biso   1.000  C
  C127     1.0000 0.25551  0.48501  0.32778  Biso   1.000  C
  C128     1.0000 0.31135  0.47905  0.32410  Biso   1.000  C
  C129     1.0000 0.31338  0.57168  0.02704  Biso   1.000  C
  C130     1.0000 0.35251  0.54247  0.04378  Biso   1.000  C
  C131     1.0000 0.36111  0.55491  0.07398  Biso   1.000  C
  C132     1.0000 0.33058  0.59648  0.08744  Biso   1.000  C
  C133     1.0000 0.29145  0.62572  0.07070  Biso   1.000  C
  C134     1.0000 0.28285  0.61335  0.04050  Biso   1.000  C
  C135     1.0000 0.27129  0.92339  0.04962  Biso   1.000  C
  C136     1.0000 0.32013  0.78033  0.12854  Biso   1.000  C
  C137     1.0000 0.27159  0.77209  0.11822  Biso   1.000  C
  C138     1.0000 0.25640  0.81760  0.09240  Biso   1.000  C
  C139     1.0000 0.28996  0.87136  0.07688  Biso   1.000  C
  C140     1.0000 0.33851  0.87957  0.08718  Biso   1.000  C
  C141     1.0000 0.35359  0.83409  0.11302  Biso   1.000  C
  C142     1.0000 0.08512  0.32602  0.45016  Biso   1.000  C
  C143     1.0000 0.36964  0.64664  0.20812  Biso   1.000  C
  C144     1.0000 0.36474  0.70264  0.21052  Biso   1.000  C
  C145     1.0000 0.34814  0.74531  0.18392  Biso   1.000  C
  C146     1.0000 0.33625  0.73195  0.15490  Biso   1.000  C
  C147     1.0000 0.34106  0.67596  0.15248  Biso   1.000  C
  C148     1.0000 0.35775  0.63328  0.17910  Biso   1.000  C
  C149     1.0000 0.36485  0.57795  0.17490  Biso   1.000  C
  C150     1.0000 0.35339  0.56419  0.14722  Biso   1.000  C
  C151     1.0000 0.33873  0.60813  0.12034  Biso   1.000  C
  C152     1.0000 0.33512  0.66292  0.12216  Biso   1.000  C
  C153     1.0000 0.36770  0.76870  0.24460  Biso   1.000  C
  C154     1.0000 0.37000  0.76900  0.28360  Biso   1.000  C
  C155     1.0000 0.54420  0.62750  0.20020  Biso   1.000  C
  C156     1.0000 0.59440  0.66210  0.16740  Biso   1.000  C
  C157     1.0000 0.93045  0.19695  0.35990  Biso   1.000  C
  C158     1.0000 0.97088  0.16561  0.37424  Biso   1.000  C
  C159     1.0000 0.98525  0.17685  0.40310  Biso   1.000  C
  C160     1.0000 0.95919  0.21949  0.41762  Biso   1.000  C
  C161     1.0000 0.91876  0.25084  0.40328  Biso   1.000  C
  C162     1.0000 0.90439  0.23959  0.37442  Biso   1.000  C
  C163     1.0000 0.60635  0.24225  0.40330  Biso   1.000  C
  C164     1.0000 0.74389  0.20859  0.31982  Biso   1.000  C
  C165     1.0000 0.75089  0.25918  0.32844  Biso   1.000  C
  C166     1.0000 0.70459  0.27531  0.35322  Biso   1.000  C
  C167     1.0000 0.65132  0.24092  0.36936  Biso   1.000  C
  C168     1.0000 0.64440  0.19033  0.36074  Biso   1.000  C
  C169     1.0000 0.69071  0.17418  0.33598  Biso   1.000  C
  C170     1.0000 0.20228  0.45028  0.99864  Biso   1.000  C
  C171     1.0000 0.87941  0.15521  0.23998  Biso   1.000  C
  C172     1.0000 0.82315  0.15875  0.23790  Biso   1.000  C
  C173     1.0000 0.78066  0.17690  0.26380  Biso   1.000  C
  C174     1.0000 0.79451  0.19161  0.29178  Biso   1.000  C
  C175     1.0000 0.85076  0.18806  0.29388  Biso   1.000  C
  C176     1.0000 0.89319  0.16992  0.26796  Biso   1.000  C
  C177     1.0000 0.94567  0.16007  0.27246  Biso   1.000  C
  C178     1.0000 0.95978  0.17168  0.30184  Biso   1.000  C
  C179     1.0000 0.91671  0.18721  0.32778  Biso   1.000  C
  C180     1.0000 0.86455  0.19685  0.32410  Biso   1.000  C
  C181     1.0000 0.15958  0.40128  0.02704  Biso   1.000  C
  C182     1.0000 0.10371  0.41375  0.04378  Biso   1.000  C
  C183     1.0000 0.06491  0.37111  0.07398  Biso   1.000  C
  C184     1.0000 0.08198  0.31608  0.08744  Biso   1.000  C
  C185     1.0000 0.13785  0.30358  0.07070  Biso   1.000  C
  C186     1.0000 0.17665  0.34615  0.04050  Biso   1.000  C
  C187     1.0000 0.17909  0.02699  0.04962  Biso   1.000  C
  C188     1.0000 0.05133  0.09113  0.12854  Biso   1.000  C
  C189     1.0000 0.11019  0.10969  0.11822  Biso   1.000  C
  C190     1.0000 0.15120  0.09000  0.09240  Biso   1.000  C
  C191     1.0000 0.13316  0.05176  0.07688  Biso   1.000  C
  C192     1.0000 0.07431  0.03325  0.08718  Biso   1.000  C
  C193     1.0000 0.03339  0.05289  0.11302  Biso   1.000  C
  C194     1.0000 0.96472  0.22382  0.45016  Biso   1.000  C
  C195     1.0000 0.92224  0.14524  0.20812  Biso   1.000  C
  C196     1.0000 0.92474  0.08684  0.21052  Biso   1.000  C
  C197     1.0000 0.96794  0.07077  0.18392  Biso   1.000  C
  C198     1.0000 0.00885  0.11315  0.15490  Biso   1.000  C
  C199     1.0000 0.00646  0.17156  0.15248  Biso   1.000  C
  C200     1.0000 0.96315  0.18762  0.17910  Biso   1.000  C
  C201     1.0000 0.96025  0.24715  0.17490  Biso   1.000  C
  C202     1.0000 0.99939  0.28859  0.14722  Biso   1.000  C
  C203     1.0000 0.04093  0.27153  0.12034  Biso   1.000  C
  C204     1.0000 0.04272  0.21492  0.12216  Biso   1.000  C
  C205     1.0000 0.88770  0.98670  0.24460  Biso   1.000  C
  C206     1.0000 0.84640  0.94740  0.28360  Biso   1.000  C
  C207     1.0000 0.75560  0.17230  0.20020  Biso   1.000  C
  C208     1.0000 0.73820  0.17050  0.16740  Biso   1.000  C
  O1       1.0000 0.22299  0.53139  0.91142  Biso   1.000  O
  O2       1.0000 0.49727  0.32797  0.48826  Biso   1.000  O
  O3       1.0000 0.19894  0.03014  0.96132  Biso   1.000  O
  O4       1.0000 0.99228  0.30488  0.53824  Biso   1.000  O
  O5       1.0000 0.05115  0.23405  0.53870  Biso   1.000  O
  O6       1.0000 0.26721  0.09141  0.96298  Biso   1.000  O
  O7       1.0000 0.29277  0.47281  0.91026  Biso   1.000  O
  O8       1.0000 0.43409  0.26349  0.48722  Biso   1.000  O
  O9       1.0000 0.15342  0.48202  0.70736  Biso   1.000  O
  O10      1.0000 0.04947  0.37487  0.74026  Biso   1.000  O
  O11      1.0000 0.17010  0.61690  0.94840  Biso   1.000  O
  O12      1.0000 0.14484  0.90184  0.00312  Biso   1.000  O
  O13      1.0000 0.36559  0.55719  0.91142  Biso   1.000  O
  O14      1.0000 0.51447  0.18377  0.48826  Biso   1.000  O
  O15      1.0000 0.33974  0.00854  0.96132  Biso   1.000  O
  O16      1.0000 0.96948  0.15688  0.53824  Biso   1.000  O
  O17      1.0000 0.91015  0.22725  0.53870  Biso   1.000  O
  O18      1.0000 0.26981  0.94561  0.96298  Biso   1.000  O
  O19      1.0000 0.29697  0.61693  0.91026  Biso   1.000  O
  O20      1.0000 0.57869  0.24929  0.48722  Biso   1.000  O
  O21      1.0000 0.63922  0.81062  0.70736  Biso   1.000  O
  O22      1.0000 0.71027  0.88487  0.74026  Biso   1.000  O
  O23      1.0000 0.38150  0.43470  0.94840  Biso   1.000  O
  O24      1.0000 0.35204  0.09504  0.00312  Biso   1.000  O
  O25      1.0000 0.53139  0.36559  0.41142  Biso   1.000  O
  O26      1.0000 0.32797  0.51447  0.98826  Biso   1.000  O
  O27      1.0000 0.03014  0.33974  0.46132  Biso   1.000  O
  O28      1.0000 0.30488  0.96948  0.03824  Biso   1.000  O
  O29      1.0000 0.23405  0.91015  0.03870  Biso   1.000  O
  O30      1.0000 0.09141  0.26981  0.46298  Biso   1.000  O
  O31      1.0000 0.47281  0.29697  0.41026  Biso   1.000  O
  O32      1.0000 0.26349  0.57869  0.98722  Biso   1.000  O
  O33      1.0000 0.48202  0.63922  0.20736  Biso   1.000  O
  O34      1.0000 0.37487  0.71027  0.24026  Biso   1.000  O
  O35      1.0000 0.61690  0.38150  0.44840  Biso   1.000  O
  O36      1.0000 0.90184  0.35204  0.50312  Biso   1.000  O
  O37      1.0000 0.55719  0.22299  0.41142  Biso   1.000  O
  O38      1.0000 0.18377  0.49727  0.98826  Biso   1.000  O
  O39      1.0000 0.00854  0.19894  0.46132  Biso   1.000  O
  O40      1.0000 0.15688  0.99228  0.03824  Biso   1.000  O
  O41      1.0000 0.22725  0.05115  0.03870  Biso   1.000  O
  O42      1.0000 0.94561  0.26721  0.46298  Biso   1.000  O
  O43      1.0000 0.61693  0.29277  0.41026  Biso   1.000  O
  O44      1.0000 0.24929  0.43409  0.98722  Biso   1.000  O
  O45      1.0000 0.81062  0.15342  0.20736  Biso   1.000  O
  O46      1.0000 0.88487  0.04947  0.24026  Biso   1.000  O
  O47      1.0000 0.43470  0.17010  0.44840  Biso   1.000  O
  O48      1.0000 0.09504  0.14484  0.50312  Biso   1.000  O
  Cu9      1.0000 0.76412  0.43841  0.05190  Biso   1.000  Cu
  Cu10     1.0000 0.79023  0.03524  0.99976  Biso   1.000  Cu
  Cu11     1.0000 0.68398  0.50969  0.05190  Biso   1.000  Cu
  Cu12     1.0000 0.71001  0.96500  0.99976  Biso   1.000  Cu
  Cu13     1.0000 0.43841  0.68398  0.55190  Biso   1.000  Cu
  Cu14     1.0000 0.03524  0.71001  0.49976  Biso   1.000  Cu
  Cu15     1.0000 0.50969  0.76412  0.55190  Biso   1.000  Cu
  Cu16     1.0000 0.96500  0.79023  0.49976  Biso   1.000  Cu
  H137     1.0000 0.86250  0.85270  0.13540  Biso   1.000  H
  H138     1.0000 0.84390  0.92450  0.08740  Biso   1.000  H
  H139     1.0000 0.72100  0.81440  0.08720  Biso   1.000  H
  H140     1.0000 0.73970  0.74270  0.13500  Biso   1.000  H
  H141     1.0000 0.71820  0.60380  0.18220  Biso   1.000  H
  H142     1.0000 0.69140  0.56810  0.14100  Biso   1.000  H
  H143     1.0000 0.83230  0.48070  0.12860  Biso   1.000  H
  H144     1.0000 0.85910  0.51630  0.16980  Biso   1.000  H
  H145     1.0000 0.82080  0.50600  0.23760  Biso   1.000  H
  H146     1.0000 0.85430  0.72880  0.24380  Biso   1.000  H
  H147     1.0000 0.83100  0.80020  0.19660  Biso   1.000  H
  H148     1.0000 0.79060  0.67870  0.15860  Biso   1.000  H
  H149     1.0000 0.55000  0.62740  0.46500  Biso   1.000  H
  H150     1.0000 0.62060  0.61310  0.41500  Biso   1.000  H
  H151     1.0000 0.73280  0.72880  0.42040  Biso   1.000  H
  H152     1.0000 0.66200  0.74290  0.47060  Biso   1.000  H
  H153     1.0000 0.86510  0.75050  0.37160  Biso   1.000  H
  H154     1.0000 0.89780  0.77560  0.41440  Biso   1.000  H
  H155     1.0000 0.99200  0.63940  0.42300  Biso   1.000  H
  H156     1.0000 0.95930  0.61430  0.38020  Biso   1.000  H
  H157     1.0000 0.96780  0.65510  0.31440  Biso   1.000  H
  H158     1.0000 0.74190  0.62220  0.30840  Biso   1.000  H
  H159     1.0000 0.67300  0.64490  0.35400  Biso   1.000  H
  H160     1.0000 0.79490  0.67140  0.39700  Biso   1.000  H
  H161     1.0000 0.02250  0.66890  0.25800  Biso   1.000  H
  H162     1.0000 0.02150  0.60200  0.27480  Biso   1.000  H
  H163     1.0000 0.09230  0.63750  0.21380  Biso   1.000  H
  H164     1.0000 0.04610  0.59260  0.21460  Biso   1.000  H
  H165     1.0000 0.04300  0.65860  0.19720  Biso   1.000  H
  H166     1.0000 0.78810  0.45480  0.30000  Biso   1.000  H
  H167     1.0000 0.84980  0.44660  0.27800  Biso   1.000  H
  H168     1.0000 0.81040  0.37140  0.33260  Biso   1.000  H
  H169     1.0000 0.86880  0.39980  0.33100  Biso   1.000  H
  H170     1.0000 0.81040  0.41360  0.35500  Biso   1.000  H
  H171     1.0000 0.50210  0.01190  0.13540  Biso   1.000  H
  H172     1.0000 0.56870  0.98810  0.08740  Biso   1.000  H
  H173     1.0000 0.69180  0.09840  0.08720  Biso   1.000  H
  H174     1.0000 0.62530  0.12230  0.13500  Biso   1.000  H
  H175     1.0000 0.59960  0.21400  0.18220  Biso   1.000  H
  H176     1.0000 0.66760  0.29090  0.14100  Biso   1.000  H
  H177     1.0000 0.53910  0.39070  0.12860  Biso   1.000  H
  H178     1.0000 0.47110  0.31390  0.16980  Biso   1.000  H
  H179     1.0000 0.44160  0.25640  0.23760  Biso   1.000  H
  H180     1.0000 0.40190  0.02740  0.24380  Biso   1.000  H
  H181     1.0000 0.47240  0.00320  0.19660  Biso   1.000  H
  H182     1.0000 0.55080  0.16270  0.15860  Biso   1.000  H
  H183     1.0000 0.48500  0.90760  0.46500  Biso   1.000  H
  H184     1.0000 0.46440  0.97190  0.41500  Biso   1.000  H
  H185     1.0000 0.34680  0.85080  0.42040  Biso   1.000  H
  H186     1.0000 0.36740  0.78650  0.47060  Biso   1.000  H
  H187     1.0000 0.26330  0.87790  0.37160  Biso   1.000  H
  H188     1.0000 0.18780  0.81000  0.41440  Biso   1.000  H
  H189     1.0000 0.08500  0.93760  0.42300  Biso   1.000  H
  H190     1.0000 0.16050  0.00550  0.38020  Biso   1.000  H
  H191     1.0000 0.21780  0.03050  0.31440  Biso   1.000  H
  H192     1.0000 0.44970  0.06940  0.30840  Biso   1.000  H
  H193     1.0000 0.47300  0.00110  0.35400  Biso   1.000  H
  H194     1.0000 0.30810  0.93160  0.39700  Biso   1.000  H
  H195     1.0000 0.21950  0.07310  0.25800  Biso   1.000  H
  H196     1.0000 0.20370  0.12320  0.27480  Biso   1.000  H
  H197     1.0000 0.19390  0.14870  0.21380  Biso   1.000  H
  H198     1.0000 0.23930  0.19280  0.21460  Biso   1.000  H
  H199     1.0000 0.25980  0.14420  0.19720  Biso   1.000  H
  H200     1.0000 0.41190  0.24520  0.30000  Biso   1.000  H
  H201     1.0000 0.37220  0.27540  0.27800  Biso   1.000  H
  H202     1.0000 0.35700  0.29600  0.33260  Biso   1.000  H
  H203     1.0000 0.30020  0.26920  0.33100  Biso   1.000  H
  H204     1.0000 0.33460  0.23140  0.35500  Biso   1.000  H
  H205     1.0000 0.85270  0.50210  0.63540  Biso   1.000  H
  H206     1.0000 0.92450  0.56870  0.58740  Biso   1.000  H
  H207     1.0000 0.81440  0.69180  0.58720  Biso   1.000  H
  H208     1.0000 0.74270  0.62530  0.63500  Biso   1.000  H
  H209     1.0000 0.60380  0.59960  0.68220  Biso   1.000  H
  H210     1.0000 0.56810  0.66760  0.64100  Biso   1.000  H
  H211     1.0000 0.48070  0.53910  0.62860  Biso   1.000  H
  H212     1.0000 0.51630  0.47110  0.66980  Biso   1.000  H
  H213     1.0000 0.50600  0.44160  0.73760  Biso   1.000  H
  H214     1.0000 0.72880  0.40190  0.74380  Biso   1.000  H
  H215     1.0000 0.80020  0.47240  0.69660  Biso   1.000  H
  H216     1.0000 0.67870  0.55080  0.65860  Biso   1.000  H
  H217     1.0000 0.62740  0.48500  0.96500  Biso   1.000  H
  H218     1.0000 0.61310  0.46440  0.91500  Biso   1.000  H
  H219     1.0000 0.72880  0.34680  0.92040  Biso   1.000  H
  H220     1.0000 0.74290  0.36740  0.97060  Biso   1.000  H
  H221     1.0000 0.75050  0.26330  0.87160  Biso   1.000  H
  H222     1.0000 0.77560  0.18780  0.91440  Biso   1.000  H
  H223     1.0000 0.63940  0.08500  0.92300  Biso   1.000  H
  H224     1.0000 0.61430  0.16050  0.88020  Biso   1.000  H
  H225     1.0000 0.65510  0.21780  0.81440  Biso   1.000  H
  H226     1.0000 0.62220  0.44970  0.80840  Biso   1.000  H
  H227     1.0000 0.64490  0.47300  0.85400  Biso   1.000  H
  H228     1.0000 0.67140  0.30810  0.89700  Biso   1.000  H
  H229     1.0000 0.66890  0.21950  0.75800  Biso   1.000  H
  H230     1.0000 0.60200  0.20370  0.77480  Biso   1.000  H
  H231     1.0000 0.63750  0.19390  0.71380  Biso   1.000  H
  H232     1.0000 0.59260  0.23930  0.71460  Biso   1.000  H
  H233     1.0000 0.65860  0.25980  0.69720  Biso   1.000  H
  H234     1.0000 0.45480  0.41190  0.80000  Biso   1.000  H
  H235     1.0000 0.44660  0.37220  0.77800  Biso   1.000  H
  H236     1.0000 0.37140  0.35700  0.83260  Biso   1.000  H
  H237     1.0000 0.39980  0.30020  0.83100  Biso   1.000  H
  H238     1.0000 0.41360  0.33460  0.85500  Biso   1.000  H
  H239     1.0000 0.01190  0.86250  0.63540  Biso   1.000  H
  H240     1.0000 0.98810  0.84390  0.58740  Biso   1.000  H
  H241     1.0000 0.09840  0.72100  0.58720  Biso   1.000  H
  H242     1.0000 0.12230  0.73970  0.63500  Biso   1.000  H
  H243     1.0000 0.21400  0.71820  0.68220  Biso   1.000  H
  H244     1.0000 0.29090  0.69140  0.64100  Biso   1.000  H
  H245     1.0000 0.39070  0.83230  0.62860  Biso   1.000  H
  H246     1.0000 0.31390  0.85910  0.66980  Biso   1.000  H
  H247     1.0000 0.25640  0.82080  0.73760  Biso   1.000  H
  H248     1.0000 0.02740  0.85430  0.74380  Biso   1.000  H
  H249     1.0000 0.00320  0.83100  0.69660  Biso   1.000  H
  H250     1.0000 0.16270  0.79060  0.65860  Biso   1.000  H
  H251     1.0000 0.90760  0.55000  0.96500  Biso   1.000  H
  H252     1.0000 0.97190  0.62060  0.91500  Biso   1.000  H
  H253     1.0000 0.85080  0.73280  0.92040  Biso   1.000  H
  H254     1.0000 0.78650  0.66200  0.97060  Biso   1.000  H
  H255     1.0000 0.87790  0.86510  0.87160  Biso   1.000  H
  H256     1.0000 0.81000  0.89780  0.91440  Biso   1.000  H
  H257     1.0000 0.93760  0.99200  0.92300  Biso   1.000  H
  H258     1.0000 0.00550  0.95930  0.88020  Biso   1.000  H
  H259     1.0000 0.03050  0.96780  0.81440  Biso   1.000  H
  H260     1.0000 0.06940  0.74190  0.80840  Biso   1.000  H
  H261     1.0000 0.00110  0.67300  0.85400  Biso   1.000  H
  H262     1.0000 0.93160  0.79490  0.89700  Biso   1.000  H
  H263     1.0000 0.07310  0.02250  0.75800  Biso   1.000  H
  H264     1.0000 0.12320  0.02150  0.77480  Biso   1.000  H
  H265     1.0000 0.14870  0.09230  0.71380  Biso   1.000  H
  H266     1.0000 0.19280  0.04610  0.71460  Biso   1.000  H
  H267     1.0000 0.14420  0.04300  0.69720  Biso   1.000  H
  H268     1.0000 0.24520  0.78810  0.80000  Biso   1.000  H
  H269     1.0000 0.27540  0.84980  0.77800  Biso   1.000  H
  H270     1.0000 0.29600  0.81040  0.83260  Biso   1.000  H
  H271     1.0000 0.26920  0.86880  0.83100  Biso   1.000  H
  H272     1.0000 0.23140  0.81040  0.85500  Biso   1.000  H
  C209     1.0000 0.80305  0.79035  0.14010  Biso   1.000  C
  C210     1.0000 0.83439  0.84512  0.12576  Biso   1.000  C
  C211     1.0000 0.82315  0.88835  0.09690  Biso   1.000  C
  C212     1.0000 0.78051  0.87681  0.08238  Biso   1.000  C
  C213     1.0000 0.74916  0.82204  0.09672  Biso   1.000  C
  C214     1.0000 0.76041  0.77881  0.12558  Biso   1.000  C
  C215     1.0000 0.75775  0.50965  0.09670  Biso   1.000  C
  C216     1.0000 0.79141  0.56371  0.18018  Biso   1.000  C
  C217     1.0000 0.74082  0.57933  0.17156  Biso   1.000  C
  C218     1.0000 0.72469  0.55781  0.14678  Biso   1.000  C
  C219     1.0000 0.75908  0.52068  0.13064  Biso   1.000  C
  C220     1.0000 0.80967  0.50514  0.13926  Biso   1.000  C
  C221     1.0000 0.82582  0.52669  0.16402  Biso   1.000  C
  C222     1.0000 0.54972  0.70092  0.50136  Biso   1.000  C
  C223     1.0000 0.84479  0.61939  0.26002  Biso   1.000  C
  C224     1.0000 0.84125  0.56105  0.26210  Biso   1.000  C
  C225     1.0000 0.82310  0.54446  0.23620  Biso   1.000  C
  C226     1.0000 0.80839  0.58629  0.20822  Biso   1.000  C
  C227     1.0000 0.81194  0.64464  0.20612  Biso   1.000  C
  C228     1.0000 0.83008  0.66115  0.23204  Biso   1.000  C
  C229     1.0000 0.83993  0.71813  0.22754  Biso   1.000  C
  C230     1.0000 0.82832  0.76162  0.19816  Biso   1.000  C
  C231     1.0000 0.81279  0.74449  0.17222  Biso   1.000  C
  C232     1.0000 0.80315  0.68865  0.17590  Biso   1.000  C
  C233     1.0000 0.59872  0.68662  0.47296  Biso   1.000  C
  C234     1.0000 0.58625  0.64749  0.45622  Biso   1.000  C
  C235     1.0000 0.62889  0.63889  0.42602  Biso   1.000  C
  C236     1.0000 0.68392  0.66942  0.41256  Biso   1.000  C
  C237     1.0000 0.69642  0.70855  0.42930  Biso   1.000  C
  C238     1.0000 0.65385  0.71715  0.45950  Biso   1.000  C
  C239     1.0000 0.97301  0.72871  0.45038  Biso   1.000  C
  C240     1.0000 0.90887  0.67987  0.37146  Biso   1.000  C
  C241     1.0000 0.89031  0.72841  0.38178  Biso   1.000  C
  C242     1.0000 0.91000  0.74360  0.40760  Biso   1.000  C
  C243     1.0000 0.94824  0.71004  0.42312  Biso   1.000  C
  C244     1.0000 0.96675  0.66149  0.41282  Biso   1.000  C
  C245     1.0000 0.94711  0.64641  0.38698  Biso   1.000  C
  C246     1.0000 0.77618  0.91488  0.04984  Biso   1.000  C
  C247     1.0000 0.85476  0.63036  0.29188  Biso   1.000  C
  C248     1.0000 0.91316  0.63526  0.28948  Biso   1.000  C
  C249     1.0000 0.92923  0.65186  0.31608  Biso   1.000  C
  C250     1.0000 0.88685  0.66375  0.34510  Biso   1.000  C
  C251     1.0000 0.82844  0.65894  0.34752  Biso   1.000  C
  C252     1.0000 0.81238  0.64225  0.32090  Biso   1.000  C
  C253     1.0000 0.75285  0.63515  0.32510  Biso   1.000  C
  C254     1.0000 0.71141  0.64661  0.35278  Biso   1.000  C
  C255     1.0000 0.72847  0.66127  0.37966  Biso   1.000  C
  C256     1.0000 0.78508  0.66488  0.37784  Biso   1.000  C
  C257     1.0000 0.01330  0.63230  0.25540  Biso   1.000  C
  C258     1.0000 0.05260  0.63000  0.21640  Biso   1.000  C
  C259     1.0000 0.82770  0.45580  0.29980  Biso   1.000  C
  C260     1.0000 0.82950  0.40560  0.33260  Biso   1.000  C
  C261     1.0000 0.55685  0.06955  0.14010  Biso   1.000  C
  C262     1.0000 0.53985  0.02912  0.12576  Biso   1.000  C
  C263     1.0000 0.57995  0.01475  0.09690  Biso   1.000  C
  C264     1.0000 0.63711  0.04081  0.08238  Biso   1.000  C
  C265     1.0000 0.65412  0.08124  0.09672  Biso   1.000  C
  C266     1.0000 0.61401  0.09561  0.12558  Biso   1.000  C
  C267     1.0000 0.64555  0.39365  0.09670  Biso   1.000  C
  C268     1.0000 0.52841  0.25611  0.18018  Biso   1.000  C
  C269     1.0000 0.58762  0.24911  0.17156  Biso   1.000  C
  C270     1.0000 0.62853  0.29541  0.14678  Biso   1.000  C
  C271     1.0000 0.61028  0.34868  0.13064  Biso   1.000  C
  C272     1.0000 0.55107  0.35560  0.13926  Biso   1.000  C
  C273     1.0000 0.51016  0.30929  0.16402  Biso   1.000  C
  C274     1.0000 0.44892  0.79772  0.50136  Biso   1.000  C
  C275     1.0000 0.39519  0.12059  0.26002  Biso   1.000  C
  C276     1.0000 0.39665  0.17685  0.26210  Biso   1.000  C
  C277     1.0000 0.44070  0.21934  0.23620  Biso   1.000  C
  C278     1.0000 0.48339  0.20549  0.20822  Biso   1.000  C
  C279     1.0000 0.48194  0.14924  0.20612  Biso   1.000  C
  C280     1.0000 0.43788  0.10681  0.23204  Biso   1.000  C
  C281     1.0000 0.43253  0.05433  0.22754  Biso   1.000  C
  C282     1.0000 0.47352  0.04022  0.19816  Biso   1.000  C
  C283     1.0000 0.51499  0.08329  0.17222  Biso   1.000  C
  C284     1.0000 0.52095  0.13545  0.17590  Biso   1.000  C
  C285     1.0000 0.42832  0.84042  0.47296  Biso   1.000  C
  C286     1.0000 0.45753  0.89629  0.45622  Biso   1.000  C
  C287     1.0000 0.44509  0.93509  0.42602  Biso   1.000  C
  C288     1.0000 0.40352  0.91802  0.41256  Biso   1.000  C
  C289     1.0000 0.37428  0.86215  0.42930  Biso   1.000  C
  C290     1.0000 0.38665  0.82335  0.45950  Biso   1.000  C
  C291     1.0000 0.07661  0.82091  0.45038  Biso   1.000  C
  C292     1.0000 0.21967  0.94867  0.37146  Biso   1.000  C
  C293     1.0000 0.22791  0.88981  0.38178  Biso   1.000  C
  C294     1.0000 0.18240  0.84880  0.40760  Biso   1.000  C
  C295     1.0000 0.12864  0.86684  0.42312  Biso   1.000  C
  C296     1.0000 0.12043  0.92569  0.41282  Biso   1.000  C
  C297     1.0000 0.16591  0.96661  0.38698  Biso   1.000  C
  C298     1.0000 0.67398  0.03528  0.04984  Biso   1.000  C
  C299     1.0000 0.35336  0.07776  0.29188  Biso   1.000  C
  C300     1.0000 0.29736  0.07526  0.28948  Biso   1.000  C
  C301     1.0000 0.25469  0.03206  0.31608  Biso   1.000  C
  C302     1.0000 0.26805  0.99115  0.34510  Biso   1.000  C
  C303     1.0000 0.32404  0.99354  0.34752  Biso   1.000  C
  C304     1.0000 0.36672  0.03685  0.32090  Biso   1.000  C
  C305     1.0000 0.42205  0.03975  0.32510  Biso   1.000  C
  C306     1.0000 0.43581  0.00061  0.35278  Biso   1.000  C
  C307     1.0000 0.39187  0.95907  0.37966  Biso   1.000  C
  C308     1.0000 0.33708  0.95728  0.37784  Biso   1.000  C
  C309     1.0000 0.23130  0.11230  0.25540  Biso   1.000  C
  C310     1.0000 0.23100  0.15360  0.21640  Biso   1.000  C
  C311     1.0000 0.37250  0.24440  0.29980  Biso   1.000  C
  C312     1.0000 0.33790  0.26180  0.33260  Biso   1.000  C
  C313     1.0000 0.79035  0.55685  0.64010  Biso   1.000  C
  C314     1.0000 0.84512  0.53985  0.62576  Biso   1.000  C
  C315     1.0000 0.88835  0.57995  0.59690  Biso   1.000  C
  C316     1.0000 0.87681  0.63711  0.58238  Biso   1.000  C
  C317     1.0000 0.82204  0.65412  0.59672  Biso   1.000  C
  C318     1.0000 0.77881  0.61401  0.62558  Biso   1.000  C
  C319     1.0000 0.50965  0.64555  0.59670  Biso   1.000  C
  C320     1.0000 0.56371  0.52841  0.68018  Biso   1.000  C
  C321     1.0000 0.57933  0.58762  0.67156  Biso   1.000  C
  C322     1.0000 0.55781  0.62853  0.64678  Biso   1.000  C
  C323     1.0000 0.52068  0.61028  0.63064  Biso   1.000  C
  C324     1.0000 0.50514  0.55107  0.63926  Biso   1.000  C
  C325     1.0000 0.52669  0.51016  0.66402  Biso   1.000  C
  C326     1.0000 0.70092  0.44892  0.00136  Biso   1.000  C
  C327     1.0000 0.61939  0.39519  0.76002  Biso   1.000  C
  C328     1.0000 0.56105  0.39665  0.76210  Biso   1.000  C
  C329     1.0000 0.54446  0.44070  0.73620  Biso   1.000  C
  C330     1.0000 0.58629  0.48339  0.70822  Biso   1.000  C
  C331     1.0000 0.64464  0.48194  0.70612  Biso   1.000  C
  C332     1.0000 0.66115  0.43788  0.73204  Biso   1.000  C
  C333     1.0000 0.71813  0.43253  0.72754  Biso   1.000  C
  C334     1.0000 0.76162  0.47352  0.69816  Biso   1.000  C
  C335     1.0000 0.74449  0.51499  0.67222  Biso   1.000  C
  C336     1.0000 0.68865  0.52095  0.67590  Biso   1.000  C
  C337     1.0000 0.68662  0.42832  0.97296  Biso   1.000  C
  C338     1.0000 0.64749  0.45753  0.95622  Biso   1.000  C
  C339     1.0000 0.63889  0.44509  0.92602  Biso   1.000  C
  C340     1.0000 0.66942  0.40352  0.91256  Biso   1.000  C
  C341     1.0000 0.70855  0.37428  0.92930  Biso   1.000  C
  C342     1.0000 0.71715  0.38665  0.95950  Biso   1.000  C
  C343     1.0000 0.72871  0.07661  0.95038  Biso   1.000  C
  C344     1.0000 0.67987  0.21967  0.87146  Biso   1.000  C
  C345     1.0000 0.72841  0.22791  0.88178  Biso   1.000  C
  C346     1.0000 0.74360  0.18240  0.90760  Biso   1.000  C
  C347     1.0000 0.71004  0.12864  0.92312  Biso   1.000  C
  C348     1.0000 0.66149  0.12043  0.91282  Biso   1.000  C
  C349     1.0000 0.64641  0.16591  0.88698  Biso   1.000  C
  C350     1.0000 0.91488  0.67398  0.54984  Biso   1.000  C
  C351     1.0000 0.63036  0.35336  0.79188  Biso   1.000  C
  C352     1.0000 0.63526  0.29736  0.78948  Biso   1.000  C
  C353     1.0000 0.65186  0.25469  0.81608  Biso   1.000  C
  C354     1.0000 0.66375  0.26805  0.84510  Biso   1.000  C
  C355     1.0000 0.65894  0.32404  0.84752  Biso   1.000  C
  C356     1.0000 0.64225  0.36672  0.82090  Biso   1.000  C
  C357     1.0000 0.63515  0.42205  0.82510  Biso   1.000  C
  C358     1.0000 0.64661  0.43581  0.85278  Biso   1.000  C
  C359     1.0000 0.66127  0.39187  0.87966  Biso   1.000  C
  C360     1.0000 0.66488  0.33708  0.87784  Biso   1.000  C
  C361     1.0000 0.63230  0.23130  0.75540  Biso   1.000  C
  C362     1.0000 0.63000  0.23100  0.71640  Biso   1.000  C
  C363     1.0000 0.45580  0.37250  0.79980  Biso   1.000  C
  C364     1.0000 0.40560  0.33790  0.83260  Biso   1.000  C
  C365     1.0000 0.06955  0.80305  0.64010  Biso   1.000  C
  C366     1.0000 0.02912  0.83439  0.62576  Biso   1.000  C
  C367     1.0000 0.01475  0.82315  0.59690  Biso   1.000  C
  C368     1.0000 0.04081  0.78051  0.58238  Biso   1.000  C
  C369     1.0000 0.08124  0.74916  0.59672  Biso   1.000  C
  C370     1.0000 0.09561  0.76041  0.62558  Biso   1.000  C
  C371     1.0000 0.39365  0.75775  0.59670  Biso   1.000  C
  C372     1.0000 0.25611  0.79141  0.68018  Biso   1.000  C
  C373     1.0000 0.24911  0.74082  0.67156  Biso   1.000  C
  C374     1.0000 0.29541  0.72469  0.64678  Biso   1.000  C
  C375     1.0000 0.34868  0.75908  0.63064  Biso   1.000  C
  C376     1.0000 0.35560  0.80967  0.63926  Biso   1.000  C
  C377     1.0000 0.30929  0.82582  0.66402  Biso   1.000  C
  C378     1.0000 0.79772  0.54972  0.00136  Biso   1.000  C
  C379     1.0000 0.12059  0.84479  0.76002  Biso   1.000  C
  C380     1.0000 0.17685  0.84125  0.76210  Biso   1.000  C
  C381     1.0000 0.21934  0.82310  0.73620  Biso   1.000  C
  C382     1.0000 0.20549  0.80839  0.70822  Biso   1.000  C
  C383     1.0000 0.14924  0.81194  0.70612  Biso   1.000  C
  C384     1.0000 0.10681  0.83008  0.73204  Biso   1.000  C
  C385     1.0000 0.05433  0.83993  0.72754  Biso   1.000  C
  C386     1.0000 0.04022  0.82832  0.69816  Biso   1.000  C
  C387     1.0000 0.08329  0.81279  0.67222  Biso   1.000  C
  C388     1.0000 0.13545  0.80315  0.67590  Biso   1.000  C
  C389     1.0000 0.84042  0.59872  0.97296  Biso   1.000  C
  C390     1.0000 0.89629  0.58625  0.95622  Biso   1.000  C
  C391     1.0000 0.93509  0.62889  0.92602  Biso   1.000  C
  C392     1.0000 0.91802  0.68392  0.91256  Biso   1.000  C
  C393     1.0000 0.86215  0.69642  0.92930  Biso   1.000  C
  C394     1.0000 0.82335  0.65385  0.95950  Biso   1.000  C
  C395     1.0000 0.82091  0.97301  0.95038  Biso   1.000  C
  C396     1.0000 0.94867  0.90887  0.87146  Biso   1.000  C
  C397     1.0000 0.88981  0.89031  0.88178  Biso   1.000  C
  C398     1.0000 0.84880  0.91000  0.90760  Biso   1.000  C
  C399     1.0000 0.86684  0.94824  0.92312  Biso   1.000  C
  C400     1.0000 0.92569  0.96675  0.91282  Biso   1.000  C
  C401     1.0000 0.96661  0.94711  0.88698  Biso   1.000  C
  C402     1.0000 0.03528  0.77618  0.54984  Biso   1.000  C
  C403     1.0000 0.07776  0.85476  0.79188  Biso   1.000  C
  C404     1.0000 0.07526  0.91316  0.78948  Biso   1.000  C
  C405     1.0000 0.03206  0.92923  0.81608  Biso   1.000  C
  C406     1.0000 0.99115  0.88685  0.84510  Biso   1.000  C
  C407     1.0000 0.99354  0.82844  0.84752  Biso   1.000  C
  C408     1.0000 0.03685  0.81238  0.82090  Biso   1.000  C
  C409     1.0000 0.03975  0.75285  0.82510  Biso   1.000  C
  C410     1.0000 0.00061  0.71141  0.85278  Biso   1.000  C
  C411     1.0000 0.95907  0.72847  0.87966  Biso   1.000  C
  C412     1.0000 0.95728  0.78508  0.87784  Biso   1.000  C
  C413     1.0000 0.11230  0.01330  0.75540  Biso   1.000  C
  C414     1.0000 0.15360  0.05260  0.71640  Biso   1.000  C
  C415     1.0000 0.24440  0.82770  0.79980  Biso   1.000  C
  C416     1.0000 0.26180  0.82950  0.83260  Biso   1.000  C
  O49      1.0000 0.77701  0.46861  0.08858  Biso   1.000  O
  O50      1.0000 0.50273  0.67203  0.51174  Biso   1.000  O
  O51      1.0000 0.80106  0.96986  0.03868  Biso   1.000  O
  O52      1.0000 0.00772  0.69512  0.46176  Biso   1.000  O
  O53      1.0000 0.94885  0.76595  0.46130  Biso   1.000  O
  O54      1.0000 0.73279  0.90859  0.03702  Biso   1.000  O
  O55      1.0000 0.70723  0.52719  0.08974  Biso   1.000  O
  O56      1.0000 0.56591  0.73651  0.51278  Biso   1.000  O
  O57      1.0000 0.84658  0.51798  0.29264  Biso   1.000  O
  O58      1.0000 0.95053  0.62513  0.25974  Biso   1.000  O
  O59      1.0000 0.82990  0.38310  0.05160  Biso   1.000  O
  O60      1.0000 0.85516  0.09816  0.99688  Biso   1.000  O
  O61      1.0000 0.63441  0.44281  0.08858  Biso   1.000  O
  O62      1.0000 0.48553  0.81623  0.51174  Biso   1.000  O
  O63      1.0000 0.66026  0.99146  0.03868  Biso   1.000  O
  O64      1.0000 0.03052  0.84312  0.46176  Biso   1.000  O
  O65      1.0000 0.08985  0.77275  0.46130  Biso   1.000  O
  O66      1.0000 0.73019  0.05439  0.03702  Biso   1.000  O
  O67      1.0000 0.70303  0.38307  0.08974  Biso   1.000  O
  O68      1.0000 0.42131  0.75071  0.51278  Biso   1.000  O
  O69      1.0000 0.36078  0.18938  0.29264  Biso   1.000  O
  O70      1.0000 0.28973  0.11513  0.25974  Biso   1.000  O
  O71      1.0000 0.61850  0.56530  0.05160  Biso   1.000  O
  O72      1.0000 0.64796  0.90496  0.99688  Biso   1.000  O
  O73      1.0000 0.46861  0.63441  0.58858  Biso   1.000  O
  O74      1.0000 0.67203  0.48553  0.01174  Biso   1.000  O
  O75      1.0000 0.96986  0.66026  0.53868  Biso   1.000  O
  O76      1.0000 0.69512  0.03052  0.96176  Biso   1.000  O
  O77      1.0000 0.76595  0.08985  0.96130  Biso   1.000  O
  O78      1.0000 0.90859  0.73019  0.53702  Biso   1.000  O
  O79      1.0000 0.52719  0.70303  0.58974  Biso   1.000  O
  O80      1.0000 0.73651  0.42131  0.01278  Biso   1.000  O
  O81      1.0000 0.51798  0.36078  0.79264  Biso   1.000  O
  O82      1.0000 0.62513  0.28973  0.75974  Biso   1.000  O
  O83      1.0000 0.38310  0.61850  0.55160  Biso   1.000  O
  O84      1.0000 0.09816  0.64796  0.49688  Biso   1.000  O
  O85      1.0000 0.44281  0.77701  0.58858  Biso   1.000  O
  O86      1.0000 0.81623  0.50273  0.01174  Biso   1.000  O
  O87      1.0000 0.99146  0.80106  0.53868  Biso   1.000  O
  O88      1.0000 0.84312  0.00772  0.96176  Biso   1.000  O
  O89      1.0000 0.77275  0.94885  0.96130  Biso   1.000  O
  O90      1.0000 0.05439  0.73279  0.53702  Biso   1.000  O
  O91      1.0000 0.38307  0.70723  0.58974  Biso   1.000  O
  O92      1.0000 0.75071  0.56591  0.01278  Biso   1.000  O
  O93      1.0000 0.18938  0.84658  0.79264  Biso   1.000  O
  O94      1.0000 0.11513  0.95053  0.75974  Biso   1.000  O
  O95      1.0000 0.56530  0.82990  0.55160  Biso   1.000  O
  O96      1.0000 0.90496  0.85516  0.49688  Biso   1.000  O
