data_image0
_cell_length_a       13.5953
_cell_length_b       17.0131
_cell_length_c       51.887
_cell_angle_alpha    90
_cell_angle_beta     90
_cell_angle_gamma    90

_symmetry_space_group_name_H-M    P 1
_symmetry_int_tables_number       1

loop_
  _symmetry_equiv_pos_as_xyz
  'x, y, z'

loop_
  _atom_site_label
  _atom_site_occupancy
  _atom_site_fract_x
  _atom_site_fract_y
  _atom_site_fract_z
  _atom_site_thermal_displace_type
  _atom_site_B_iso_or_equiv
  _atom_site_type_symbol
  Cd1      1.0000 0.67863  0.48028  0.17145  Biso   1.000  Cd
  Cd2      1.0000 0.90476  0.97597  0.16677  Biso   1.000  Cd
  Cd3      1.0000 0.63976  0.99715  0.99128  Biso   1.000  Cd
  Cd4      1.0000 0.32137  0.01972  0.67145  Biso   1.000  Cd
  Cd5      1.0000 0.09524  0.52403  0.66677  Biso   1.000  Cd
  Cd6      1.0000 0.36024  0.50285  0.49128  Biso   1.000  Cd
  Cd7      1.0000 0.17863  0.51972  0.32855  Biso   1.000  Cd
  Cd8      1.0000 0.40476  0.02403  0.33323  Biso   1.000  Cd
  Cd9      1.0000 0.13976  0.00285  0.50872  Biso   1.000  Cd
  Cd10     1.0000 0.82137  0.98028  0.82855  Biso   1.000  Cd
  Cd11     1.0000 0.59524  0.47597  0.83323  Biso   1.000  Cd
  Cd12     1.0000 0.86024  0.49715  0.00872  Biso   1.000  Cd
  Cd13     1.0000 0.32137  0.51972  0.82855  Biso   1.000  Cd
  Cd14     1.0000 0.09524  0.02403  0.83323  Biso   1.000  Cd
  Cd15     1.0000 0.36024  0.00285  0.00872  Biso   1.000  Cd
  Cd16     1.0000 0.67863  0.98028  0.32855  Biso   1.000  Cd
  Cd17     1.0000 0.90476  0.47597  0.33323  Biso   1.000  Cd
  Cd18     1.0000 0.63976  0.49715  0.50872  Biso   1.000  Cd
  Cd19     1.0000 0.82137  0.48028  0.67145  Biso   1.000  Cd
  Cd20     1.0000 0.59524  0.97597  0.66677  Biso   1.000  Cd
  Cd21     1.0000 0.86024  0.99715  0.49128  Biso   1.000  Cd
  Cd22     1.0000 0.17863  0.01972  0.17145  Biso   1.000  Cd
  Cd23     1.0000 0.40476  0.52403  0.16677  Biso   1.000  Cd
  Cd24     1.0000 0.13976  0.50285  0.99128  Biso   1.000  Cd
  H1       1.0000 0.91390  0.40090  0.14320  Biso   1.000  H
  H2       1.0000 0.66640  0.06440  0.13010  Biso   1.000  H
  H3       1.0000 0.87570  0.10620  0.21400  Biso   1.000  H
  H4       1.0000 0.88560  0.24080  0.22120  Biso   1.000  H
  H5       1.0000 0.90500  0.32560  0.18630  Biso   1.000  H
  H6       1.0000 0.90930  0.52390  0.12330  Biso   1.000  H
  H7       1.0000 0.89630  0.63970  0.09880  Biso   1.000  H
  H8       1.0000 0.89030  0.63140  0.05440  Biso   1.000  H
  H9       1.0000 0.91870  0.40190  0.05670  Biso   1.000  H
  H10      1.0000 0.92570  0.15990  0.06830  Biso   1.000  H
  H11      1.0000 0.92270  0.02290  0.06640  Biso   1.000  H
  H12      1.0000 0.91540  0.95080  0.10470  Biso   1.000  H
  H13      1.0000 0.64190  0.33250  0.21250  Biso   1.000  H
  H14      1.0000 0.63850  0.19550  0.21390  Biso   1.000  H
  H15      1.0000 0.65580  0.12380  0.17600  Biso   1.000  H
  H16      1.0000 0.66480  0.94970  0.10610  Biso   1.000  H
  H17      1.0000 0.65730  0.84260  0.07800  Biso   1.000  H
  H18      1.0000 0.65600  0.86390  0.03380  Biso   1.000  H
  H19      1.0000 0.67350  0.09260  0.04400  Biso   1.000  H
  H20      1.0000 0.68500  0.33290  0.06580  Biso   1.000  H
  H21      1.0000 0.67670  0.46920  0.06950  Biso   1.000  H
  H22      1.0000 0.66870  0.52590  0.11030  Biso   1.000  H
  H23      1.0000 0.51960  0.92980  0.15360  Biso   1.000  H
  H24      1.0000 0.39310  0.83750  0.15640  Biso   1.000  H
  H25      1.0000 0.43110  0.70420  0.15810  Biso   1.000  H
  H26      1.0000 0.72150  0.75660  0.15960  Biso   1.000  H
  H27      1.0000 0.37270  0.53500  0.25490  Biso   1.000  H
  H28      1.0000 0.56020  0.51010  0.31440  Biso   1.000  H
  H29      1.0000 0.69190  0.50250  0.28580  Biso   1.000  H
  H30      1.0000 0.66380  0.50550  0.24140  Biso   1.000  H
  H31      1.0000 0.01790  0.94430  0.98210  Biso   1.000  H
  H32      1.0000 0.14590  0.85430  0.98490  Biso   1.000  H
  H33      1.0000 0.11330  0.72040  0.98990  Biso   1.000  H
  H34      1.0000 0.82150  0.76720  0.98890  Biso   1.000  H
  H35      1.0000 0.08610  0.09910  0.64320  Biso   1.000  H
  H36      1.0000 0.33360  0.43560  0.63010  Biso   1.000  H
  H37      1.0000 0.12430  0.39380  0.71400  Biso   1.000  H
  H38      1.0000 0.11440  0.25920  0.72120  Biso   1.000  H
  H39      1.0000 0.09500  0.17440  0.68630  Biso   1.000  H
  H40      1.0000 0.09070  0.97610  0.62330  Biso   1.000  H
  H41      1.0000 0.10370  0.86030  0.59880  Biso   1.000  H
  H42      1.0000 0.10970  0.86860  0.55440  Biso   1.000  H
  H43      1.0000 0.08130  0.09810  0.55670  Biso   1.000  H
  H44      1.0000 0.07430  0.34010  0.56830  Biso   1.000  H
  H45      1.0000 0.07730  0.47710  0.56640  Biso   1.000  H
  H46      1.0000 0.08460  0.54920  0.60470  Biso   1.000  H
  H47      1.0000 0.35810  0.16750  0.71250  Biso   1.000  H
  H48      1.0000 0.36150  0.30450  0.71390  Biso   1.000  H
  H49      1.0000 0.34420  0.37620  0.67600  Biso   1.000  H
  H50      1.0000 0.33520  0.55030  0.60610  Biso   1.000  H
  H51      1.0000 0.34270  0.65740  0.57800  Biso   1.000  H
  H52      1.0000 0.34400  0.63610  0.53380  Biso   1.000  H
  H53      1.0000 0.32650  0.40740  0.54400  Biso   1.000  H
  H54      1.0000 0.31500  0.16710  0.56580  Biso   1.000  H
  H55      1.0000 0.32330  0.03080  0.56950  Biso   1.000  H
  H56      1.0000 0.33130  0.97410  0.61030  Biso   1.000  H
  H57      1.0000 0.48040  0.57020  0.65360  Biso   1.000  H
  H58      1.0000 0.60690  0.66250  0.65640  Biso   1.000  H
  H59      1.0000 0.56890  0.79580  0.65810  Biso   1.000  H
  H60      1.0000 0.27850  0.74340  0.65960  Biso   1.000  H
  H61      1.0000 0.62730  0.96500  0.75490  Biso   1.000  H
  H62      1.0000 0.43980  0.98990  0.81440  Biso   1.000  H
  H63      1.0000 0.30810  0.99750  0.78580  Biso   1.000  H
  H64      1.0000 0.33620  0.99450  0.74140  Biso   1.000  H
  H65      1.0000 0.98210  0.55570  0.48210  Biso   1.000  H
  H66      1.0000 0.85410  0.64570  0.48490  Biso   1.000  H
  H67      1.0000 0.88670  0.77960  0.48990  Biso   1.000  H
  H68      1.0000 0.17850  0.73280  0.48890  Biso   1.000  H
  H69      1.0000 0.41390  0.59910  0.35680  Biso   1.000  H
  H70      1.0000 0.16640  0.93560  0.36990  Biso   1.000  H
  H71      1.0000 0.37570  0.89380  0.28600  Biso   1.000  H
  H72      1.0000 0.38560  0.75920  0.27880  Biso   1.000  H
  H73      1.0000 0.40500  0.67440  0.31370  Biso   1.000  H
  H74      1.0000 0.40930  0.47610  0.37670  Biso   1.000  H
  H75      1.0000 0.39630  0.36030  0.40120  Biso   1.000  H
  H76      1.0000 0.39030  0.36860  0.44560  Biso   1.000  H
  H77      1.0000 0.41870  0.59810  0.44330  Biso   1.000  H
  H78      1.0000 0.42570  0.84010  0.43170  Biso   1.000  H
  H79      1.0000 0.42270  0.97710  0.43360  Biso   1.000  H
  H80      1.0000 0.41540  0.04920  0.39530  Biso   1.000  H
  H81      1.0000 0.14190  0.66750  0.28750  Biso   1.000  H
  H82      1.0000 0.13850  0.80450  0.28610  Biso   1.000  H
  H83      1.0000 0.15580  0.87620  0.32400  Biso   1.000  H
  H84      1.0000 0.16480  0.05030  0.39390  Biso   1.000  H
  H85      1.0000 0.15730  0.15740  0.42200  Biso   1.000  H
  H86      1.0000 0.15600  0.13610  0.46620  Biso   1.000  H
  H87      1.0000 0.17350  0.90740  0.45600  Biso   1.000  H
  H88      1.0000 0.18500  0.66710  0.43420  Biso   1.000  H
  H89      1.0000 0.17670  0.53080  0.43050  Biso   1.000  H
  H90      1.0000 0.16870  0.47410  0.38970  Biso   1.000  H
  H91      1.0000 0.01960  0.07020  0.34640  Biso   1.000  H
  H92      1.0000 0.89310  0.16250  0.34360  Biso   1.000  H
  H93      1.0000 0.93110  0.29580  0.34190  Biso   1.000  H
  H94      1.0000 0.22150  0.24340  0.34040  Biso   1.000  H
  H95      1.0000 0.87270  0.46500  0.24510  Biso   1.000  H
  H96      1.0000 0.06020  0.48990  0.18560  Biso   1.000  H
  H97      1.0000 0.19190  0.49750  0.21420  Biso   1.000  H
  H98      1.0000 0.16380  0.49450  0.25860  Biso   1.000  H
  H99      1.0000 0.51790  0.05570  0.51790  Biso   1.000  H
  H100     1.0000 0.64590  0.14570  0.51510  Biso   1.000  H
  H101     1.0000 0.61330  0.27960  0.51010  Biso   1.000  H
  H102     1.0000 0.32150  0.23280  0.51110  Biso   1.000  H
  H103     1.0000 0.58610  0.90090  0.85680  Biso   1.000  H
  H104     1.0000 0.83360  0.56440  0.86990  Biso   1.000  H
  H105     1.0000 0.62430  0.60620  0.78600  Biso   1.000  H
  H106     1.0000 0.61440  0.74080  0.77880  Biso   1.000  H
  H107     1.0000 0.59500  0.82560  0.81370  Biso   1.000  H
  H108     1.0000 0.59070  0.02390  0.87670  Biso   1.000  H
  H109     1.0000 0.60370  0.13970  0.90120  Biso   1.000  H
  H110     1.0000 0.60970  0.13140  0.94560  Biso   1.000  H
  H111     1.0000 0.58130  0.90190  0.94330  Biso   1.000  H
  H112     1.0000 0.57430  0.65990  0.93170  Biso   1.000  H
  H113     1.0000 0.57730  0.52290  0.93360  Biso   1.000  H
  H114     1.0000 0.58460  0.45080  0.89530  Biso   1.000  H
  H115     1.0000 0.85810  0.83250  0.78750  Biso   1.000  H
  H116     1.0000 0.86150  0.69550  0.78610  Biso   1.000  H
  H117     1.0000 0.84420  0.62380  0.82400  Biso   1.000  H
  H118     1.0000 0.83520  0.44970  0.89390  Biso   1.000  H
  H119     1.0000 0.84270  0.34260  0.92200  Biso   1.000  H
  H120     1.0000 0.84400  0.36390  0.96620  Biso   1.000  H
  H121     1.0000 0.82650  0.59260  0.95600  Biso   1.000  H
  H122     1.0000 0.81500  0.83290  0.93420  Biso   1.000  H
  H123     1.0000 0.82330  0.96920  0.93050  Biso   1.000  H
  H124     1.0000 0.83130  0.02590  0.88970  Biso   1.000  H
  H125     1.0000 0.98040  0.42980  0.84640  Biso   1.000  H
  H126     1.0000 0.10690  0.33750  0.84360  Biso   1.000  H
  H127     1.0000 0.06890  0.20420  0.84190  Biso   1.000  H
  H128     1.0000 0.77850  0.25660  0.84040  Biso   1.000  H
  H129     1.0000 0.12730  0.03500  0.74510  Biso   1.000  H
  H130     1.0000 0.93980  0.01010  0.68560  Biso   1.000  H
  H131     1.0000 0.80810  0.00250  0.71420  Biso   1.000  H
  H132     1.0000 0.83620  0.00550  0.75860  Biso   1.000  H
  H133     1.0000 0.48210  0.44430  0.01790  Biso   1.000  H
  H134     1.0000 0.35410  0.35430  0.01510  Biso   1.000  H
  H135     1.0000 0.38670  0.22040  0.01010  Biso   1.000  H
  H136     1.0000 0.67850  0.26720  0.01110  Biso   1.000  H
  H137     1.0000 0.08610  0.59910  0.85680  Biso   1.000  H
  H138     1.0000 0.33360  0.93560  0.86990  Biso   1.000  H
  H139     1.0000 0.12430  0.89380  0.78600  Biso   1.000  H
  H140     1.0000 0.11440  0.75920  0.77880  Biso   1.000  H
  H141     1.0000 0.09500  0.67440  0.81370  Biso   1.000  H
  H142     1.0000 0.09070  0.47610  0.87670  Biso   1.000  H
  H143     1.0000 0.10370  0.36030  0.90120  Biso   1.000  H
  H144     1.0000 0.10970  0.36860  0.94560  Biso   1.000  H
  H145     1.0000 0.08130  0.59810  0.94330  Biso   1.000  H
  H146     1.0000 0.07430  0.84010  0.93170  Biso   1.000  H
  H147     1.0000 0.07730  0.97710  0.93360  Biso   1.000  H
  H148     1.0000 0.08460  0.04920  0.89530  Biso   1.000  H
  H149     1.0000 0.35810  0.66750  0.78750  Biso   1.000  H
  H150     1.0000 0.36150  0.80450  0.78610  Biso   1.000  H
  H151     1.0000 0.34420  0.87620  0.82400  Biso   1.000  H
  H152     1.0000 0.33520  0.05030  0.89390  Biso   1.000  H
  H153     1.0000 0.34270  0.15740  0.92200  Biso   1.000  H
  H154     1.0000 0.34400  0.13610  0.96620  Biso   1.000  H
  H155     1.0000 0.32650  0.90740  0.95600  Biso   1.000  H
  H156     1.0000 0.31500  0.66710  0.93420  Biso   1.000  H
  H157     1.0000 0.32330  0.53080  0.93050  Biso   1.000  H
  H158     1.0000 0.33130  0.47410  0.88970  Biso   1.000  H
  H159     1.0000 0.48040  0.07020  0.84640  Biso   1.000  H
  H160     1.0000 0.60690  0.16250  0.84360  Biso   1.000  H
  H161     1.0000 0.56890  0.29580  0.84190  Biso   1.000  H
  H162     1.0000 0.27850  0.24340  0.84040  Biso   1.000  H
  H163     1.0000 0.62730  0.46500  0.74510  Biso   1.000  H
  H164     1.0000 0.43980  0.48990  0.68560  Biso   1.000  H
  H165     1.0000 0.30810  0.49750  0.71420  Biso   1.000  H
  H166     1.0000 0.33620  0.49450  0.75860  Biso   1.000  H
  H167     1.0000 0.98210  0.05570  0.01790  Biso   1.000  H
  H168     1.0000 0.85410  0.14570  0.01510  Biso   1.000  H
  H169     1.0000 0.88670  0.27960  0.01010  Biso   1.000  H
  H170     1.0000 0.17850  0.23280  0.01110  Biso   1.000  H
  H171     1.0000 0.91390  0.90090  0.35680  Biso   1.000  H
  H172     1.0000 0.66640  0.56440  0.36990  Biso   1.000  H
  H173     1.0000 0.87570  0.60620  0.28600  Biso   1.000  H
  H174     1.0000 0.88560  0.74080  0.27880  Biso   1.000  H
  H175     1.0000 0.90500  0.82560  0.31370  Biso   1.000  H
  H176     1.0000 0.90930  0.02390  0.37670  Biso   1.000  H
  H177     1.0000 0.89630  0.13970  0.40120  Biso   1.000  H
  H178     1.0000 0.89030  0.13140  0.44560  Biso   1.000  H
  H179     1.0000 0.91870  0.90190  0.44330  Biso   1.000  H
  H180     1.0000 0.92570  0.65990  0.43170  Biso   1.000  H
  H181     1.0000 0.92270  0.52290  0.43360  Biso   1.000  H
  H182     1.0000 0.91540  0.45080  0.39530  Biso   1.000  H
  H183     1.0000 0.64190  0.83250  0.28750  Biso   1.000  H
  H184     1.0000 0.63850  0.69550  0.28610  Biso   1.000  H
  H185     1.0000 0.65580  0.62380  0.32400  Biso   1.000  H
  H186     1.0000 0.66480  0.44970  0.39390  Biso   1.000  H
  H187     1.0000 0.65730  0.34260  0.42200  Biso   1.000  H
  H188     1.0000 0.65600  0.36390  0.46620  Biso   1.000  H
  H189     1.0000 0.67350  0.59260  0.45600  Biso   1.000  H
  H190     1.0000 0.68500  0.83290  0.43420  Biso   1.000  H
  H191     1.0000 0.67670  0.96920  0.43050  Biso   1.000  H
  H192     1.0000 0.66870  0.02590  0.38970  Biso   1.000  H
  H193     1.0000 0.51960  0.42980  0.34640  Biso   1.000  H
  H194     1.0000 0.39310  0.33750  0.34360  Biso   1.000  H
  H195     1.0000 0.43110  0.20420  0.34190  Biso   1.000  H
  H196     1.0000 0.72150  0.25660  0.34040  Biso   1.000  H
  H197     1.0000 0.37270  0.03500  0.24510  Biso   1.000  H
  H198     1.0000 0.56020  0.01010  0.18560  Biso   1.000  H
  H199     1.0000 0.69190  0.00250  0.21420  Biso   1.000  H
  H200     1.0000 0.66380  0.00550  0.25860  Biso   1.000  H
  H201     1.0000 0.01790  0.44430  0.51790  Biso   1.000  H
  H202     1.0000 0.14590  0.35430  0.51510  Biso   1.000  H
  H203     1.0000 0.11330  0.22040  0.51010  Biso   1.000  H
  H204     1.0000 0.82150  0.26720  0.51110  Biso   1.000  H
  H205     1.0000 0.58610  0.40090  0.64320  Biso   1.000  H
  H206     1.0000 0.83360  0.06440  0.63010  Biso   1.000  H
  H207     1.0000 0.62430  0.10620  0.71400  Biso   1.000  H
  H208     1.0000 0.61440  0.24080  0.72120  Biso   1.000  H
  H209     1.0000 0.59500  0.32560  0.68630  Biso   1.000  H
  H210     1.0000 0.59070  0.52390  0.62330  Biso   1.000  H
  H211     1.0000 0.60370  0.63970  0.59880  Biso   1.000  H
  H212     1.0000 0.60970  0.63140  0.55440  Biso   1.000  H
  H213     1.0000 0.58130  0.40190  0.55670  Biso   1.000  H
  H214     1.0000 0.57430  0.15990  0.56830  Biso   1.000  H
  H215     1.0000 0.57730  0.02290  0.56640  Biso   1.000  H
  H216     1.0000 0.58460  0.95080  0.60470  Biso   1.000  H
  H217     1.0000 0.85810  0.33250  0.71250  Biso   1.000  H
  H218     1.0000 0.86150  0.19550  0.71390  Biso   1.000  H
  H219     1.0000 0.84420  0.12380  0.67600  Biso   1.000  H
  H220     1.0000 0.83520  0.94970  0.60610  Biso   1.000  H
  H221     1.0000 0.84270  0.84260  0.57800  Biso   1.000  H
  H222     1.0000 0.84400  0.86390  0.53380  Biso   1.000  H
  H223     1.0000 0.82650  0.09260  0.54400  Biso   1.000  H
  H224     1.0000 0.81500  0.33290  0.56580  Biso   1.000  H
  H225     1.0000 0.82330  0.46920  0.56950  Biso   1.000  H
  H226     1.0000 0.83130  0.52590  0.61030  Biso   1.000  H
  H227     1.0000 0.98040  0.92980  0.65360  Biso   1.000  H
  H228     1.0000 0.10690  0.83750  0.65640  Biso   1.000  H
  H229     1.0000 0.06890  0.70420  0.65810  Biso   1.000  H
  H230     1.0000 0.77850  0.75660  0.65960  Biso   1.000  H
  H231     1.0000 0.12730  0.53500  0.75490  Biso   1.000  H
  H232     1.0000 0.93980  0.51010  0.81440  Biso   1.000  H
  H233     1.0000 0.80810  0.50250  0.78580  Biso   1.000  H
  H234     1.0000 0.83620  0.50550  0.74140  Biso   1.000  H
  H235     1.0000 0.48210  0.94430  0.48210  Biso   1.000  H
  H236     1.0000 0.35410  0.85430  0.48490  Biso   1.000  H
  H237     1.0000 0.38670  0.72040  0.48990  Biso   1.000  H
  H238     1.0000 0.67850  0.76720  0.48890  Biso   1.000  H
  H239     1.0000 0.41390  0.09910  0.14320  Biso   1.000  H
  H240     1.0000 0.16640  0.43560  0.13010  Biso   1.000  H
  H241     1.0000 0.37570  0.39380  0.21400  Biso   1.000  H
  H242     1.0000 0.38560  0.25920  0.22120  Biso   1.000  H
  H243     1.0000 0.40500  0.17440  0.18630  Biso   1.000  H
  H244     1.0000 0.40930  0.97610  0.12330  Biso   1.000  H
  H245     1.0000 0.39630  0.86030  0.09880  Biso   1.000  H
  H246     1.0000 0.39030  0.86860  0.05440  Biso   1.000  H
  H247     1.0000 0.41870  0.09810  0.05670  Biso   1.000  H
  H248     1.0000 0.42570  0.34010  0.06830  Biso   1.000  H
  H249     1.0000 0.42270  0.47710  0.06640  Biso   1.000  H
  H250     1.0000 0.41540  0.54920  0.10470  Biso   1.000  H
  H251     1.0000 0.14190  0.16750  0.21250  Biso   1.000  H
  H252     1.0000 0.13850  0.30450  0.21390  Biso   1.000  H
  H253     1.0000 0.15580  0.37620  0.17600  Biso   1.000  H
  H254     1.0000 0.16480  0.55030  0.10610  Biso   1.000  H
  H255     1.0000 0.15730  0.65740  0.07800  Biso   1.000  H
  H256     1.0000 0.15600  0.63610  0.03380  Biso   1.000  H
  H257     1.0000 0.17350  0.40740  0.04400  Biso   1.000  H
  H258     1.0000 0.18500  0.16710  0.06580  Biso   1.000  H
  H259     1.0000 0.17670  0.03080  0.06950  Biso   1.000  H
  H260     1.0000 0.16870  0.97410  0.11030  Biso   1.000  H
  H261     1.0000 0.01960  0.57020  0.15360  Biso   1.000  H
  H262     1.0000 0.89310  0.66250  0.15640  Biso   1.000  H
  H263     1.0000 0.93110  0.79580  0.15810  Biso   1.000  H
  H264     1.0000 0.22150  0.74340  0.15960  Biso   1.000  H
  H265     1.0000 0.87270  0.96500  0.25490  Biso   1.000  H
  H266     1.0000 0.06020  0.98990  0.31440  Biso   1.000  H
  H267     1.0000 0.19190  0.99750  0.28580  Biso   1.000  H
  H268     1.0000 0.16380  0.99450  0.24140  Biso   1.000  H
  H269     1.0000 0.51790  0.55570  0.98210  Biso   1.000  H
  H270     1.0000 0.64590  0.64570  0.98490  Biso   1.000  H
  H271     1.0000 0.61330  0.77960  0.98990  Biso   1.000  H
  H272     1.0000 0.32150  0.73280  0.98890  Biso   1.000  H
  C1       1.0000 0.88470  0.14030  0.19973  Biso   1.000  C
  C2       1.0000 0.88970  0.22070  0.20418  Biso   1.000  C
  C3       1.0000 0.90070  0.27050  0.18361  Biso   1.000  C
  C4       1.0000 0.90570  0.23940  0.15853  Biso   1.000  C
  C5       1.0000 0.91440  0.28390  0.13531  Biso   1.000  C
  C6       1.0000 0.91970  0.37400  0.10515  Biso   1.000  C
  C7       1.0000 0.91570  0.45040  0.09231  Biso   1.000  C
  C8       1.0000 0.90840  0.52180  0.10503  Biso   1.000  C
  C9       1.0000 0.89990  0.58990  0.09061  Biso   1.000  C
  C10      1.0000 0.89660  0.58440  0.06416  Biso   1.000  C
  C11      1.0000 0.91270  0.45070  0.06546  Biso   1.000  C
  C12      1.0000 0.91910  0.25030  0.11122  Biso   1.000  C
  C13      1.0000 0.91700  0.16700  0.10779  Biso   1.000  C
  C14      1.0000 0.92170  0.12970  0.08368  Biso   1.000  C
  C15      1.0000 0.92030  0.04920  0.08251  Biso   1.000  C
  C16      1.0000 0.91530  0.00660  0.10546  Biso   1.000  C
  C17      1.0000 0.91030  0.12020  0.13007  Biso   1.000  C
  C18      1.0000 0.90330  0.15680  0.15570  Biso   1.000  C
  C19      1.0000 0.64750  0.30380  0.19687  Biso   1.000  C
  C20      1.0000 0.64590  0.22180  0.19785  Biso   1.000  C
  C21      1.0000 0.65500  0.17970  0.17555  Biso   1.000  C
  C22      1.0000 0.66340  0.21970  0.15198  Biso   1.000  C
  C23      1.0000 0.66960  0.18360  0.12713  Biso   1.000  C
  C24      1.0000 0.67300  0.10540  0.09350  Biso   1.000  C
  C25      1.0000 0.67000  0.03340  0.07779  Biso   1.000  C
  C26      1.0000 0.66490  0.95770  0.08802  Biso   1.000  C
  C27      1.0000 0.66000  0.89470  0.07140  Biso   1.000  C
  C28      1.0000 0.65900  0.90770  0.04515  Biso   1.000  C
  C29      1.0000 0.66900  0.04130  0.05118  Biso   1.000  C
  C30      1.0000 0.67450  0.22620  0.10438  Biso   1.000  C
  C31      1.0000 0.67510  0.31020  0.10462  Biso   1.000  C
  C32      1.0000 0.67950  0.35680  0.08227  Biso   1.000  C
  C33      1.0000 0.67590  0.43690  0.08447  Biso   1.000  C
  C34      1.0000 0.67120  0.47030  0.10894  Biso   1.000  C
  C35      1.0000 0.67010  0.34860  0.12869  Biso   1.000  C
  C36      1.0000 0.66350  0.30270  0.15241  Biso   1.000  C
  C37      1.0000 0.63230  0.85180  0.15632  Biso   1.000  C
  C38      1.0000 0.53490  0.87550  0.15524  Biso   1.000  C
  C39      1.0000 0.45980  0.82090  0.15649  Biso   1.000  C
  C40      1.0000 0.48260  0.74200  0.15788  Biso   1.000  C
  C41      1.0000 0.58020  0.71690  0.15889  Biso   1.000  C
  C42      1.0000 0.65480  0.77280  0.15844  Biso   1.000  C
  C43      1.0000 0.71430  0.91030  0.15588  Biso   1.000  C
  C44      1.0000 0.60660  0.63190  0.15977  Biso   1.000  C
  C45      1.0000 0.51550  0.52190  0.24411  Biso   1.000  C
  C46      1.0000 0.43760  0.52730  0.26122  Biso   1.000  C
  C47      1.0000 0.45370  0.52150  0.28744  Biso   1.000  C
  C48      1.0000 0.54840  0.51280  0.29638  Biso   1.000  C
  C49      1.0000 0.62680  0.50790  0.27942  Biso   1.000  C
  C50      1.0000 0.61050  0.51090  0.25315  Biso   1.000  C
  C51      1.0000 0.49500  0.52420  0.21575  Biso   1.000  C
  C52      1.0000 0.36640  0.52300  0.30560  Biso   1.000  C
  C53      1.0000 0.90650  0.86490  0.98507  Biso   1.000  C
  C54      1.0000 0.00370  0.89000  0.98402  Biso   1.000  C
  C55      1.0000 0.07970  0.83650  0.98580  Biso   1.000  C
  C56      1.0000 0.06050  0.75690  0.98892  Biso   1.000  C
  C57      1.0000 0.96410  0.73060  0.99063  Biso   1.000  C
  C58      1.0000 0.88770  0.78500  0.98831  Biso   1.000  C
  C59      1.0000 0.82080  0.92160  0.98363  Biso   1.000  C
  C60      1.0000 0.94030  0.64660  0.99607  Biso   1.000  C
  C61      1.0000 0.11530  0.35970  0.69973  Biso   1.000  C
  C62      1.0000 0.11030  0.27930  0.70418  Biso   1.000  C
  C63      1.0000 0.09930  0.22950  0.68361  Biso   1.000  C
  C64      1.0000 0.09430  0.26060  0.65853  Biso   1.000  C
  C65      1.0000 0.08560  0.21610  0.63531  Biso   1.000  C
  C66      1.0000 0.08030  0.12600  0.60515  Biso   1.000  C
  C67      1.0000 0.08430  0.04960  0.59231  Biso   1.000  C
  C68      1.0000 0.09160  0.97820  0.60503  Biso   1.000  C
  C69      1.0000 0.10010  0.91010  0.59061  Biso   1.000  C
  C70      1.0000 0.10340  0.91560  0.56416  Biso   1.000  C
  C71      1.0000 0.08730  0.04930  0.56546  Biso   1.000  C
  C72      1.0000 0.08090  0.24970  0.61122  Biso   1.000  C
  C73      1.0000 0.08300  0.33300  0.60779  Biso   1.000  C
  C74      1.0000 0.07830  0.37030  0.58368  Biso   1.000  C
  C75      1.0000 0.07970  0.45080  0.58251  Biso   1.000  C
  C76      1.0000 0.08470  0.49340  0.60546  Biso   1.000  C
  C77      1.0000 0.08970  0.37980  0.63007  Biso   1.000  C
  C78      1.0000 0.09670  0.34320  0.65570  Biso   1.000  C
  C79      1.0000 0.35250  0.19620  0.69687  Biso   1.000  C
  C80      1.0000 0.35410  0.27820  0.69785  Biso   1.000  C
  C81      1.0000 0.34500  0.32030  0.67555  Biso   1.000  C
  C82      1.0000 0.33660  0.28030  0.65198  Biso   1.000  C
  C83      1.0000 0.33040  0.31640  0.62713  Biso   1.000  C
  C84      1.0000 0.32700  0.39460  0.59350  Biso   1.000  C
  C85      1.0000 0.33000  0.46660  0.57779  Biso   1.000  C
  C86      1.0000 0.33510  0.54230  0.58802  Biso   1.000  C
  C87      1.0000 0.34000  0.60530  0.57140  Biso   1.000  C
  C88      1.0000 0.34100  0.59230  0.54515  Biso   1.000  C
  C89      1.0000 0.33100  0.45870  0.55118  Biso   1.000  C
  C90      1.0000 0.32550  0.27380  0.60438  Biso   1.000  C
  C91      1.0000 0.32490  0.18980  0.60462  Biso   1.000  C
  C92      1.0000 0.32050  0.14320  0.58227  Biso   1.000  C
  C93      1.0000 0.32410  0.06310  0.58447  Biso   1.000  C
  C94      1.0000 0.32880  0.02970  0.60894  Biso   1.000  C
  C95      1.0000 0.32990  0.15140  0.62869  Biso   1.000  C
  C96      1.0000 0.33650  0.19730  0.65241  Biso   1.000  C
  C97      1.0000 0.36770  0.64820  0.65632  Biso   1.000  C
  C98      1.0000 0.46510  0.62450  0.65524  Biso   1.000  C
  C99      1.0000 0.54020  0.67910  0.65649  Biso   1.000  C
  C100     1.0000 0.51740  0.75800  0.65788  Biso   1.000  C
  C101     1.0000 0.41980  0.78310  0.65889  Biso   1.000  C
  C102     1.0000 0.34520  0.72720  0.65844  Biso   1.000  C
  C103     1.0000 0.28570  0.58970  0.65588  Biso   1.000  C
  C104     1.0000 0.39340  0.86810  0.65977  Biso   1.000  C
  C105     1.0000 0.48450  0.97810  0.74411  Biso   1.000  C
  C106     1.0000 0.56240  0.97270  0.76122  Biso   1.000  C
  C107     1.0000 0.54630  0.97850  0.78744  Biso   1.000  C
  C108     1.0000 0.45160  0.98720  0.79638  Biso   1.000  C
  C109     1.0000 0.37320  0.99210  0.77942  Biso   1.000  C
  C110     1.0000 0.38950  0.98910  0.75315  Biso   1.000  C
  C111     1.0000 0.50500  0.97580  0.71575  Biso   1.000  C
  C112     1.0000 0.63360  0.97700  0.80560  Biso   1.000  C
  C113     1.0000 0.09350  0.63510  0.48507  Biso   1.000  C
  C114     1.0000 0.99630  0.61000  0.48402  Biso   1.000  C
  C115     1.0000 0.92030  0.66350  0.48580  Biso   1.000  C
  C116     1.0000 0.93950  0.74310  0.48892  Biso   1.000  C
  C117     1.0000 0.03590  0.76940  0.49063  Biso   1.000  C
  C118     1.0000 0.11230  0.71500  0.48831  Biso   1.000  C
  C119     1.0000 0.17920  0.57840  0.48363  Biso   1.000  C
  C120     1.0000 0.05970  0.85340  0.49607  Biso   1.000  C
  C121     1.0000 0.38470  0.85970  0.30027  Biso   1.000  C
  C122     1.0000 0.38970  0.77930  0.29582  Biso   1.000  C
  C123     1.0000 0.40070  0.72950  0.31639  Biso   1.000  C
  C124     1.0000 0.40570  0.76060  0.34147  Biso   1.000  C
  C125     1.0000 0.41440  0.71610  0.36469  Biso   1.000  C
  C126     1.0000 0.41970  0.62600  0.39485  Biso   1.000  C
  C127     1.0000 0.41570  0.54960  0.40769  Biso   1.000  C
  C128     1.0000 0.40840  0.47820  0.39497  Biso   1.000  C
  C129     1.0000 0.39990  0.41010  0.40939  Biso   1.000  C
  C130     1.0000 0.39660  0.41560  0.43584  Biso   1.000  C
  C131     1.0000 0.41270  0.54930  0.43454  Biso   1.000  C
  C132     1.0000 0.41910  0.74970  0.38878  Biso   1.000  C
  C133     1.0000 0.41700  0.83300  0.39221  Biso   1.000  C
  C134     1.0000 0.42170  0.87030  0.41632  Biso   1.000  C
  C135     1.0000 0.42030  0.95080  0.41749  Biso   1.000  C
  C136     1.0000 0.41530  0.99340  0.39454  Biso   1.000  C
  C137     1.0000 0.41030  0.87980  0.36993  Biso   1.000  C
  C138     1.0000 0.40330  0.84320  0.34430  Biso   1.000  C
  C139     1.0000 0.14750  0.69620  0.30313  Biso   1.000  C
  C140     1.0000 0.14590  0.77820  0.30215  Biso   1.000  C
  C141     1.0000 0.15500  0.82030  0.32445  Biso   1.000  C
  C142     1.0000 0.16340  0.78030  0.34802  Biso   1.000  C
  C143     1.0000 0.16960  0.81640  0.37287  Biso   1.000  C
  C144     1.0000 0.17300  0.89460  0.40650  Biso   1.000  C
  C145     1.0000 0.17000  0.96660  0.42221  Biso   1.000  C
  C146     1.0000 0.16490  0.04230  0.41198  Biso   1.000  C
  C147     1.0000 0.16000  0.10530  0.42860  Biso   1.000  C
  C148     1.0000 0.15900  0.09230  0.45485  Biso   1.000  C
  C149     1.0000 0.16900  0.95870  0.44882  Biso   1.000  C
  C150     1.0000 0.17450  0.77380  0.39562  Biso   1.000  C
  C151     1.0000 0.17510  0.68980  0.39538  Biso   1.000  C
  C152     1.0000 0.17950  0.64320  0.41773  Biso   1.000  C
  C153     1.0000 0.17590  0.56310  0.41553  Biso   1.000  C
  C154     1.0000 0.17120  0.52970  0.39106  Biso   1.000  C
  C155     1.0000 0.17010  0.65140  0.37131  Biso   1.000  C
  C156     1.0000 0.16350  0.69730  0.34759  Biso   1.000  C
  C157     1.0000 0.13230  0.14820  0.34368  Biso   1.000  C
  C158     1.0000 0.03490  0.12450  0.34476  Biso   1.000  C
  C159     1.0000 0.95980  0.17910  0.34351  Biso   1.000  C
  C160     1.0000 0.98260  0.25800  0.34212  Biso   1.000  C
  C161     1.0000 0.08020  0.28310  0.34111  Biso   1.000  C
  C162     1.0000 0.15480  0.22720  0.34156  Biso   1.000  C
  C163     1.0000 0.21430  0.08970  0.34412  Biso   1.000  C
  C164     1.0000 0.10660  0.36810  0.34023  Biso   1.000  C
  C165     1.0000 0.01550  0.47810  0.25589  Biso   1.000  C
  C166     1.0000 0.93760  0.47270  0.23878  Biso   1.000  C
  C167     1.0000 0.95370  0.47850  0.21256  Biso   1.000  C
  C168     1.0000 0.04840  0.48720  0.20362  Biso   1.000  C
  C169     1.0000 0.12680  0.49210  0.22058  Biso   1.000  C
  C170     1.0000 0.11050  0.48910  0.24685  Biso   1.000  C
  C171     1.0000 0.99500  0.47580  0.28425  Biso   1.000  C
  C172     1.0000 0.86640  0.47700  0.19440  Biso   1.000  C
  C173     1.0000 0.40650  0.13510  0.51493  Biso   1.000  C
  C174     1.0000 0.50370  0.11000  0.51598  Biso   1.000  C
  C175     1.0000 0.57970  0.16350  0.51420  Biso   1.000  C
  C176     1.0000 0.56050  0.24310  0.51108  Biso   1.000  C
  C177     1.0000 0.46410  0.26940  0.50937  Biso   1.000  C
  C178     1.0000 0.38770  0.21500  0.51169  Biso   1.000  C
  C179     1.0000 0.32080  0.07840  0.51637  Biso   1.000  C
  C180     1.0000 0.44030  0.35340  0.50393  Biso   1.000  C
  C181     1.0000 0.61530  0.64030  0.80027  Biso   1.000  C
  C182     1.0000 0.61030  0.72070  0.79582  Biso   1.000  C
  C183     1.0000 0.59930  0.77050  0.81639  Biso   1.000  C
  C184     1.0000 0.59430  0.73940  0.84147  Biso   1.000  C
  C185     1.0000 0.58560  0.78390  0.86469  Biso   1.000  C
  C186     1.0000 0.58030  0.87400  0.89485  Biso   1.000  C
  C187     1.0000 0.58430  0.95040  0.90769  Biso   1.000  C
  C188     1.0000 0.59160  0.02180  0.89497  Biso   1.000  C
  C189     1.0000 0.60010  0.08990  0.90939  Biso   1.000  C
  C190     1.0000 0.60340  0.08440  0.93584  Biso   1.000  C
  C191     1.0000 0.58730  0.95070  0.93454  Biso   1.000  C
  C192     1.0000 0.58090  0.75030  0.88878  Biso   1.000  C
  C193     1.0000 0.58300  0.66700  0.89221  Biso   1.000  C
  C194     1.0000 0.57830  0.62970  0.91632  Biso   1.000  C
  C195     1.0000 0.57970  0.54920  0.91749  Biso   1.000  C
  C196     1.0000 0.58470  0.50660  0.89454  Biso   1.000  C
  C197     1.0000 0.58970  0.62020  0.86993  Biso   1.000  C
  C198     1.0000 0.59670  0.65680  0.84430  Biso   1.000  C
  C199     1.0000 0.85250  0.80380  0.80313  Biso   1.000  C
  C200     1.0000 0.85410  0.72180  0.80215  Biso   1.000  C
  C201     1.0000 0.84500  0.67970  0.82445  Biso   1.000  C
  C202     1.0000 0.83660  0.71970  0.84802  Biso   1.000  C
  C203     1.0000 0.83040  0.68360  0.87287  Biso   1.000  C
  C204     1.0000 0.82700  0.60540  0.90650  Biso   1.000  C
  C205     1.0000 0.83000  0.53340  0.92221  Biso   1.000  C
  C206     1.0000 0.83510  0.45770  0.91198  Biso   1.000  C
  C207     1.0000 0.84000  0.39470  0.92860  Biso   1.000  C
  C208     1.0000 0.84100  0.40770  0.95485  Biso   1.000  C
  C209     1.0000 0.83100  0.54130  0.94882  Biso   1.000  C
  C210     1.0000 0.82550  0.72620  0.89562  Biso   1.000  C
  C211     1.0000 0.82490  0.81020  0.89538  Biso   1.000  C
  C212     1.0000 0.82050  0.85680  0.91773  Biso   1.000  C
  C213     1.0000 0.82410  0.93690  0.91553  Biso   1.000  C
  C214     1.0000 0.82880  0.97030  0.89106  Biso   1.000  C
  C215     1.0000 0.82990  0.84860  0.87131  Biso   1.000  C
  C216     1.0000 0.83650  0.80270  0.84759  Biso   1.000  C
  C217     1.0000 0.86770  0.35180  0.84368  Biso   1.000  C
  C218     1.0000 0.96510  0.37550  0.84476  Biso   1.000  C
  C219     1.0000 0.04020  0.32090  0.84351  Biso   1.000  C
  C220     1.0000 0.01740  0.24200  0.84212  Biso   1.000  C
  C221     1.0000 0.91980  0.21690  0.84111  Biso   1.000  C
  C222     1.0000 0.84520  0.27280  0.84156  Biso   1.000  C
  C223     1.0000 0.78570  0.41030  0.84412  Biso   1.000  C
  C224     1.0000 0.89340  0.13190  0.84023  Biso   1.000  C
  C225     1.0000 0.98450  0.02190  0.75589  Biso   1.000  C
  C226     1.0000 0.06240  0.02730  0.73878  Biso   1.000  C
  C227     1.0000 0.04630  0.02150  0.71256  Biso   1.000  C
  C228     1.0000 0.95160  0.01280  0.70362  Biso   1.000  C
  C229     1.0000 0.87320  0.00790  0.72058  Biso   1.000  C
  C230     1.0000 0.88950  0.01090  0.74685  Biso   1.000  C
  C231     1.0000 0.00500  0.02420  0.78425  Biso   1.000  C
  C232     1.0000 0.13360  0.02300  0.69440  Biso   1.000  C
  C233     1.0000 0.59350  0.36490  0.01493  Biso   1.000  C
  C234     1.0000 0.49630  0.39000  0.01598  Biso   1.000  C
  C235     1.0000 0.42030  0.33650  0.01420  Biso   1.000  C
  C236     1.0000 0.43950  0.25690  0.01108  Biso   1.000  C
  C237     1.0000 0.53590  0.23060  0.00937  Biso   1.000  C
  C238     1.0000 0.61230  0.28500  0.01169  Biso   1.000  C
  C239     1.0000 0.67920  0.42160  0.01637  Biso   1.000  C
  C240     1.0000 0.55970  0.14660  0.00393  Biso   1.000  C
  C241     1.0000 0.11530  0.85970  0.80027  Biso   1.000  C
  C242     1.0000 0.11030  0.77930  0.79582  Biso   1.000  C
  C243     1.0000 0.09930  0.72950  0.81639  Biso   1.000  C
  C244     1.0000 0.09430  0.76060  0.84147  Biso   1.000  C
  C245     1.0000 0.08560  0.71610  0.86469  Biso   1.000  C
  C246     1.0000 0.08030  0.62600  0.89485  Biso   1.000  C
  C247     1.0000 0.08430  0.54960  0.90769  Biso   1.000  C
  C248     1.0000 0.09160  0.47820  0.89497  Biso   1.000  C
  C249     1.0000 0.10010  0.41010  0.90939  Biso   1.000  C
  C250     1.0000 0.10340  0.41560  0.93584  Biso   1.000  C
  C251     1.0000 0.08730  0.54930  0.93454  Biso   1.000  C
  C252     1.0000 0.08090  0.74970  0.88878  Biso   1.000  C
  C253     1.0000 0.08300  0.83300  0.89221  Biso   1.000  C
  C254     1.0000 0.07830  0.87030  0.91632  Biso   1.000  C
  C255     1.0000 0.07970  0.95080  0.91749  Biso   1.000  C
  C256     1.0000 0.08470  0.99340  0.89454  Biso   1.000  C
  C257     1.0000 0.08970  0.87980  0.86993  Biso   1.000  C
  C258     1.0000 0.09670  0.84320  0.84430  Biso   1.000  C
  C259     1.0000 0.35250  0.69620  0.80313  Biso   1.000  C
  C260     1.0000 0.35410  0.77820  0.80215  Biso   1.000  C
  C261     1.0000 0.34500  0.82030  0.82445  Biso   1.000  C
  C262     1.0000 0.33660  0.78030  0.84802  Biso   1.000  C
  C263     1.0000 0.33040  0.81640  0.87287  Biso   1.000  C
  C264     1.0000 0.32700  0.89460  0.90650  Biso   1.000  C
  C265     1.0000 0.33000  0.96660  0.92221  Biso   1.000  C
  C266     1.0000 0.33510  0.04230  0.91198  Biso   1.000  C
  C267     1.0000 0.34000  0.10530  0.92860  Biso   1.000  C
  C268     1.0000 0.34100  0.09230  0.95485  Biso   1.000  C
  C269     1.0000 0.33100  0.95870  0.94882  Biso   1.000  C
  C270     1.0000 0.32550  0.77380  0.89562  Biso   1.000  C
  C271     1.0000 0.32490  0.68980  0.89538  Biso   1.000  C
  C272     1.0000 0.32050  0.64320  0.91773  Biso   1.000  C
  C273     1.0000 0.32410  0.56310  0.91553  Biso   1.000  C
  C274     1.0000 0.32880  0.52970  0.89106  Biso   1.000  C
  C275     1.0000 0.32990  0.65140  0.87131  Biso   1.000  C
  C276     1.0000 0.33650  0.69730  0.84759  Biso   1.000  C
  C277     1.0000 0.36770  0.14820  0.84368  Biso   1.000  C
  C278     1.0000 0.46510  0.12450  0.84476  Biso   1.000  C
  C279     1.0000 0.54020  0.17910  0.84351  Biso   1.000  C
  C280     1.0000 0.51740  0.25800  0.84212  Biso   1.000  C
  C281     1.0000 0.41980  0.28310  0.84111  Biso   1.000  C
  C282     1.0000 0.34520  0.22720  0.84156  Biso   1.000  C
  C283     1.0000 0.28570  0.08970  0.84412  Biso   1.000  C
  C284     1.0000 0.39340  0.36810  0.84023  Biso   1.000  C
  C285     1.0000 0.48450  0.47810  0.75589  Biso   1.000  C
  C286     1.0000 0.56240  0.47270  0.73878  Biso   1.000  C
  C287     1.0000 0.54630  0.47850  0.71256  Biso   1.000  C
  C288     1.0000 0.45160  0.48720  0.70362  Biso   1.000  C
  C289     1.0000 0.37320  0.49210  0.72058  Biso   1.000  C
  C290     1.0000 0.38950  0.48910  0.74685  Biso   1.000  C
  C291     1.0000 0.50500  0.47580  0.78425  Biso   1.000  C
  C292     1.0000 0.63360  0.47700  0.69440  Biso   1.000  C
  C293     1.0000 0.09350  0.13510  0.01493  Biso   1.000  C
  C294     1.0000 0.99630  0.11000  0.01598  Biso   1.000  C
  C295     1.0000 0.92030  0.16350  0.01420  Biso   1.000  C
  C296     1.0000 0.93950  0.24310  0.01108  Biso   1.000  C
  C297     1.0000 0.03590  0.26940  0.00937  Biso   1.000  C
  C298     1.0000 0.11230  0.21500  0.01169  Biso   1.000  C
  C299     1.0000 0.17920  0.07840  0.01637  Biso   1.000  C
  C300     1.0000 0.05970  0.35340  0.00393  Biso   1.000  C
  C301     1.0000 0.88470  0.64030  0.30027  Biso   1.000  C
  C302     1.0000 0.88970  0.72070  0.29582  Biso   1.000  C
  C303     1.0000 0.90070  0.77050  0.31639  Biso   1.000  C
  C304     1.0000 0.90570  0.73940  0.34147  Biso   1.000  C
  C305     1.0000 0.91440  0.78390  0.36469  Biso   1.000  C
  C306     1.0000 0.91970  0.87400  0.39485  Biso   1.000  C
  C307     1.0000 0.91570  0.95040  0.40769  Biso   1.000  C
  C308     1.0000 0.90840  0.02180  0.39497  Biso   1.000  C
  C309     1.0000 0.89990  0.08990  0.40939  Biso   1.000  C
  C310     1.0000 0.89660  0.08440  0.43584  Biso   1.000  C
  C311     1.0000 0.91270  0.95070  0.43454  Biso   1.000  C
  C312     1.0000 0.91910  0.75030  0.38878  Biso   1.000  C
  C313     1.0000 0.91700  0.66700  0.39221  Biso   1.000  C
  C314     1.0000 0.92170  0.62970  0.41632  Biso   1.000  C
  C315     1.0000 0.92030  0.54920  0.41749  Biso   1.000  C
  C316     1.0000 0.91530  0.50660  0.39454  Biso   1.000  C
  C317     1.0000 0.91030  0.62020  0.36993  Biso   1.000  C
  C318     1.0000 0.90330  0.65680  0.34430  Biso   1.000  C
  C319     1.0000 0.64750  0.80380  0.30313  Biso   1.000  C
  C320     1.0000 0.64590  0.72180  0.30215  Biso   1.000  C
  C321     1.0000 0.65500  0.67970  0.32445  Biso   1.000  C
  C322     1.0000 0.66340  0.71970  0.34802  Biso   1.000  C
  C323     1.0000 0.66960  0.68360  0.37287  Biso   1.000  C
  C324     1.0000 0.67300  0.60540  0.40650  Biso   1.000  C
  C325     1.0000 0.67000  0.53340  0.42221  Biso   1.000  C
  C326     1.0000 0.66490  0.45770  0.41198  Biso   1.000  C
  C327     1.0000 0.66000  0.39470  0.42860  Biso   1.000  C
  C328     1.0000 0.65900  0.40770  0.45485  Biso   1.000  C
  C329     1.0000 0.66900  0.54130  0.44882  Biso   1.000  C
  C330     1.0000 0.67450  0.72620  0.39562  Biso   1.000  C
  C331     1.0000 0.67510  0.81020  0.39538  Biso   1.000  C
  C332     1.0000 0.67950  0.85680  0.41773  Biso   1.000  C
  C333     1.0000 0.67590  0.93690  0.41553  Biso   1.000  C
  C334     1.0000 0.67120  0.97030  0.39106  Biso   1.000  C
  C335     1.0000 0.67010  0.84860  0.37131  Biso   1.000  C
  C336     1.0000 0.66350  0.80270  0.34759  Biso   1.000  C
  C337     1.0000 0.63230  0.35180  0.34368  Biso   1.000  C
  C338     1.0000 0.53490  0.37550  0.34476  Biso   1.000  C
  C339     1.0000 0.45980  0.32090  0.34351  Biso   1.000  C
  C340     1.0000 0.48260  0.24200  0.34212  Biso   1.000  C
  C341     1.0000 0.58020  0.21690  0.34111  Biso   1.000  C
  C342     1.0000 0.65480  0.27280  0.34156  Biso   1.000  C
  C343     1.0000 0.71430  0.41030  0.34412  Biso   1.000  C
  C344     1.0000 0.60660  0.13190  0.34023  Biso   1.000  C
  C345     1.0000 0.51550  0.02190  0.25589  Biso   1.000  C
  C346     1.0000 0.43760  0.02730  0.23878  Biso   1.000  C
  C347     1.0000 0.45370  0.02150  0.21256  Biso   1.000  C
  C348     1.0000 0.54840  0.01280  0.20362  Biso   1.000  C
  C349     1.0000 0.62680  0.00790  0.22058  Biso   1.000  C
  C350     1.0000 0.61050  0.01090  0.24685  Biso   1.000  C
  C351     1.0000 0.49500  0.02420  0.28425  Biso   1.000  C
  C352     1.0000 0.36640  0.02300  0.19440  Biso   1.000  C
  C353     1.0000 0.90650  0.36490  0.51493  Biso   1.000  C
  C354     1.0000 0.00370  0.39000  0.51598  Biso   1.000  C
  C355     1.0000 0.07970  0.33650  0.51420  Biso   1.000  C
  C356     1.0000 0.06050  0.25690  0.51108  Biso   1.000  C
  C357     1.0000 0.96410  0.23060  0.50937  Biso   1.000  C
  C358     1.0000 0.88770  0.28500  0.51169  Biso   1.000  C
  C359     1.0000 0.82080  0.42160  0.51637  Biso   1.000  C
  C360     1.0000 0.94030  0.14660  0.50393  Biso   1.000  C
  C361     1.0000 0.61530  0.14030  0.69973  Biso   1.000  C
  C362     1.0000 0.61030  0.22070  0.70418  Biso   1.000  C
  C363     1.0000 0.59930  0.27050  0.68361  Biso   1.000  C
  C364     1.0000 0.59430  0.23940  0.65853  Biso   1.000  C
  C365     1.0000 0.58560  0.28390  0.63531  Biso   1.000  C
  C366     1.0000 0.58030  0.37400  0.60515  Biso   1.000  C
  C367     1.0000 0.58430  0.45040  0.59231  Biso   1.000  C
  C368     1.0000 0.59160  0.52180  0.60503  Biso   1.000  C
  C369     1.0000 0.60010  0.58990  0.59061  Biso   1.000  C
  C370     1.0000 0.60340  0.58440  0.56416  Biso   1.000  C
  C371     1.0000 0.58730  0.45070  0.56546  Biso   1.000  C
  C372     1.0000 0.58090  0.25030  0.61122  Biso   1.000  C
  C373     1.0000 0.58300  0.16700  0.60779  Biso   1.000  C
  C374     1.0000 0.57830  0.12970  0.58368  Biso   1.000  C
  C375     1.0000 0.57970  0.04920  0.58251  Biso   1.000  C
  C376     1.0000 0.58470  0.00660  0.60546  Biso   1.000  C
  C377     1.0000 0.58970  0.12020  0.63007  Biso   1.000  C
  C378     1.0000 0.59670  0.15680  0.65570  Biso   1.000  C
  C379     1.0000 0.85250  0.30380  0.69687  Biso   1.000  C
  C380     1.0000 0.85410  0.22180  0.69785  Biso   1.000  C
  C381     1.0000 0.84500  0.17970  0.67555  Biso   1.000  C
  C382     1.0000 0.83660  0.21970  0.65198  Biso   1.000  C
  C383     1.0000 0.83040  0.18360  0.62713  Biso   1.000  C
  C384     1.0000 0.82700  0.10540  0.59350  Biso   1.000  C
  C385     1.0000 0.83000  0.03340  0.57779  Biso   1.000  C
  C386     1.0000 0.83510  0.95770  0.58802  Biso   1.000  C
  C387     1.0000 0.84000  0.89470  0.57140  Biso   1.000  C
  C388     1.0000 0.84100  0.90770  0.54515  Biso   1.000  C
  C389     1.0000 0.83100  0.04130  0.55118  Biso   1.000  C
  C390     1.0000 0.82550  0.22620  0.60438  Biso   1.000  C
  C391     1.0000 0.82490  0.31020  0.60462  Biso   1.000  C
  C392     1.0000 0.82050  0.35680  0.58227  Biso   1.000  C
  C393     1.0000 0.82410  0.43690  0.58447  Biso   1.000  C
  C394     1.0000 0.82880  0.47030  0.60894  Biso   1.000  C
  C395     1.0000 0.82990  0.34860  0.62869  Biso   1.000  C
  C396     1.0000 0.83650  0.30270  0.65241  Biso   1.000  C
  C397     1.0000 0.86770  0.85180  0.65632  Biso   1.000  C
  C398     1.0000 0.96510  0.87550  0.65524  Biso   1.000  C
  C399     1.0000 0.04020  0.82090  0.65649  Biso   1.000  C
  C400     1.0000 0.01740  0.74200  0.65788  Biso   1.000  C
  C401     1.0000 0.91980  0.71690  0.65889  Biso   1.000  C
  C402     1.0000 0.84520  0.77280  0.65844  Biso   1.000  C
  C403     1.0000 0.78570  0.91030  0.65588  Biso   1.000  C
  C404     1.0000 0.89340  0.63190  0.65977  Biso   1.000  C
  C405     1.0000 0.98450  0.52190  0.74411  Biso   1.000  C
  C406     1.0000 0.06240  0.52730  0.76122  Biso   1.000  C
  C407     1.0000 0.04630  0.52150  0.78744  Biso   1.000  C
  C408     1.0000 0.95160  0.51280  0.79638  Biso   1.000  C
  C409     1.0000 0.87320  0.50790  0.77942  Biso   1.000  C
  C410     1.0000 0.88950  0.51090  0.75315  Biso   1.000  C
  C411     1.0000 0.00500  0.52420  0.71575  Biso   1.000  C
  C412     1.0000 0.13360  0.52300  0.80560  Biso   1.000  C
  C413     1.0000 0.59350  0.86490  0.48507  Biso   1.000  C
  C414     1.0000 0.49630  0.89000  0.48402  Biso   1.000  C
  C415     1.0000 0.42030  0.83650  0.48580  Biso   1.000  C
  C416     1.0000 0.43950  0.75690  0.48892  Biso   1.000  C
  C417     1.0000 0.53590  0.73060  0.49063  Biso   1.000  C
  C418     1.0000 0.61230  0.78500  0.48831  Biso   1.000  C
  C419     1.0000 0.67920  0.92160  0.48363  Biso   1.000  C
  C420     1.0000 0.55970  0.64660  0.49607  Biso   1.000  C
  C421     1.0000 0.38470  0.35970  0.19973  Biso   1.000  C
  C422     1.0000 0.38970  0.27930  0.20418  Biso   1.000  C
  C423     1.0000 0.40070  0.22950  0.18361  Biso   1.000  C
  C424     1.0000 0.40570  0.26060  0.15853  Biso   1.000  C
  C425     1.0000 0.41440  0.21610  0.13531  Biso   1.000  C
  C426     1.0000 0.41970  0.12600  0.10515  Biso   1.000  C
  C427     1.0000 0.41570  0.04960  0.09231  Biso   1.000  C
  C428     1.0000 0.40840  0.97820  0.10503  Biso   1.000  C
  C429     1.0000 0.39990  0.91010  0.09061  Biso   1.000  C
  C430     1.0000 0.39660  0.91560  0.06416  Biso   1.000  C
  C431     1.0000 0.41270  0.04930  0.06546  Biso   1.000  C
  C432     1.0000 0.41910  0.24970  0.11122  Biso   1.000  C
  C433     1.0000 0.41700  0.33300  0.10779  Biso   1.000  C
  C434     1.0000 0.42170  0.37030  0.08368  Biso   1.000  C
  C435     1.0000 0.42030  0.45080  0.08251  Biso   1.000  C
  C436     1.0000 0.41530  0.49340  0.10546  Biso   1.000  C
  C437     1.0000 0.41030  0.37980  0.13007  Biso   1.000  C
  C438     1.0000 0.40330  0.34320  0.15570  Biso   1.000  C
  C439     1.0000 0.14750  0.19620  0.19687  Biso   1.000  C
  C440     1.0000 0.14590  0.27820  0.19785  Biso   1.000  C
  C441     1.0000 0.15500  0.32030  0.17555  Biso   1.000  C
  C442     1.0000 0.16340  0.28030  0.15198  Biso   1.000  C
  C443     1.0000 0.16960  0.31640  0.12713  Biso   1.000  C
  C444     1.0000 0.17300  0.39460  0.09350  Biso   1.000  C
  C445     1.0000 0.17000  0.46660  0.07779  Biso   1.000  C
  C446     1.0000 0.16490  0.54230  0.08802  Biso   1.000  C
  C447     1.0000 0.16000  0.60530  0.07140  Biso   1.000  C
  C448     1.0000 0.15900  0.59230  0.04515  Biso   1.000  C
  C449     1.0000 0.16900  0.45870  0.05118  Biso   1.000  C
  C450     1.0000 0.17450  0.27380  0.10438  Biso   1.000  C
  C451     1.0000 0.17510  0.18980  0.10462  Biso   1.000  C
  C452     1.0000 0.17950  0.14320  0.08227  Biso   1.000  C
  C453     1.0000 0.17590  0.06310  0.08447  Biso   1.000  C
  C454     1.0000 0.17120  0.02970  0.10894  Biso   1.000  C
  C455     1.0000 0.17010  0.15140  0.12869  Biso   1.000  C
  C456     1.0000 0.16350  0.19730  0.15241  Biso   1.000  C
  C457     1.0000 0.13230  0.64820  0.15632  Biso   1.000  C
  C458     1.0000 0.03490  0.62450  0.15524  Biso   1.000  C
  C459     1.0000 0.95980  0.67910  0.15649  Biso   1.000  C
  C460     1.0000 0.98260  0.75800  0.15788  Biso   1.000  C
  C461     1.0000 0.08020  0.78310  0.15889  Biso   1.000  C
  C462     1.0000 0.15480  0.72720  0.15844  Biso   1.000  C
  C463     1.0000 0.21430  0.58970  0.15588  Biso   1.000  C
  C464     1.0000 0.10660  0.86810  0.15977  Biso   1.000  C
  C465     1.0000 0.01550  0.97810  0.24411  Biso   1.000  C
  C466     1.0000 0.93760  0.97270  0.26122  Biso   1.000  C
  C467     1.0000 0.95370  0.97850  0.28744  Biso   1.000  C
  C468     1.0000 0.04840  0.98720  0.29638  Biso   1.000  C
  C469     1.0000 0.12680  0.99210  0.27942  Biso   1.000  C
  C470     1.0000 0.11050  0.98910  0.25315  Biso   1.000  C
  C471     1.0000 0.99500  0.97580  0.21575  Biso   1.000  C
  C472     1.0000 0.86640  0.97700  0.30560  Biso   1.000  C
  C473     1.0000 0.40650  0.63510  0.98507  Biso   1.000  C
  C474     1.0000 0.50370  0.61000  0.98402  Biso   1.000  C
  C475     1.0000 0.57970  0.66350  0.98580  Biso   1.000  C
  C476     1.0000 0.56050  0.74310  0.98892  Biso   1.000  C
  C477     1.0000 0.46410  0.76940  0.99063  Biso   1.000  C
  C478     1.0000 0.38770  0.71500  0.98831  Biso   1.000  C
  C479     1.0000 0.32080  0.57840  0.98363  Biso   1.000  C
  C480     1.0000 0.44030  0.85340  0.99607  Biso   1.000  C
  N1       1.0000 0.89190  0.10890  0.17627  Biso   1.000  N
  N2       1.0000 0.91030  0.04122  0.12846  Biso   1.000  N
  N3       1.0000 0.65640  0.34320  0.17485  Biso   1.000  N
  N4       1.0000 0.66990  0.42769  0.13044  Biso   1.000  N
  N5       1.0000 0.92280  0.30680  0.09241  Biso   1.000  N
  N6       1.0000 0.91550  0.36388  0.13134  Biso   1.000  N
  N7       1.0000 0.67660  0.17650  0.08344  Biso   1.000  N
  N8       1.0000 0.66900  0.10566  0.11987  Biso   1.000  N
  N9       1.0000 0.90180  0.51580  0.05144  Biso   1.000  N
  N10      1.0000 0.66200  0.97980  0.03516  Biso   1.000  N
  N11      1.0000 0.10810  0.39110  0.67627  Biso   1.000  N
  N12      1.0000 0.08970  0.45878  0.62846  Biso   1.000  N
  N13      1.0000 0.34360  0.15680  0.67485  Biso   1.000  N
  N14      1.0000 0.33010  0.07231  0.63044  Biso   1.000  N
  N15      1.0000 0.07720  0.19320  0.59241  Biso   1.000  N
  N16      1.0000 0.08450  0.13612  0.63134  Biso   1.000  N
  N17      1.0000 0.32340  0.32350  0.58344  Biso   1.000  N
  N18      1.0000 0.33100  0.39434  0.61987  Biso   1.000  N
  N19      1.0000 0.09820  0.98420  0.55144  Biso   1.000  N
  N20      1.0000 0.33800  0.52020  0.53516  Biso   1.000  N
  N21      1.0000 0.39190  0.89110  0.32373  Biso   1.000  N
  N22      1.0000 0.41030  0.95878  0.37154  Biso   1.000  N
  N23      1.0000 0.15640  0.65680  0.32515  Biso   1.000  N
  N24      1.0000 0.16990  0.57231  0.36956  Biso   1.000  N
  N25      1.0000 0.42280  0.69320  0.40759  Biso   1.000  N
  N26      1.0000 0.41550  0.63612  0.36866  Biso   1.000  N
  N27      1.0000 0.17660  0.82350  0.41656  Biso   1.000  N
  N28      1.0000 0.16900  0.89434  0.38013  Biso   1.000  N
  N29      1.0000 0.40180  0.48420  0.44856  Biso   1.000  N
  N30      1.0000 0.16200  0.02020  0.46484  Biso   1.000  N
  N31      1.0000 0.60810  0.60890  0.82373  Biso   1.000  N
  N32      1.0000 0.58970  0.54122  0.87154  Biso   1.000  N
  N33      1.0000 0.84360  0.84320  0.82515  Biso   1.000  N
  N34      1.0000 0.83010  0.92769  0.86956  Biso   1.000  N
  N35      1.0000 0.57720  0.80680  0.90759  Biso   1.000  N
  N36      1.0000 0.58450  0.86388  0.86866  Biso   1.000  N
  N37      1.0000 0.82340  0.67650  0.91656  Biso   1.000  N
  N38      1.0000 0.83100  0.60566  0.88013  Biso   1.000  N
  N39      1.0000 0.59820  0.01580  0.94856  Biso   1.000  N
  N40      1.0000 0.83800  0.47980  0.96484  Biso   1.000  N
  N41      1.0000 0.10810  0.89110  0.82373  Biso   1.000  N
  N42      1.0000 0.08970  0.95878  0.87154  Biso   1.000  N
  N43      1.0000 0.34360  0.65680  0.82515  Biso   1.000  N
  N44      1.0000 0.33010  0.57231  0.86956  Biso   1.000  N
  N45      1.0000 0.07720  0.69320  0.90759  Biso   1.000  N
  N46      1.0000 0.08450  0.63612  0.86866  Biso   1.000  N
  N47      1.0000 0.32340  0.82350  0.91656  Biso   1.000  N
  N48      1.0000 0.33100  0.89434  0.88013  Biso   1.000  N
  N49      1.0000 0.09820  0.48420  0.94856  Biso   1.000  N
  N50      1.0000 0.33800  0.02020  0.96484  Biso   1.000  N
  N51      1.0000 0.89190  0.60890  0.32373  Biso   1.000  N
  N52      1.0000 0.91030  0.54122  0.37154  Biso   1.000  N
  N53      1.0000 0.65640  0.84320  0.32515  Biso   1.000  N
  N54      1.0000 0.66990  0.92769  0.36956  Biso   1.000  N
  N55      1.0000 0.92280  0.80680  0.40759  Biso   1.000  N
  N56      1.0000 0.91550  0.86388  0.36866  Biso   1.000  N
  N57      1.0000 0.67660  0.67650  0.41656  Biso   1.000  N
  N58      1.0000 0.66900  0.60566  0.38013  Biso   1.000  N
  N59      1.0000 0.90180  0.01580  0.44856  Biso   1.000  N
  N60      1.0000 0.66200  0.47980  0.46484  Biso   1.000  N
  N61      1.0000 0.60810  0.10890  0.67627  Biso   1.000  N
  N62      1.0000 0.58970  0.04122  0.62846  Biso   1.000  N
  N63      1.0000 0.84360  0.34320  0.67485  Biso   1.000  N
  N64      1.0000 0.83010  0.42769  0.63044  Biso   1.000  N
  N65      1.0000 0.57720  0.30680  0.59241  Biso   1.000  N
  N66      1.0000 0.58450  0.36388  0.63134  Biso   1.000  N
  N67      1.0000 0.82340  0.17650  0.58344  Biso   1.000  N
  N68      1.0000 0.83100  0.10566  0.61987  Biso   1.000  N
  N69      1.0000 0.59820  0.51580  0.55144  Biso   1.000  N
  N70      1.0000 0.83800  0.97980  0.53516  Biso   1.000  N
  N71      1.0000 0.39190  0.39110  0.17627  Biso   1.000  N
  N72      1.0000 0.41030  0.45878  0.12846  Biso   1.000  N
  N73      1.0000 0.15640  0.15680  0.17485  Biso   1.000  N
  N74      1.0000 0.16990  0.07231  0.13044  Biso   1.000  N
  N75      1.0000 0.42280  0.19320  0.09241  Biso   1.000  N
  N76      1.0000 0.41550  0.13612  0.13134  Biso   1.000  N
  N77      1.0000 0.17660  0.32350  0.08344  Biso   1.000  N
  N78      1.0000 0.16900  0.39434  0.11987  Biso   1.000  N
  N79      1.0000 0.40180  0.98420  0.05144  Biso   1.000  N
  N80      1.0000 0.16200  0.52020  0.03516  Biso   1.000  N
  O1       1.0000 0.69660  0.98256  0.15610  Biso   1.000  O
  O2       1.0000 0.80120  0.88257  0.15521  Biso   1.000  O
  O3       1.0000 0.54540  0.58187  0.15181  Biso   1.000  O
  O4       1.0000 0.68990  0.61222  0.16805  Biso   1.000  O
  O5       1.0000 0.41640  0.55703  0.20825  Biso   1.000  O
  O6       1.0000 0.55350  0.49064  0.20068  Biso   1.000  O
  O7       1.0000 0.28270  0.52050  0.29546  Biso   1.000  O
  O8       1.0000 0.37950  0.52724  0.32951  Biso   1.000  O
  O9       1.0000 0.73600  0.89216  0.98419  Biso   1.000  O
  O10      1.0000 0.83570  0.99406  0.98244  Biso   1.000  O
  O11      1.0000 0.85320  0.62987  0.00287  Biso   1.000  O
  O12      1.0000 0.00490  0.59381  0.99417  Biso   1.000  O
  O13      1.0000 0.30340  0.51744  0.65610  Biso   1.000  O
  O14      1.0000 0.19880  0.61743  0.65521  Biso   1.000  O
  O15      1.0000 0.45460  0.91813  0.65181  Biso   1.000  O
  O16      1.0000 0.31010  0.88778  0.66805  Biso   1.000  O
  O17      1.0000 0.58360  0.94297  0.70825  Biso   1.000  O
  O18      1.0000 0.44650  0.00936  0.70068  Biso   1.000  O
  O19      1.0000 0.71730  0.97950  0.79546  Biso   1.000  O
  O20      1.0000 0.62050  0.97276  0.82951  Biso   1.000  O
  O21      1.0000 0.26400  0.60784  0.48419  Biso   1.000  O
  O22      1.0000 0.16430  0.50594  0.48244  Biso   1.000  O
  O23      1.0000 0.14680  0.87013  0.50287  Biso   1.000  O
  O24      1.0000 0.99510  0.90619  0.49417  Biso   1.000  O
  O25      1.0000 0.19660  0.01744  0.34390  Biso   1.000  O
  O26      1.0000 0.30120  0.11743  0.34479  Biso   1.000  O
  O27      1.0000 0.04540  0.41813  0.34819  Biso   1.000  O
  O28      1.0000 0.18990  0.38778  0.33195  Biso   1.000  O
  O29      1.0000 0.91640  0.44297  0.29175  Biso   1.000  O
  O30      1.0000 0.05350  0.50936  0.29932  Biso   1.000  O
  O31      1.0000 0.78270  0.47950  0.20454  Biso   1.000  O
  O32      1.0000 0.87950  0.47276  0.17049  Biso   1.000  O
  O33      1.0000 0.23600  0.10784  0.51581  Biso   1.000  O
  O34      1.0000 0.33570  0.00594  0.51756  Biso   1.000  O
  O35      1.0000 0.35320  0.37013  0.49713  Biso   1.000  O
  O36      1.0000 0.50490  0.40619  0.50583  Biso   1.000  O
  O37      1.0000 0.80340  0.48256  0.84390  Biso   1.000  O
  O38      1.0000 0.69880  0.38257  0.84479  Biso   1.000  O
  O39      1.0000 0.95460  0.08187  0.84819  Biso   1.000  O
  O40      1.0000 0.81010  0.11222  0.83195  Biso   1.000  O
  O41      1.0000 0.08360  0.05703  0.79175  Biso   1.000  O
  O42      1.0000 0.94650  0.99064  0.79932  Biso   1.000  O
  O43      1.0000 0.21730  0.02050  0.70454  Biso   1.000  O
  O44      1.0000 0.12050  0.02724  0.67049  Biso   1.000  O
  O45      1.0000 0.76400  0.39216  0.01581  Biso   1.000  O
  O46      1.0000 0.66430  0.49406  0.01756  Biso   1.000  O
  O47      1.0000 0.64680  0.12987  0.99713  Biso   1.000  O
  O48      1.0000 0.49510  0.09381  0.00583  Biso   1.000  O
  O49      1.0000 0.30340  0.01744  0.84390  Biso   1.000  O
  O50      1.0000 0.19880  0.11743  0.84479  Biso   1.000  O
  O51      1.0000 0.45460  0.41813  0.84819  Biso   1.000  O
  O52      1.0000 0.31010  0.38778  0.83195  Biso   1.000  O
  O53      1.0000 0.58360  0.44297  0.79175  Biso   1.000  O
  O54      1.0000 0.44650  0.50936  0.79932  Biso   1.000  O
  O55      1.0000 0.71730  0.47950  0.70454  Biso   1.000  O
  O56      1.0000 0.62050  0.47276  0.67049  Biso   1.000  O
  O57      1.0000 0.26400  0.10784  0.01581  Biso   1.000  O
  O58      1.0000 0.16430  0.00594  0.01756  Biso   1.000  O
  O59      1.0000 0.14680  0.37013  0.99713  Biso   1.000  O
  O60      1.0000 0.99510  0.40619  0.00583  Biso   1.000  O
  O61      1.0000 0.69660  0.48256  0.34390  Biso   1.000  O
  O62      1.0000 0.80120  0.38257  0.34479  Biso   1.000  O
  O63      1.0000 0.54540  0.08187  0.34819  Biso   1.000  O
  O64      1.0000 0.68990  0.11222  0.33195  Biso   1.000  O
  O65      1.0000 0.41640  0.05703  0.29175  Biso   1.000  O
  O66      1.0000 0.55350  0.99064  0.29932  Biso   1.000  O
  O67      1.0000 0.28270  0.02050  0.20454  Biso   1.000  O
  O68      1.0000 0.37950  0.02724  0.17049  Biso   1.000  O
  O69      1.0000 0.73600  0.39216  0.51581  Biso   1.000  O
  O70      1.0000 0.83570  0.49406  0.51756  Biso   1.000  O
  O71      1.0000 0.85320  0.12987  0.49713  Biso   1.000  O
  O72      1.0000 0.00490  0.09381  0.50583  Biso   1.000  O
  O73      1.0000 0.80340  0.98256  0.65610  Biso   1.000  O
  O74      1.0000 0.69880  0.88257  0.65521  Biso   1.000  O
  O75      1.0000 0.95460  0.58187  0.65181  Biso   1.000  O
  O76      1.0000 0.81010  0.61222  0.66805  Biso   1.000  O
  O77      1.0000 0.08360  0.55703  0.70825  Biso   1.000  O
  O78      1.0000 0.94650  0.49064  0.70068  Biso   1.000  O
  O79      1.0000 0.21730  0.52050  0.79546  Biso   1.000  O
  O80      1.0000 0.12050  0.52724  0.82951  Biso   1.000  O
  O81      1.0000 0.76400  0.89216  0.48419  Biso   1.000  O
  O82      1.0000 0.66430  0.99406  0.48244  Biso   1.000  O
  O83      1.0000 0.64680  0.62987  0.50287  Biso   1.000  O
  O84      1.0000 0.49510  0.59381  0.49417  Biso   1.000  O
  O85      1.0000 0.19660  0.51744  0.15610  Biso   1.000  O
  O86      1.0000 0.30120  0.61743  0.15521  Biso   1.000  O
  O87      1.0000 0.04540  0.91813  0.15181  Biso   1.000  O
  O88      1.0000 0.18990  0.88778  0.16805  Biso   1.000  O
  O89      1.0000 0.91640  0.94297  0.20825  Biso   1.000  O
  O90      1.0000 0.05350  0.00936  0.20068  Biso   1.000  O
  O91      1.0000 0.78270  0.97950  0.29546  Biso   1.000  O
  O92      1.0000 0.87950  0.97276  0.32951  Biso   1.000  O
  O93      1.0000 0.23600  0.60784  0.98419  Biso   1.000  O
  O94      1.0000 0.33570  0.50594  0.98244  Biso   1.000  O
  O95      1.0000 0.35320  0.87013  0.00287  Biso   1.000  O
  O96      1.0000 0.50490  0.90619  0.99417  Biso   1.000  O
