data_image0
_cell_length_a       13.8942
_cell_length_b       27.574
_cell_length_c       44.874
_cell_angle_alpha    90
_cell_angle_beta     90
_cell_angle_gamma    90

_symmetry_space_group_name_H-M    P 1
_symmetry_int_tables_number       1

loop_
  _symmetry_equiv_pos_as_xyz
  'x, y, z'

loop_
  _atom_site_label
  _atom_site_occupancy
  _atom_site_fract_x
  _atom_site_fract_y
  _atom_site_fract_z
  _atom_site_thermal_displace_type
  _atom_site_B_iso_or_equiv
  _atom_site_type_symbol
  Zn1      1.0000 0.15183  0.45413  0.08412  Biso   1.000  Zn
  Zn2      1.0000 0.38298  0.47755  0.91404  Biso   1.000  Zn
  Zn3      1.0000 0.17576  0.25854  0.81999  Biso   1.000  Zn
  Zn4      1.0000 0.84817  0.04587  0.58412  Biso   1.000  Zn
  Zn5      1.0000 0.61702  0.02245  0.41404  Biso   1.000  Zn
  Zn6      1.0000 0.82424  0.24146  0.31999  Biso   1.000  Zn
  Zn7      1.0000 0.65183  0.54587  0.41588  Biso   1.000  Zn
  Zn8      1.0000 0.88298  0.52245  0.58596  Biso   1.000  Zn
  Zn9      1.0000 0.67576  0.74146  0.68001  Biso   1.000  Zn
  Zn10     1.0000 0.34817  0.95413  0.91588  Biso   1.000  Zn
  Zn11     1.0000 0.11702  0.97755  0.08596  Biso   1.000  Zn
  Zn12     1.0000 0.32424  0.75854  0.18001  Biso   1.000  Zn
  H1       1.0000 0.03840  0.08670  0.17260  Biso   1.000  H
  H2       1.0000 0.06130  0.01490  0.14700  Biso   1.000  H
  H3       1.0000 0.09740  0.08270  0.07150  Biso   1.000  H
  H4       1.0000 0.07410  0.15670  0.09430  Biso   1.000  H
  H5       1.0000 0.01950  0.35130  0.16610  Biso   1.000  H
  H6       1.0000 0.05580  0.42190  0.13990  Biso   1.000  H
  H7       1.0000 0.13280  0.34770  0.06960  Biso   1.000  H
  H8       1.0000 0.10070  0.27390  0.09300  Biso   1.000  H
  H9       1.0000 0.94830  0.15420  0.23090  Biso   1.000  H
  H10      1.0000 0.88980  0.16170  0.27820  Biso   1.000  H
  H11      1.0000 0.93530  0.30230  0.27720  Biso   1.000  H
  H12      1.0000 0.98760  0.29890  0.22810  Biso   1.000  H
  H13      1.0000 0.69090  0.39550  0.88960  Biso   1.000  H
  H14      1.0000 0.53530  0.41970  0.88310  Biso   1.000  H
  H15      1.0000 0.52360  0.46800  0.96460  Biso   1.000  H
  H16      1.0000 0.67520  0.44090  0.97390  Biso   1.000  H
  H17      1.0000 0.87520  0.44880  0.01330  Biso   1.000  H
  H18      1.0000 0.95780  0.46860  0.05690  Biso   1.000  H
  H19      1.0000 0.20350  0.42810  0.02020  Biso   1.000  H
  H20      1.0000 0.12540  0.40320  0.97690  Biso   1.000  H
  H21      1.0000 0.12640  0.35690  0.91150  Biso   1.000  H
  H22      1.0000 0.20880  0.31880  0.87350  Biso   1.000  H
  H23      1.0000 0.96880  0.28110  0.83460  Biso   1.000  H
  H24      1.0000 0.87590  0.31320  0.87370  Biso   1.000  H
  H25      1.0000 0.96160  0.41330  0.67260  Biso   1.000  H
  H26      1.0000 0.93870  0.48510  0.64700  Biso   1.000  H
  H27      1.0000 0.90260  0.41730  0.57150  Biso   1.000  H
  H28      1.0000 0.92590  0.34330  0.59430  Biso   1.000  H
  H29      1.0000 0.98050  0.14870  0.66610  Biso   1.000  H
  H30      1.0000 0.94420  0.07810  0.63990  Biso   1.000  H
  H31      1.0000 0.86720  0.15230  0.56960  Biso   1.000  H
  H32      1.0000 0.89930  0.22610  0.59300  Biso   1.000  H
  H33      1.0000 0.05170  0.34580  0.73090  Biso   1.000  H
  H34      1.0000 0.11020  0.33830  0.77820  Biso   1.000  H
  H35      1.0000 0.06470  0.19770  0.77720  Biso   1.000  H
  H36      1.0000 0.01240  0.20110  0.72810  Biso   1.000  H
  H37      1.0000 0.30910  0.10450  0.38960  Biso   1.000  H
  H38      1.0000 0.46470  0.08030  0.38310  Biso   1.000  H
  H39      1.0000 0.47640  0.03200  0.46460  Biso   1.000  H
  H40      1.0000 0.32480  0.05910  0.47390  Biso   1.000  H
  H41      1.0000 0.12480  0.05120  0.51330  Biso   1.000  H
  H42      1.0000 0.04220  0.03140  0.55690  Biso   1.000  H
  H43      1.0000 0.79650  0.07190  0.52020  Biso   1.000  H
  H44      1.0000 0.87460  0.09680  0.47690  Biso   1.000  H
  H45      1.0000 0.87360  0.14310  0.41150  Biso   1.000  H
  H46      1.0000 0.79120  0.18120  0.37350  Biso   1.000  H
  H47      1.0000 0.03120  0.21890  0.33460  Biso   1.000  H
  H48      1.0000 0.12410  0.18680  0.37370  Biso   1.000  H
  H49      1.0000 0.53840  0.91330  0.32740  Biso   1.000  H
  H50      1.0000 0.56130  0.98510  0.35300  Biso   1.000  H
  H51      1.0000 0.59740  0.91730  0.42850  Biso   1.000  H
  H52      1.0000 0.57410  0.84330  0.40570  Biso   1.000  H
  H53      1.0000 0.51950  0.64870  0.33390  Biso   1.000  H
  H54      1.0000 0.55580  0.57810  0.36010  Biso   1.000  H
  H55      1.0000 0.63280  0.65230  0.43040  Biso   1.000  H
  H56      1.0000 0.60070  0.72610  0.40700  Biso   1.000  H
  H57      1.0000 0.44830  0.84580  0.26910  Biso   1.000  H
  H58      1.0000 0.38980  0.83830  0.22180  Biso   1.000  H
  H59      1.0000 0.43530  0.69770  0.22280  Biso   1.000  H
  H60      1.0000 0.48760  0.70110  0.27190  Biso   1.000  H
  H61      1.0000 0.19090  0.60450  0.61040  Biso   1.000  H
  H62      1.0000 0.03530  0.58030  0.61690  Biso   1.000  H
  H63      1.0000 0.02360  0.53200  0.53540  Biso   1.000  H
  H64      1.0000 0.17520  0.55910  0.52610  Biso   1.000  H
  H65      1.0000 0.37520  0.55120  0.48670  Biso   1.000  H
  H66      1.0000 0.45780  0.53140  0.44310  Biso   1.000  H
  H67      1.0000 0.70350  0.57190  0.47980  Biso   1.000  H
  H68      1.0000 0.62540  0.59680  0.52310  Biso   1.000  H
  H69      1.0000 0.62640  0.64310  0.58850  Biso   1.000  H
  H70      1.0000 0.70880  0.68120  0.62650  Biso   1.000  H
  H71      1.0000 0.46880  0.71890  0.66540  Biso   1.000  H
  H72      1.0000 0.37590  0.68680  0.62630  Biso   1.000  H
  H73      1.0000 0.46160  0.58670  0.82740  Biso   1.000  H
  H74      1.0000 0.43870  0.51490  0.85300  Biso   1.000  H
  H75      1.0000 0.40260  0.58270  0.92850  Biso   1.000  H
  H76      1.0000 0.42590  0.65670  0.90570  Biso   1.000  H
  H77      1.0000 0.48050  0.85130  0.83390  Biso   1.000  H
  H78      1.0000 0.44420  0.92190  0.86010  Biso   1.000  H
  H79      1.0000 0.36720  0.84770  0.93040  Biso   1.000  H
  H80      1.0000 0.39930  0.77390  0.90700  Biso   1.000  H
  H81      1.0000 0.55170  0.65420  0.76910  Biso   1.000  H
  H82      1.0000 0.61020  0.66170  0.72180  Biso   1.000  H
  H83      1.0000 0.56470  0.80230  0.72280  Biso   1.000  H
  H84      1.0000 0.51240  0.79890  0.77190  Biso   1.000  H
  H85      1.0000 0.80910  0.89550  0.11040  Biso   1.000  H
  H86      1.0000 0.96470  0.91970  0.11690  Biso   1.000  H
  H87      1.0000 0.97640  0.96800  0.03540  Biso   1.000  H
  H88      1.0000 0.82480  0.94090  0.02610  Biso   1.000  H
  H89      1.0000 0.62480  0.94880  0.98670  Biso   1.000  H
  H90      1.0000 0.54220  0.96860  0.94310  Biso   1.000  H
  H91      1.0000 0.29650  0.92810  0.97980  Biso   1.000  H
  H92      1.0000 0.37460  0.90320  0.02310  Biso   1.000  H
  H93      1.0000 0.37360  0.85690  0.08850  Biso   1.000  H
  H94      1.0000 0.29120  0.81880  0.12650  Biso   1.000  H
  H95      1.0000 0.53120  0.78110  0.16540  Biso   1.000  H
  H96      1.0000 0.62410  0.81320  0.12630  Biso   1.000  H
  C1       1.0000 0.03770  0.17780  0.15055  Biso   1.000  C
  C2       1.0000 0.05130  0.12980  0.13534  Biso   1.000  C
  C3       1.0000 0.04960  0.08670  0.15180  Biso   1.000  C
  C4       1.0000 0.06500  0.04460  0.13630  Biso   1.000  C
  C5       1.0000 0.08590  0.08330  0.09230  Biso   1.000  C
  C6       1.0000 0.07080  0.12770  0.10570  Biso   1.000  C
  C7       1.0000 0.03890  0.25930  0.14854  Biso   1.000  C
  C8       1.0000 0.05800  0.30520  0.13230  Biso   1.000  C
  C9       1.0000 0.04350  0.34960  0.14630  Biso   1.000  C
  C10      1.0000 0.06550  0.39150  0.13040  Biso   1.000  C
  C11      1.0000 0.11030  0.34810  0.08955  Biso   1.000  C
  C12      1.0000 0.09130  0.30380  0.10321  Biso   1.000  C
  C13      1.0000 0.00050  0.22200  0.19167  Biso   1.000  C
  C14      1.0000 0.97190  0.22470  0.22347  Biso   1.000  C
  C15      1.0000 0.94380  0.18550  0.23960  Biso   1.000  C
  C16      1.0000 0.90940  0.18990  0.26780  Biso   1.000  C
  C17      1.0000 0.93450  0.27200  0.26720  Biso   1.000  C
  C18      1.0000 0.96790  0.27020  0.23803  Biso   1.000  C
  C19      1.0000 0.80160  0.39860  0.93810  Biso   1.000  C
  C20      1.0000 0.69980  0.41230  0.93235  Biso   1.000  C
  C21      1.0000 0.65680  0.40900  0.90600  Biso   1.000  C
  C22      1.0000 0.56480  0.42480  0.90200  Biso   1.000  C
  C23      1.0000 0.55800  0.45210  0.94916  Biso   1.000  C
  C24      1.0000 0.64740  0.43610  0.95480  Biso   1.000  C
  C25      1.0000 0.93910  0.40530  0.96420  Biso   1.000  C
  C26      1.0000 0.99110  0.42160  0.99121  Biso   1.000  C
  C27      1.0000 0.94230  0.44270  0.01470  Biso   1.000  C
  C28      1.0000 0.99210  0.45500  0.04060  Biso   1.000  C
  C29      1.0000 0.13540  0.43060  0.01910  Biso   1.000  C
  C30      1.0000 0.08970  0.41630  0.99310  Biso   1.000  C
  C31      1.0000 0.93780  0.36430  0.92030  Biso   1.000  C
  C32      1.0000 0.99230  0.33980  0.89674  Biso   1.000  C
  C33      1.0000 0.09180  0.34060  0.89620  Biso   1.000  C
  C34      1.0000 0.14050  0.31780  0.87350  Biso   1.000  C
  C35      1.0000 0.00110  0.29520  0.85120  Biso   1.000  C
  C36      1.0000 0.94410  0.31570  0.87400  Biso   1.000  C
  C37      1.0000 0.96230  0.32220  0.65055  Biso   1.000  C
  C38      1.0000 0.94870  0.37020  0.63534  Biso   1.000  C
  C39      1.0000 0.95040  0.41330  0.65180  Biso   1.000  C
  C40      1.0000 0.93500  0.45540  0.63630  Biso   1.000  C
  C41      1.0000 0.91410  0.41670  0.59230  Biso   1.000  C
  C42      1.0000 0.92920  0.37230  0.60570  Biso   1.000  C
  C43      1.0000 0.96110  0.24070  0.64854  Biso   1.000  C
  C44      1.0000 0.94200  0.19480  0.63230  Biso   1.000  C
  C45      1.0000 0.95650  0.15040  0.64630  Biso   1.000  C
  C46      1.0000 0.93450  0.10850  0.63040  Biso   1.000  C
  C47      1.0000 0.88970  0.15190  0.58955  Biso   1.000  C
  C48      1.0000 0.90870  0.19620  0.60321  Biso   1.000  C
  C49      1.0000 0.99950  0.27800  0.69167  Biso   1.000  C
  C50      1.0000 0.02810  0.27530  0.72347  Biso   1.000  C
  C51      1.0000 0.05620  0.31450  0.73960  Biso   1.000  C
  C52      1.0000 0.09060  0.31010  0.76780  Biso   1.000  C
  C53      1.0000 0.06550  0.22800  0.76720  Biso   1.000  C
  C54      1.0000 0.03210  0.22980  0.73803  Biso   1.000  C
  C55      1.0000 0.19840  0.10140  0.43810  Biso   1.000  C
  C56      1.0000 0.30020  0.08770  0.43235  Biso   1.000  C
  C57      1.0000 0.34320  0.09100  0.40600  Biso   1.000  C
  C58      1.0000 0.43520  0.07520  0.40200  Biso   1.000  C
  C59      1.0000 0.44200  0.04790  0.44916  Biso   1.000  C
  C60      1.0000 0.35260  0.06390  0.45480  Biso   1.000  C
  C61      1.0000 0.06090  0.09470  0.46420  Biso   1.000  C
  C62      1.0000 0.00890  0.07840  0.49121  Biso   1.000  C
  C63      1.0000 0.05770  0.05730  0.51470  Biso   1.000  C
  C64      1.0000 0.00790  0.04500  0.54060  Biso   1.000  C
  C65      1.0000 0.86460  0.06940  0.51910  Biso   1.000  C
  C66      1.0000 0.91030  0.08370  0.49310  Biso   1.000  C
  C67      1.0000 0.06220  0.13570  0.42030  Biso   1.000  C
  C68      1.0000 0.00770  0.16020  0.39674  Biso   1.000  C
  C69      1.0000 0.90820  0.15940  0.39620  Biso   1.000  C
  C70      1.0000 0.85950  0.18220  0.37350  Biso   1.000  C
  C71      1.0000 0.99890  0.20480  0.35120  Biso   1.000  C
  C72      1.0000 0.05590  0.18430  0.37400  Biso   1.000  C
  C73      1.0000 0.53770  0.82220  0.34945  Biso   1.000  C
  C74      1.0000 0.55130  0.87020  0.36466  Biso   1.000  C
  C75      1.0000 0.54960  0.91330  0.34820  Biso   1.000  C
  C76      1.0000 0.56500  0.95540  0.36370  Biso   1.000  C
  C77      1.0000 0.58590  0.91670  0.40770  Biso   1.000  C
  C78      1.0000 0.57080  0.87230  0.39430  Biso   1.000  C
  C79      1.0000 0.53890  0.74070  0.35146  Biso   1.000  C
  C80      1.0000 0.55800  0.69480  0.36770  Biso   1.000  C
  C81      1.0000 0.54350  0.65040  0.35370  Biso   1.000  C
  C82      1.0000 0.56550  0.60850  0.36960  Biso   1.000  C
  C83      1.0000 0.61030  0.65190  0.41045  Biso   1.000  C
  C84      1.0000 0.59130  0.69620  0.39679  Biso   1.000  C
  C85      1.0000 0.50050  0.77800  0.30833  Biso   1.000  C
  C86      1.0000 0.47190  0.77530  0.27653  Biso   1.000  C
  C87      1.0000 0.44380  0.81450  0.26040  Biso   1.000  C
  C88      1.0000 0.40940  0.81010  0.23220  Biso   1.000  C
  C89      1.0000 0.43450  0.72800  0.23280  Biso   1.000  C
  C90      1.0000 0.46790  0.72980  0.26197  Biso   1.000  C
  C91      1.0000 0.30160  0.60140  0.56190  Biso   1.000  C
  C92      1.0000 0.19980  0.58770  0.56765  Biso   1.000  C
  C93      1.0000 0.15680  0.59100  0.59400  Biso   1.000  C
  C94      1.0000 0.06480  0.57520  0.59800  Biso   1.000  C
  C95      1.0000 0.05800  0.54790  0.55084  Biso   1.000  C
  C96      1.0000 0.14740  0.56390  0.54520  Biso   1.000  C
  C97      1.0000 0.43910  0.59470  0.53580  Biso   1.000  C
  C98      1.0000 0.49110  0.57840  0.50879  Biso   1.000  C
  C99      1.0000 0.44230  0.55730  0.48530  Biso   1.000  C
  C100     1.0000 0.49210  0.54500  0.45940  Biso   1.000  C
  C101     1.0000 0.63540  0.56940  0.48090  Biso   1.000  C
  C102     1.0000 0.58970  0.58370  0.50690  Biso   1.000  C
  C103     1.0000 0.43780  0.63570  0.57970  Biso   1.000  C
  C104     1.0000 0.49230  0.66020  0.60326  Biso   1.000  C
  C105     1.0000 0.59180  0.65940  0.60380  Biso   1.000  C
  C106     1.0000 0.64050  0.68220  0.62650  Biso   1.000  C
  C107     1.0000 0.50110  0.70480  0.64880  Biso   1.000  C
  C108     1.0000 0.44410  0.68430  0.62600  Biso   1.000  C
  C109     1.0000 0.46230  0.67780  0.84945  Biso   1.000  C
  C110     1.0000 0.44870  0.62980  0.86466  Biso   1.000  C
  C111     1.0000 0.45040  0.58670  0.84820  Biso   1.000  C
  C112     1.0000 0.43500  0.54460  0.86370  Biso   1.000  C
  C113     1.0000 0.41410  0.58330  0.90770  Biso   1.000  C
  C114     1.0000 0.42920  0.62770  0.89430  Biso   1.000  C
  C115     1.0000 0.46110  0.75930  0.85146  Biso   1.000  C
  C116     1.0000 0.44200  0.80520  0.86770  Biso   1.000  C
  C117     1.0000 0.45650  0.84960  0.85370  Biso   1.000  C
  C118     1.0000 0.43450  0.89150  0.86960  Biso   1.000  C
  C119     1.0000 0.38970  0.84810  0.91045  Biso   1.000  C
  C120     1.0000 0.40870  0.80380  0.89679  Biso   1.000  C
  C121     1.0000 0.49950  0.72200  0.80833  Biso   1.000  C
  C122     1.0000 0.52810  0.72470  0.77653  Biso   1.000  C
  C123     1.0000 0.55620  0.68550  0.76040  Biso   1.000  C
  C124     1.0000 0.59060  0.68990  0.73220  Biso   1.000  C
  C125     1.0000 0.56550  0.77200  0.73280  Biso   1.000  C
  C126     1.0000 0.53210  0.77020  0.76197  Biso   1.000  C
  C127     1.0000 0.69840  0.89860  0.06190  Biso   1.000  C
  C128     1.0000 0.80020  0.91230  0.06765  Biso   1.000  C
  C129     1.0000 0.84320  0.90900  0.09400  Biso   1.000  C
  C130     1.0000 0.93520  0.92480  0.09800  Biso   1.000  C
  C131     1.0000 0.94200  0.95210  0.05084  Biso   1.000  C
  C132     1.0000 0.85260  0.93610  0.04520  Biso   1.000  C
  C133     1.0000 0.56090  0.90530  0.03580  Biso   1.000  C
  C134     1.0000 0.50890  0.92160  0.00879  Biso   1.000  C
  C135     1.0000 0.55770  0.94270  0.98530  Biso   1.000  C
  C136     1.0000 0.50790  0.95500  0.95940  Biso   1.000  C
  C137     1.0000 0.36460  0.93060  0.98090  Biso   1.000  C
  C138     1.0000 0.41030  0.91630  0.00690  Biso   1.000  C
  C139     1.0000 0.56220  0.86430  0.07970  Biso   1.000  C
  C140     1.0000 0.50770  0.83980  0.10326  Biso   1.000  C
  C141     1.0000 0.40820  0.84060  0.10380  Biso   1.000  C
  C142     1.0000 0.35950  0.81780  0.12650  Biso   1.000  C
  C143     1.0000 0.49890  0.79520  0.14880  Biso   1.000  C
  C144     1.0000 0.55590  0.81570  0.12600  Biso   1.000  C
  I1       1.0000 0.33002  0.43813  0.07709  Biso   1.000  I
  I2       1.0000 0.07865  0.52177  0.11487  Biso   1.000  I
  I3       1.0000 0.30059  0.42485  0.87601  Biso   1.000  I
  I4       1.0000 0.30629  0.49583  0.96478  Biso   1.000  I
  I5       1.0000 0.33247  0.30588  0.81222  Biso   1.000  I
  I6       1.0000 0.18598  0.16896  0.83332  Biso   1.000  I
  I7       1.0000 0.66998  0.06187  0.57709  Biso   1.000  I
  I8       1.0000 0.92135  0.97823  0.61487  Biso   1.000  I
  I9       1.0000 0.69941  0.07515  0.37601  Biso   1.000  I
  I10      1.0000 0.69371  0.00417  0.46478  Biso   1.000  I
  I11      1.0000 0.66753  0.19412  0.31222  Biso   1.000  I
  I12      1.0000 0.81402  0.33104  0.33332  Biso   1.000  I
  I13      1.0000 0.83002  0.56187  0.42291  Biso   1.000  I
  I14      1.0000 0.57865  0.47823  0.38513  Biso   1.000  I
  I15      1.0000 0.80059  0.57515  0.62399  Biso   1.000  I
  I16      1.0000 0.80629  0.50417  0.53522  Biso   1.000  I
  I17      1.0000 0.83247  0.69412  0.68778  Biso   1.000  I
  I18      1.0000 0.68598  0.83104  0.66668  Biso   1.000  I
  I19      1.0000 0.16998  0.93813  0.92291  Biso   1.000  I
  I20      1.0000 0.42135  0.02177  0.88513  Biso   1.000  I
  I21      1.0000 0.19941  0.92485  0.12399  Biso   1.000  I
  I22      1.0000 0.19371  0.99583  0.03522  Biso   1.000  I
  I23      1.0000 0.16753  0.80588  0.18778  Biso   1.000  I
  I24      1.0000 0.31402  0.66896  0.16668  Biso   1.000  I
  N1       1.0000 0.09590  0.29420  0.85112  Biso   1.000  N
  N2       1.0000 0.08770  0.44790  0.04310  Biso   1.000  N
  N3       1.0000 0.51540  0.44660  0.92270  Biso   1.000  N
  N4       1.0000 0.98980  0.38090  0.94372  Biso   1.000  N
  N5       1.0000 0.84370  0.37020  0.91701  Biso   1.000  N
  N6       1.0000 0.84640  0.41580  0.96187  Biso   1.000  N
  N7       1.0000 0.08520  0.04240  0.10650  Biso   1.000  N
  N8       1.0000 0.09900  0.39140  0.10276  Biso   1.000  N
  N9       1.0000 0.90220  0.23430  0.28145  Biso   1.000  N
  N10      1.0000 0.05040  0.21710  0.13432  Biso   1.000  N
  N11      1.0000 0.01380  0.17750  0.18037  Biso   1.000  N
  N12      1.0000 0.01460  0.26340  0.17787  Biso   1.000  N
  N13      1.0000 0.90410  0.20580  0.35112  Biso   1.000  N
  N14      1.0000 0.91230  0.05210  0.54310  Biso   1.000  N
  N15      1.0000 0.48460  0.05340  0.42270  Biso   1.000  N
  N16      1.0000 0.01020  0.11910  0.44372  Biso   1.000  N
  N17      1.0000 0.15630  0.12980  0.41701  Biso   1.000  N
  N18      1.0000 0.15360  0.08420  0.46187  Biso   1.000  N
  N19      1.0000 0.91480  0.45760  0.60650  Biso   1.000  N
  N20      1.0000 0.90100  0.10860  0.60276  Biso   1.000  N
  N21      1.0000 0.09780  0.26570  0.78145  Biso   1.000  N
  N22      1.0000 0.94960  0.28290  0.63432  Biso   1.000  N
  N23      1.0000 0.98620  0.32250  0.68037  Biso   1.000  N
  N24      1.0000 0.98540  0.23660  0.67787  Biso   1.000  N
  N25      1.0000 0.59590  0.70580  0.64888  Biso   1.000  N
  N26      1.0000 0.58770  0.55210  0.45690  Biso   1.000  N
  N27      1.0000 0.01540  0.55340  0.57730  Biso   1.000  N
  N28      1.0000 0.48980  0.61910  0.55628  Biso   1.000  N
  N29      1.0000 0.34370  0.62980  0.58299  Biso   1.000  N
  N30      1.0000 0.34640  0.58420  0.53813  Biso   1.000  N
  N31      1.0000 0.58520  0.95760  0.39350  Biso   1.000  N
  N32      1.0000 0.59900  0.60860  0.39724  Biso   1.000  N
  N33      1.0000 0.40220  0.76570  0.21855  Biso   1.000  N
  N34      1.0000 0.55040  0.78290  0.36568  Biso   1.000  N
  N35      1.0000 0.51380  0.82250  0.31963  Biso   1.000  N
  N36      1.0000 0.51460  0.73660  0.32213  Biso   1.000  N
  N37      1.0000 0.40410  0.79420  0.14888  Biso   1.000  N
  N38      1.0000 0.41230  0.94790  0.95690  Biso   1.000  N
  N39      1.0000 0.98460  0.94660  0.07730  Biso   1.000  N
  N40      1.0000 0.51020  0.88090  0.05628  Biso   1.000  N
  N41      1.0000 0.65630  0.87020  0.08299  Biso   1.000  N
  N42      1.0000 0.65360  0.91580  0.03813  Biso   1.000  N
  N43      1.0000 0.41480  0.54240  0.89350  Biso   1.000  N
  N44      1.0000 0.40100  0.89140  0.89724  Biso   1.000  N
  N45      1.0000 0.59780  0.73430  0.71855  Biso   1.000  N
  N46      1.0000 0.44960  0.71710  0.86568  Biso   1.000  N
  N47      1.0000 0.48620  0.67750  0.81963  Biso   1.000  N
  N48      1.0000 0.48540  0.76340  0.82213  Biso   1.000  N
  Zn13     1.0000 0.84817  0.54587  0.91588  Biso   1.000  Zn
  Zn14     1.0000 0.61702  0.52245  0.08596  Biso   1.000  Zn
  Zn15     1.0000 0.82424  0.74146  0.18001  Biso   1.000  Zn
  Zn16     1.0000 0.15183  0.95413  0.41588  Biso   1.000  Zn
  Zn17     1.0000 0.38298  0.97755  0.58596  Biso   1.000  Zn
  Zn18     1.0000 0.17576  0.75854  0.68001  Biso   1.000  Zn
  Zn19     1.0000 0.34817  0.45413  0.58412  Biso   1.000  Zn
  Zn20     1.0000 0.11702  0.47755  0.41404  Biso   1.000  Zn
  Zn21     1.0000 0.32424  0.25854  0.31999  Biso   1.000  Zn
  Zn22     1.0000 0.65183  0.04587  0.08412  Biso   1.000  Zn
  Zn23     1.0000 0.88298  0.02245  0.91404  Biso   1.000  Zn
  Zn24     1.0000 0.67576  0.24146  0.81999  Biso   1.000  Zn
  H97      1.0000 0.96160  0.91330  0.82740  Biso   1.000  H
  H98      1.0000 0.93870  0.98510  0.85300  Biso   1.000  H
  H99      1.0000 0.90260  0.91730  0.92850  Biso   1.000  H
  H100     1.0000 0.92590  0.84330  0.90570  Biso   1.000  H
  H101     1.0000 0.98050  0.64870  0.83390  Biso   1.000  H
  H102     1.0000 0.94420  0.57810  0.86010  Biso   1.000  H
  H103     1.0000 0.86720  0.65230  0.93040  Biso   1.000  H
  H104     1.0000 0.89930  0.72610  0.90700  Biso   1.000  H
  H105     1.0000 0.05170  0.84580  0.76910  Biso   1.000  H
  H106     1.0000 0.11020  0.83830  0.72180  Biso   1.000  H
  H107     1.0000 0.06470  0.69770  0.72280  Biso   1.000  H
  H108     1.0000 0.01240  0.70110  0.77190  Biso   1.000  H
  H109     1.0000 0.30910  0.60450  0.11040  Biso   1.000  H
  H110     1.0000 0.46470  0.58030  0.11690  Biso   1.000  H
  H111     1.0000 0.47640  0.53200  0.03540  Biso   1.000  H
  H112     1.0000 0.32480  0.55910  0.02610  Biso   1.000  H
  H113     1.0000 0.12480  0.55120  0.98670  Biso   1.000  H
  H114     1.0000 0.04220  0.53140  0.94310  Biso   1.000  H
  H115     1.0000 0.79650  0.57190  0.97980  Biso   1.000  H
  H116     1.0000 0.87460  0.59680  0.02310  Biso   1.000  H
  H117     1.0000 0.87360  0.64310  0.08850  Biso   1.000  H
  H118     1.0000 0.79120  0.68120  0.12650  Biso   1.000  H
  H119     1.0000 0.03120  0.71890  0.16540  Biso   1.000  H
  H120     1.0000 0.12410  0.68680  0.12630  Biso   1.000  H
  H121     1.0000 0.03840  0.58670  0.32740  Biso   1.000  H
  H122     1.0000 0.06130  0.51490  0.35300  Biso   1.000  H
  H123     1.0000 0.09740  0.58270  0.42850  Biso   1.000  H
  H124     1.0000 0.07410  0.65670  0.40570  Biso   1.000  H
  H125     1.0000 0.01950  0.85130  0.33390  Biso   1.000  H
  H126     1.0000 0.05580  0.92190  0.36010  Biso   1.000  H
  H127     1.0000 0.13280  0.84770  0.43040  Biso   1.000  H
  H128     1.0000 0.10070  0.77390  0.40700  Biso   1.000  H
  H129     1.0000 0.94830  0.65420  0.26910  Biso   1.000  H
  H130     1.0000 0.88980  0.66170  0.22180  Biso   1.000  H
  H131     1.0000 0.93530  0.80230  0.22280  Biso   1.000  H
  H132     1.0000 0.98760  0.79890  0.27190  Biso   1.000  H
  H133     1.0000 0.69090  0.89550  0.61040  Biso   1.000  H
  H134     1.0000 0.53530  0.91970  0.61690  Biso   1.000  H
  H135     1.0000 0.52360  0.96800  0.53540  Biso   1.000  H
  H136     1.0000 0.67520  0.94090  0.52610  Biso   1.000  H
  H137     1.0000 0.87520  0.94880  0.48670  Biso   1.000  H
  H138     1.0000 0.95780  0.96860  0.44310  Biso   1.000  H
  H139     1.0000 0.20350  0.92810  0.47980  Biso   1.000  H
  H140     1.0000 0.12540  0.90320  0.52310  Biso   1.000  H
  H141     1.0000 0.12640  0.85690  0.58850  Biso   1.000  H
  H142     1.0000 0.20880  0.81880  0.62650  Biso   1.000  H
  H143     1.0000 0.96880  0.78110  0.66540  Biso   1.000  H
  H144     1.0000 0.87590  0.81320  0.62630  Biso   1.000  H
  H145     1.0000 0.46160  0.08670  0.67260  Biso   1.000  H
  H146     1.0000 0.43870  0.01490  0.64700  Biso   1.000  H
  H147     1.0000 0.40260  0.08270  0.57150  Biso   1.000  H
  H148     1.0000 0.42590  0.15670  0.59430  Biso   1.000  H
  H149     1.0000 0.48050  0.35130  0.66610  Biso   1.000  H
  H150     1.0000 0.44420  0.42190  0.63990  Biso   1.000  H
  H151     1.0000 0.36720  0.34770  0.56960  Biso   1.000  H
  H152     1.0000 0.39930  0.27390  0.59300  Biso   1.000  H
  H153     1.0000 0.55170  0.15420  0.73090  Biso   1.000  H
  H154     1.0000 0.61020  0.16170  0.77820  Biso   1.000  H
  H155     1.0000 0.56470  0.30230  0.77720  Biso   1.000  H
  H156     1.0000 0.51240  0.29890  0.72810  Biso   1.000  H
  H157     1.0000 0.80910  0.39550  0.38960  Biso   1.000  H
  H158     1.0000 0.96470  0.41970  0.38310  Biso   1.000  H
  H159     1.0000 0.97640  0.46800  0.46460  Biso   1.000  H
  H160     1.0000 0.82480  0.44090  0.47390  Biso   1.000  H
  H161     1.0000 0.62480  0.44880  0.51330  Biso   1.000  H
  H162     1.0000 0.54220  0.46860  0.55690  Biso   1.000  H
  H163     1.0000 0.29650  0.42810  0.52020  Biso   1.000  H
  H164     1.0000 0.37460  0.40320  0.47690  Biso   1.000  H
  H165     1.0000 0.37360  0.35690  0.41150  Biso   1.000  H
  H166     1.0000 0.29120  0.31880  0.37350  Biso   1.000  H
  H167     1.0000 0.53120  0.28110  0.33460  Biso   1.000  H
  H168     1.0000 0.62410  0.31320  0.37370  Biso   1.000  H
  H169     1.0000 0.53840  0.41330  0.17260  Biso   1.000  H
  H170     1.0000 0.56130  0.48510  0.14700  Biso   1.000  H
  H171     1.0000 0.59740  0.41730  0.07150  Biso   1.000  H
  H172     1.0000 0.57410  0.34330  0.09430  Biso   1.000  H
  H173     1.0000 0.51950  0.14870  0.16610  Biso   1.000  H
  H174     1.0000 0.55580  0.07810  0.13990  Biso   1.000  H
  H175     1.0000 0.63280  0.15230  0.06960  Biso   1.000  H
  H176     1.0000 0.60070  0.22610  0.09300  Biso   1.000  H
  H177     1.0000 0.44830  0.34580  0.23090  Biso   1.000  H
  H178     1.0000 0.38980  0.33830  0.27820  Biso   1.000  H
  H179     1.0000 0.43530  0.19770  0.27720  Biso   1.000  H
  H180     1.0000 0.48760  0.20110  0.22810  Biso   1.000  H
  H181     1.0000 0.19090  0.10450  0.88960  Biso   1.000  H
  H182     1.0000 0.03530  0.08030  0.88310  Biso   1.000  H
  H183     1.0000 0.02360  0.03200  0.96460  Biso   1.000  H
  H184     1.0000 0.17520  0.05910  0.97390  Biso   1.000  H
  H185     1.0000 0.37520  0.05120  0.01330  Biso   1.000  H
  H186     1.0000 0.45780  0.03140  0.05690  Biso   1.000  H
  H187     1.0000 0.70350  0.07190  0.02020  Biso   1.000  H
  H188     1.0000 0.62540  0.09680  0.97690  Biso   1.000  H
  H189     1.0000 0.62640  0.14310  0.91150  Biso   1.000  H
  H190     1.0000 0.70880  0.18120  0.87350  Biso   1.000  H
  H191     1.0000 0.46880  0.21890  0.83460  Biso   1.000  H
  H192     1.0000 0.37590  0.18680  0.87370  Biso   1.000  H
  C145     1.0000 0.96230  0.82220  0.84945  Biso   1.000  C
  C146     1.0000 0.94870  0.87020  0.86466  Biso   1.000  C
  C147     1.0000 0.95040  0.91330  0.84820  Biso   1.000  C
  C148     1.0000 0.93500  0.95540  0.86370  Biso   1.000  C
  C149     1.0000 0.91410  0.91670  0.90770  Biso   1.000  C
  C150     1.0000 0.92920  0.87230  0.89430  Biso   1.000  C
  C151     1.0000 0.96110  0.74070  0.85146  Biso   1.000  C
  C152     1.0000 0.94200  0.69480  0.86770  Biso   1.000  C
  C153     1.0000 0.95650  0.65040  0.85370  Biso   1.000  C
  C154     1.0000 0.93450  0.60850  0.86960  Biso   1.000  C
  C155     1.0000 0.88970  0.65190  0.91045  Biso   1.000  C
  C156     1.0000 0.90870  0.69620  0.89679  Biso   1.000  C
  C157     1.0000 0.99950  0.77800  0.80833  Biso   1.000  C
  C158     1.0000 0.02810  0.77530  0.77653  Biso   1.000  C
  C159     1.0000 0.05620  0.81450  0.76040  Biso   1.000  C
  C160     1.0000 0.09060  0.81010  0.73220  Biso   1.000  C
  C161     1.0000 0.06550  0.72800  0.73280  Biso   1.000  C
  C162     1.0000 0.03210  0.72980  0.76197  Biso   1.000  C
  C163     1.0000 0.19840  0.60140  0.06190  Biso   1.000  C
  C164     1.0000 0.30020  0.58770  0.06765  Biso   1.000  C
  C165     1.0000 0.34320  0.59100  0.09400  Biso   1.000  C
  C166     1.0000 0.43520  0.57520  0.09800  Biso   1.000  C
  C167     1.0000 0.44200  0.54790  0.05084  Biso   1.000  C
  C168     1.0000 0.35260  0.56390  0.04520  Biso   1.000  C
  C169     1.0000 0.06090  0.59470  0.03580  Biso   1.000  C
  C170     1.0000 0.00890  0.57840  0.00879  Biso   1.000  C
  C171     1.0000 0.05770  0.55730  0.98530  Biso   1.000  C
  C172     1.0000 0.00790  0.54500  0.95940  Biso   1.000  C
  C173     1.0000 0.86460  0.56940  0.98090  Biso   1.000  C
  C174     1.0000 0.91030  0.58370  0.00690  Biso   1.000  C
  C175     1.0000 0.06220  0.63570  0.07970  Biso   1.000  C
  C176     1.0000 0.00770  0.66020  0.10326  Biso   1.000  C
  C177     1.0000 0.90820  0.65940  0.10380  Biso   1.000  C
  C178     1.0000 0.85950  0.68220  0.12650  Biso   1.000  C
  C179     1.0000 0.99890  0.70480  0.14880  Biso   1.000  C
  C180     1.0000 0.05590  0.68430  0.12600  Biso   1.000  C
  C181     1.0000 0.03770  0.67780  0.34945  Biso   1.000  C
  C182     1.0000 0.05130  0.62980  0.36466  Biso   1.000  C
  C183     1.0000 0.04960  0.58670  0.34820  Biso   1.000  C
  C184     1.0000 0.06500  0.54460  0.36370  Biso   1.000  C
  C185     1.0000 0.08590  0.58330  0.40770  Biso   1.000  C
  C186     1.0000 0.07080  0.62770  0.39430  Biso   1.000  C
  C187     1.0000 0.03890  0.75930  0.35146  Biso   1.000  C
  C188     1.0000 0.05800  0.80520  0.36770  Biso   1.000  C
  C189     1.0000 0.04350  0.84960  0.35370  Biso   1.000  C
  C190     1.0000 0.06550  0.89150  0.36960  Biso   1.000  C
  C191     1.0000 0.11030  0.84810  0.41045  Biso   1.000  C
  C192     1.0000 0.09130  0.80380  0.39679  Biso   1.000  C
  C193     1.0000 0.00050  0.72200  0.30833  Biso   1.000  C
  C194     1.0000 0.97190  0.72470  0.27653  Biso   1.000  C
  C195     1.0000 0.94380  0.68550  0.26040  Biso   1.000  C
  C196     1.0000 0.90940  0.68990  0.23220  Biso   1.000  C
  C197     1.0000 0.93450  0.77200  0.23280  Biso   1.000  C
  C198     1.0000 0.96790  0.77020  0.26197  Biso   1.000  C
  C199     1.0000 0.80160  0.89860  0.56190  Biso   1.000  C
  C200     1.0000 0.69980  0.91230  0.56765  Biso   1.000  C
  C201     1.0000 0.65680  0.90900  0.59400  Biso   1.000  C
  C202     1.0000 0.56480  0.92480  0.59800  Biso   1.000  C
  C203     1.0000 0.55800  0.95210  0.55084  Biso   1.000  C
  C204     1.0000 0.64740  0.93610  0.54520  Biso   1.000  C
  C205     1.0000 0.93910  0.90530  0.53580  Biso   1.000  C
  C206     1.0000 0.99110  0.92160  0.50879  Biso   1.000  C
  C207     1.0000 0.94230  0.94270  0.48530  Biso   1.000  C
  C208     1.0000 0.99210  0.95500  0.45940  Biso   1.000  C
  C209     1.0000 0.13540  0.93060  0.48090  Biso   1.000  C
  C210     1.0000 0.08970  0.91630  0.50690  Biso   1.000  C
  C211     1.0000 0.93780  0.86430  0.57970  Biso   1.000  C
  C212     1.0000 0.99230  0.83980  0.60326  Biso   1.000  C
  C213     1.0000 0.09180  0.84060  0.60380  Biso   1.000  C
  C214     1.0000 0.14050  0.81780  0.62650  Biso   1.000  C
  C215     1.0000 0.00110  0.79520  0.64880  Biso   1.000  C
  C216     1.0000 0.94410  0.81570  0.62600  Biso   1.000  C
  C217     1.0000 0.46230  0.17780  0.65055  Biso   1.000  C
  C218     1.0000 0.44870  0.12980  0.63534  Biso   1.000  C
  C219     1.0000 0.45040  0.08670  0.65180  Biso   1.000  C
  C220     1.0000 0.43500  0.04460  0.63630  Biso   1.000  C
  C221     1.0000 0.41410  0.08330  0.59230  Biso   1.000  C
  C222     1.0000 0.42920  0.12770  0.60570  Biso   1.000  C
  C223     1.0000 0.46110  0.25930  0.64854  Biso   1.000  C
  C224     1.0000 0.44200  0.30520  0.63230  Biso   1.000  C
  C225     1.0000 0.45650  0.34960  0.64630  Biso   1.000  C
  C226     1.0000 0.43450  0.39150  0.63040  Biso   1.000  C
  C227     1.0000 0.38970  0.34810  0.58955  Biso   1.000  C
  C228     1.0000 0.40870  0.30380  0.60321  Biso   1.000  C
  C229     1.0000 0.49950  0.22200  0.69167  Biso   1.000  C
  C230     1.0000 0.52810  0.22470  0.72347  Biso   1.000  C
  C231     1.0000 0.55620  0.18550  0.73960  Biso   1.000  C
  C232     1.0000 0.59060  0.18990  0.76780  Biso   1.000  C
  C233     1.0000 0.56550  0.27200  0.76720  Biso   1.000  C
  C234     1.0000 0.53210  0.27020  0.73803  Biso   1.000  C
  C235     1.0000 0.69840  0.39860  0.43810  Biso   1.000  C
  C236     1.0000 0.80020  0.41230  0.43235  Biso   1.000  C
  C237     1.0000 0.84320  0.40900  0.40600  Biso   1.000  C
  C238     1.0000 0.93520  0.42480  0.40200  Biso   1.000  C
  C239     1.0000 0.94200  0.45210  0.44916  Biso   1.000  C
  C240     1.0000 0.85260  0.43610  0.45480  Biso   1.000  C
  C241     1.0000 0.56090  0.40530  0.46420  Biso   1.000  C
  C242     1.0000 0.50890  0.42160  0.49121  Biso   1.000  C
  C243     1.0000 0.55770  0.44270  0.51470  Biso   1.000  C
  C244     1.0000 0.50790  0.45500  0.54060  Biso   1.000  C
  C245     1.0000 0.36460  0.43060  0.51910  Biso   1.000  C
  C246     1.0000 0.41030  0.41630  0.49310  Biso   1.000  C
  C247     1.0000 0.56220  0.36430  0.42030  Biso   1.000  C
  C248     1.0000 0.50770  0.33980  0.39674  Biso   1.000  C
  C249     1.0000 0.40820  0.34060  0.39620  Biso   1.000  C
  C250     1.0000 0.35950  0.31780  0.37350  Biso   1.000  C
  C251     1.0000 0.49890  0.29520  0.35120  Biso   1.000  C
  C252     1.0000 0.55590  0.31570  0.37400  Biso   1.000  C
  C253     1.0000 0.53770  0.32220  0.15055  Biso   1.000  C
  C254     1.0000 0.55130  0.37020  0.13534  Biso   1.000  C
  C255     1.0000 0.54960  0.41330  0.15180  Biso   1.000  C
  C256     1.0000 0.56500  0.45540  0.13630  Biso   1.000  C
  C257     1.0000 0.58590  0.41670  0.09230  Biso   1.000  C
  C258     1.0000 0.57080  0.37230  0.10570  Biso   1.000  C
  C259     1.0000 0.53890  0.24070  0.14854  Biso   1.000  C
  C260     1.0000 0.55800  0.19480  0.13230  Biso   1.000  C
  C261     1.0000 0.54350  0.15040  0.14630  Biso   1.000  C
  C262     1.0000 0.56550  0.10850  0.13040  Biso   1.000  C
  C263     1.0000 0.61030  0.15190  0.08955  Biso   1.000  C
  C264     1.0000 0.59130  0.19620  0.10321  Biso   1.000  C
  C265     1.0000 0.50050  0.27800  0.19167  Biso   1.000  C
  C266     1.0000 0.47190  0.27530  0.22347  Biso   1.000  C
  C267     1.0000 0.44380  0.31450  0.23960  Biso   1.000  C
  C268     1.0000 0.40940  0.31010  0.26780  Biso   1.000  C
  C269     1.0000 0.43450  0.22800  0.26720  Biso   1.000  C
  C270     1.0000 0.46790  0.22980  0.23803  Biso   1.000  C
  C271     1.0000 0.30160  0.10140  0.93810  Biso   1.000  C
  C272     1.0000 0.19980  0.08770  0.93235  Biso   1.000  C
  C273     1.0000 0.15680  0.09100  0.90600  Biso   1.000  C
  C274     1.0000 0.06480  0.07520  0.90200  Biso   1.000  C
  C275     1.0000 0.05800  0.04790  0.94916  Biso   1.000  C
  C276     1.0000 0.14740  0.06390  0.95480  Biso   1.000  C
  C277     1.0000 0.43910  0.09470  0.96420  Biso   1.000  C
  C278     1.0000 0.49110  0.07840  0.99121  Biso   1.000  C
  C279     1.0000 0.44230  0.05730  0.01470  Biso   1.000  C
  C280     1.0000 0.49210  0.04500  0.04060  Biso   1.000  C
  C281     1.0000 0.63540  0.06940  0.01910  Biso   1.000  C
  C282     1.0000 0.58970  0.08370  0.99310  Biso   1.000  C
  C283     1.0000 0.43780  0.13570  0.92030  Biso   1.000  C
  C284     1.0000 0.49230  0.16020  0.89674  Biso   1.000  C
  C285     1.0000 0.59180  0.15940  0.89620  Biso   1.000  C
  C286     1.0000 0.64050  0.18220  0.87350  Biso   1.000  C
  C287     1.0000 0.50110  0.20480  0.85120  Biso   1.000  C
  C288     1.0000 0.44410  0.18430  0.87400  Biso   1.000  C
  I25      1.0000 0.66998  0.56187  0.92291  Biso   1.000  I
  I26      1.0000 0.92135  0.47823  0.88513  Biso   1.000  I
  I27      1.0000 0.69941  0.57515  0.12399  Biso   1.000  I
  I28      1.0000 0.69371  0.50417  0.03522  Biso   1.000  I
  I29      1.0000 0.66753  0.69412  0.18778  Biso   1.000  I
  I30      1.0000 0.81402  0.83104  0.16668  Biso   1.000  I
  I31      1.0000 0.33002  0.93813  0.42291  Biso   1.000  I
  I32      1.0000 0.07865  0.02177  0.38513  Biso   1.000  I
  I33      1.0000 0.30059  0.92485  0.62399  Biso   1.000  I
  I34      1.0000 0.30629  0.99583  0.53522  Biso   1.000  I
  I35      1.0000 0.33247  0.80588  0.68778  Biso   1.000  I
  I36      1.0000 0.18598  0.66896  0.66668  Biso   1.000  I
  I37      1.0000 0.16998  0.43813  0.57709  Biso   1.000  I
  I38      1.0000 0.42135  0.52177  0.61487  Biso   1.000  I
  I39      1.0000 0.19941  0.42485  0.37601  Biso   1.000  I
  I40      1.0000 0.19371  0.49583  0.46478  Biso   1.000  I
  I41      1.0000 0.16753  0.30588  0.31222  Biso   1.000  I
  I42      1.0000 0.31402  0.16896  0.33332  Biso   1.000  I
  I43      1.0000 0.83002  0.06187  0.07709  Biso   1.000  I
  I44      1.0000 0.57865  0.97823  0.11487  Biso   1.000  I
  I45      1.0000 0.80059  0.07515  0.87601  Biso   1.000  I
  I46      1.0000 0.80629  0.00417  0.96478  Biso   1.000  I
  I47      1.0000 0.83247  0.19412  0.81222  Biso   1.000  I
  I48      1.0000 0.68598  0.33104  0.83332  Biso   1.000  I
  N49      1.0000 0.90410  0.70580  0.14888  Biso   1.000  N
  N50      1.0000 0.91230  0.55210  0.95690  Biso   1.000  N
  N51      1.0000 0.48460  0.55340  0.07730  Biso   1.000  N
  N52      1.0000 0.01020  0.61910  0.05628  Biso   1.000  N
  N53      1.0000 0.15630  0.62980  0.08299  Biso   1.000  N
  N54      1.0000 0.15360  0.58420  0.03813  Biso   1.000  N
  N55      1.0000 0.91480  0.95760  0.89350  Biso   1.000  N
  N56      1.0000 0.90100  0.60860  0.89724  Biso   1.000  N
  N57      1.0000 0.09780  0.76570  0.71855  Biso   1.000  N
  N58      1.0000 0.94960  0.78290  0.86568  Biso   1.000  N
  N59      1.0000 0.98620  0.82250  0.81963  Biso   1.000  N
  N60      1.0000 0.98540  0.73660  0.82213  Biso   1.000  N
  N61      1.0000 0.09590  0.79420  0.64888  Biso   1.000  N
  N62      1.0000 0.08770  0.94790  0.45690  Biso   1.000  N
  N63      1.0000 0.51540  0.94660  0.57730  Biso   1.000  N
  N64      1.0000 0.98980  0.88090  0.55628  Biso   1.000  N
  N65      1.0000 0.84370  0.87020  0.58299  Biso   1.000  N
  N66      1.0000 0.84640  0.91580  0.53813  Biso   1.000  N
  N67      1.0000 0.08520  0.54240  0.39350  Biso   1.000  N
  N68      1.0000 0.09900  0.89140  0.39724  Biso   1.000  N
  N69      1.0000 0.90220  0.73430  0.21855  Biso   1.000  N
  N70      1.0000 0.05040  0.71710  0.36568  Biso   1.000  N
  N71      1.0000 0.01380  0.67750  0.31963  Biso   1.000  N
  N72      1.0000 0.01460  0.76340  0.32213  Biso   1.000  N
  N73      1.0000 0.40410  0.29420  0.35112  Biso   1.000  N
  N74      1.0000 0.41230  0.44790  0.54310  Biso   1.000  N
  N75      1.0000 0.98460  0.44660  0.42270  Biso   1.000  N
  N76      1.0000 0.51020  0.38090  0.44372  Biso   1.000  N
  N77      1.0000 0.65630  0.37020  0.41701  Biso   1.000  N
  N78      1.0000 0.65360  0.41580  0.46187  Biso   1.000  N
  N79      1.0000 0.41480  0.04240  0.60650  Biso   1.000  N
  N80      1.0000 0.40100  0.39140  0.60276  Biso   1.000  N
  N81      1.0000 0.59780  0.23430  0.78145  Biso   1.000  N
  N82      1.0000 0.44960  0.21710  0.63432  Biso   1.000  N
  N83      1.0000 0.48620  0.17750  0.68037  Biso   1.000  N
  N84      1.0000 0.48540  0.26340  0.67787  Biso   1.000  N
  N85      1.0000 0.59590  0.20580  0.85112  Biso   1.000  N
  N86      1.0000 0.58770  0.05210  0.04310  Biso   1.000  N
  N87      1.0000 0.01540  0.05340  0.92270  Biso   1.000  N
  N88      1.0000 0.48980  0.11910  0.94372  Biso   1.000  N
  N89      1.0000 0.34370  0.12980  0.91701  Biso   1.000  N
  N90      1.0000 0.34640  0.08420  0.96187  Biso   1.000  N
  N91      1.0000 0.58520  0.45760  0.10650  Biso   1.000  N
  N92      1.0000 0.59900  0.10860  0.10276  Biso   1.000  N
  N93      1.0000 0.40220  0.26570  0.28145  Biso   1.000  N
  N94      1.0000 0.55040  0.28290  0.13432  Biso   1.000  N
  N95      1.0000 0.51380  0.32250  0.18037  Biso   1.000  N
  N96      1.0000 0.51460  0.23660  0.17787  Biso   1.000  N
