data_image0
_cell_length_a       19.3474
_cell_length_b       43.6051
_cell_length_c       43.6051
_cell_angle_alpha    90
_cell_angle_beta     90
_cell_angle_gamma    90

_symmetry_space_group_name_H-M    P 1
_symmetry_int_tables_number       1

loop_
  _symmetry_equiv_pos_as_xyz
  'x, y, z'

loop_
  _atom_site_label
  _atom_site_occupancy
  _atom_site_fract_x
  _atom_site_fract_y
  _atom_site_fract_z
  _atom_site_thermal_displace_type
  _atom_site_B_iso_or_equiv
  _atom_site_type_symbol
  Pr1      1.0000 0.78697  0.47303  0.87578  Biso   1.000  Pr
  Pr2      1.0000 0.77837  0.45455  0.76615  Biso   1.000  Pr
  Pr3      1.0000 0.63558  0.39537  0.83636  Biso   1.000  Pr
  Pr4      1.0000 0.58426  0.50062  0.81754  Biso   1.000  Pr
  Pr5      1.0000 0.16054  0.73740  0.69689  Biso   1.000  Pr
  Pr6      1.0000 0.78697  0.02697  0.62422  Biso   1.000  Pr
  Pr7      1.0000 0.77837  0.04545  0.73385  Biso   1.000  Pr
  Pr8      1.0000 0.63558  0.10463  0.66364  Biso   1.000  Pr
  Pr9      1.0000 0.58426  0.99938  0.68246  Biso   1.000  Pr
  Pr10     1.0000 0.16054  0.76260  0.80311  Biso   1.000  Pr
  Pr11     1.0000 0.28697  0.12422  0.97303  Biso   1.000  Pr
  Pr12     1.0000 0.27837  0.23385  0.95455  Biso   1.000  Pr
  Pr13     1.0000 0.13558  0.16364  0.89537  Biso   1.000  Pr
  Pr14     1.0000 0.08426  0.18246  0.00062  Biso   1.000  Pr
  Pr15     1.0000 0.66054  0.30311  0.23740  Biso   1.000  Pr
  Pr16     1.0000 0.28697  0.37578  0.52697  Biso   1.000  Pr
  Pr17     1.0000 0.27837  0.26615  0.54545  Biso   1.000  Pr
  Pr18     1.0000 0.13558  0.33636  0.60463  Biso   1.000  Pr
  Pr19     1.0000 0.08426  0.31754  0.49938  Biso   1.000  Pr
  Pr20     1.0000 0.66054  0.19689  0.26260  Biso   1.000  Pr
  Pr21     1.0000 0.21303  0.52697  0.12422  Biso   1.000  Pr
  Pr22     1.0000 0.22163  0.54545  0.23385  Biso   1.000  Pr
  Pr23     1.0000 0.36442  0.60463  0.16364  Biso   1.000  Pr
  Pr24     1.0000 0.41574  0.49938  0.18246  Biso   1.000  Pr
  Pr25     1.0000 0.83946  0.26260  0.30311  Biso   1.000  Pr
  Pr26     1.0000 0.21303  0.97303  0.37578  Biso   1.000  Pr
  Pr27     1.0000 0.22163  0.95455  0.26615  Biso   1.000  Pr
  Pr28     1.0000 0.36442  0.89537  0.33636  Biso   1.000  Pr
  Pr29     1.0000 0.41574  0.00062  0.31754  Biso   1.000  Pr
  Pr30     1.0000 0.83946  0.23740  0.19689  Biso   1.000  Pr
  Pr31     1.0000 0.71303  0.87578  0.02697  Biso   1.000  Pr
  Pr32     1.0000 0.72163  0.76615  0.04545  Biso   1.000  Pr
  Pr33     1.0000 0.86442  0.83636  0.10463  Biso   1.000  Pr
  Pr34     1.0000 0.91574  0.81754  0.99938  Biso   1.000  Pr
  Pr35     1.0000 0.33946  0.69689  0.76260  Biso   1.000  Pr
  Pr36     1.0000 0.71303  0.62422  0.47303  Biso   1.000  Pr
  Pr37     1.0000 0.72163  0.73385  0.45455  Biso   1.000  Pr
  Pr38     1.0000 0.86442  0.66364  0.39537  Biso   1.000  Pr
  Pr39     1.0000 0.91574  0.68246  0.50062  Biso   1.000  Pr
  Pr40     1.0000 0.33946  0.80311  0.73740  Biso   1.000  Pr
  Sb1      1.0000 0.65787  0.42518  0.91535  Biso   1.000  Sb
  Sb2      1.0000 0.61704  0.50555  0.90196  Biso   1.000  Sb
  Sb3      1.0000 0.72430  0.54877  0.84861  Biso   1.000  Sb
  Sb4      1.0000 0.87091  0.51312  0.81131  Biso   1.000  Sb
  Sb5      1.0000 0.91022  0.43342  0.82472  Biso   1.000  Sb
  Sb6      1.0000 0.80388  0.38847  0.87674  Biso   1.000  Sb
  Sb7      1.0000 0.50495  0.44605  0.87254  Biso   1.000  Sb
  Sb8      1.0000 0.71779  0.53420  0.76693  Biso   1.000  Sb
  Sb9      1.0000 0.79710  0.37484  0.79521  Biso   1.000  Sb
  Sb10     1.0000 0.60571  0.47397  0.73787  Biso   1.000  Sb
  Sb11     1.0000 0.64252  0.39390  0.75168  Biso   1.000  Sb
  Sb12     1.0000 0.49669  0.43116  0.79059  Biso   1.000  Sb
  Sb13     1.0000 0.18496  0.65802  0.72994  Biso   1.000  Sb
  Sb14     1.0000 0.18323  0.67940  0.81039  Biso   1.000  Sb
  Sb15     1.0000 0.05117  0.70949  0.75852  Biso   1.000  Sb
  Sb16     1.0000 0.65787  0.07482  0.58465  Biso   1.000  Sb
  Sb17     1.0000 0.61704  0.99445  0.59804  Biso   1.000  Sb
  Sb18     1.0000 0.72430  0.95123  0.65139  Biso   1.000  Sb
  Sb19     1.0000 0.87091  0.98688  0.68869  Biso   1.000  Sb
  Sb20     1.0000 0.91022  0.06658  0.67528  Biso   1.000  Sb
  Sb21     1.0000 0.80388  0.11153  0.62326  Biso   1.000  Sb
  Sb22     1.0000 0.50495  0.05395  0.62746  Biso   1.000  Sb
  Sb23     1.0000 0.71779  0.96580  0.73307  Biso   1.000  Sb
  Sb24     1.0000 0.79710  0.12516  0.70479  Biso   1.000  Sb
  Sb25     1.0000 0.60571  0.02603  0.76213  Biso   1.000  Sb
  Sb26     1.0000 0.64252  0.10610  0.74832  Biso   1.000  Sb
  Sb27     1.0000 0.49669  0.06884  0.70941  Biso   1.000  Sb
  Sb28     1.0000 0.18496  0.84198  0.77006  Biso   1.000  Sb
  Sb29     1.0000 0.18323  0.82060  0.68961  Biso   1.000  Sb
  Sb30     1.0000 0.05117  0.79051  0.74148  Biso   1.000  Sb
  Sb31     1.0000 0.15787  0.08465  0.92518  Biso   1.000  Sb
  Sb32     1.0000 0.11704  0.09804  0.00555  Biso   1.000  Sb
  Sb33     1.0000 0.22430  0.15139  0.04877  Biso   1.000  Sb
  Sb34     1.0000 0.37091  0.18869  0.01312  Biso   1.000  Sb
  Sb35     1.0000 0.41022  0.17528  0.93342  Biso   1.000  Sb
  Sb36     1.0000 0.30388  0.12326  0.88847  Biso   1.000  Sb
  Sb37     1.0000 0.00495  0.12746  0.94605  Biso   1.000  Sb
  Sb38     1.0000 0.21779  0.23307  0.03420  Biso   1.000  Sb
  Sb39     1.0000 0.29710  0.20479  0.87484  Biso   1.000  Sb
  Sb40     1.0000 0.10571  0.26213  0.97397  Biso   1.000  Sb
  Sb41     1.0000 0.14252  0.24832  0.89390  Biso   1.000  Sb
  Sb42     1.0000 0.99669  0.20941  0.93116  Biso   1.000  Sb
  Sb43     1.0000 0.68496  0.27006  0.15802  Biso   1.000  Sb
  Sb44     1.0000 0.68323  0.18961  0.17940  Biso   1.000  Sb
  Sb45     1.0000 0.55117  0.24148  0.20949  Biso   1.000  Sb
  Sb46     1.0000 0.15787  0.41535  0.57482  Biso   1.000  Sb
  Sb47     1.0000 0.11704  0.40196  0.49445  Biso   1.000  Sb
  Sb48     1.0000 0.22430  0.34861  0.45123  Biso   1.000  Sb
  Sb49     1.0000 0.37091  0.31131  0.48688  Biso   1.000  Sb
  Sb50     1.0000 0.41022  0.32472  0.56658  Biso   1.000  Sb
  Sb51     1.0000 0.30388  0.37674  0.61153  Biso   1.000  Sb
  Sb52     1.0000 0.00495  0.37254  0.55395  Biso   1.000  Sb
  Sb53     1.0000 0.21779  0.26693  0.46580  Biso   1.000  Sb
  Sb54     1.0000 0.29710  0.29521  0.62516  Biso   1.000  Sb
  Sb55     1.0000 0.10571  0.23787  0.52603  Biso   1.000  Sb
  Sb56     1.0000 0.14252  0.25168  0.60610  Biso   1.000  Sb
  Sb57     1.0000 0.99669  0.29059  0.56884  Biso   1.000  Sb
  Sb58     1.0000 0.68496  0.22994  0.34198  Biso   1.000  Sb
  Sb59     1.0000 0.68323  0.31039  0.32060  Biso   1.000  Sb
  Sb60     1.0000 0.55117  0.25852  0.29051  Biso   1.000  Sb
  Sb61     1.0000 0.34213  0.57482  0.08465  Biso   1.000  Sb
  Sb62     1.0000 0.38296  0.49445  0.09804  Biso   1.000  Sb
  Sb63     1.0000 0.27570  0.45123  0.15139  Biso   1.000  Sb
  Sb64     1.0000 0.12909  0.48688  0.18869  Biso   1.000  Sb
  Sb65     1.0000 0.08978  0.56658  0.17528  Biso   1.000  Sb
  Sb66     1.0000 0.19612  0.61153  0.12326  Biso   1.000  Sb
  Sb67     1.0000 0.49505  0.55395  0.12746  Biso   1.000  Sb
  Sb68     1.0000 0.28221  0.46580  0.23307  Biso   1.000  Sb
  Sb69     1.0000 0.20290  0.62516  0.20479  Biso   1.000  Sb
  Sb70     1.0000 0.39429  0.52603  0.26213  Biso   1.000  Sb
  Sb71     1.0000 0.35748  0.60610  0.24832  Biso   1.000  Sb
  Sb72     1.0000 0.50331  0.56884  0.20941  Biso   1.000  Sb
  Sb73     1.0000 0.81504  0.34198  0.27006  Biso   1.000  Sb
  Sb74     1.0000 0.81677  0.32060  0.18961  Biso   1.000  Sb
  Sb75     1.0000 0.94883  0.29051  0.24148  Biso   1.000  Sb
  Sb76     1.0000 0.34213  0.92518  0.41535  Biso   1.000  Sb
  Sb77     1.0000 0.38296  0.00555  0.40196  Biso   1.000  Sb
  Sb78     1.0000 0.27570  0.04877  0.34861  Biso   1.000  Sb
  Sb79     1.0000 0.12909  0.01312  0.31131  Biso   1.000  Sb
  Sb80     1.0000 0.08978  0.93342  0.32472  Biso   1.000  Sb
  Sb81     1.0000 0.19612  0.88847  0.37674  Biso   1.000  Sb
  Sb82     1.0000 0.49505  0.94605  0.37254  Biso   1.000  Sb
  Sb83     1.0000 0.28221  0.03420  0.26693  Biso   1.000  Sb
  Sb84     1.0000 0.20290  0.87484  0.29521  Biso   1.000  Sb
  Sb85     1.0000 0.39429  0.97397  0.23787  Biso   1.000  Sb
  Sb86     1.0000 0.35748  0.89390  0.25168  Biso   1.000  Sb
  Sb87     1.0000 0.50331  0.93116  0.29059  Biso   1.000  Sb
  Sb88     1.0000 0.81504  0.15802  0.22994  Biso   1.000  Sb
  Sb89     1.0000 0.81677  0.17940  0.31039  Biso   1.000  Sb
  Sb90     1.0000 0.94883  0.20949  0.25852  Biso   1.000  Sb
  Sb91     1.0000 0.84213  0.91535  0.07482  Biso   1.000  Sb
  Sb92     1.0000 0.88296  0.90196  0.99445  Biso   1.000  Sb
  Sb93     1.0000 0.77570  0.84861  0.95123  Biso   1.000  Sb
  Sb94     1.0000 0.62909  0.81131  0.98688  Biso   1.000  Sb
  Sb95     1.0000 0.58978  0.82472  0.06658  Biso   1.000  Sb
  Sb96     1.0000 0.69612  0.87674  0.11153  Biso   1.000  Sb
  Sb97     1.0000 0.99505  0.87254  0.05395  Biso   1.000  Sb
  Sb98     1.0000 0.78221  0.76693  0.96580  Biso   1.000  Sb
  Sb99     1.0000 0.70290  0.79521  0.12516  Biso   1.000  Sb
  Sb100    1.0000 0.89429  0.73787  0.02603  Biso   1.000  Sb
  Sb101    1.0000 0.85748  0.75168  0.10610  Biso   1.000  Sb
  Sb102    1.0000 0.00331  0.79059  0.06884  Biso   1.000  Sb
  Sb103    1.0000 0.31504  0.72994  0.84198  Biso   1.000  Sb
  Sb104    1.0000 0.31677  0.81039  0.82060  Biso   1.000  Sb
  Sb105    1.0000 0.44883  0.75852  0.79051  Biso   1.000  Sb
  Sb106    1.0000 0.84213  0.58465  0.42518  Biso   1.000  Sb
  Sb107    1.0000 0.88296  0.59804  0.50555  Biso   1.000  Sb
  Sb108    1.0000 0.77570  0.65139  0.54877  Biso   1.000  Sb
  Sb109    1.0000 0.62909  0.68869  0.51312  Biso   1.000  Sb
  Sb110    1.0000 0.58978  0.67528  0.43342  Biso   1.000  Sb
  Sb111    1.0000 0.69612  0.62326  0.38847  Biso   1.000  Sb
  Sb112    1.0000 0.99505  0.62746  0.44605  Biso   1.000  Sb
  Sb113    1.0000 0.78221  0.73307  0.53420  Biso   1.000  Sb
  Sb114    1.0000 0.70290  0.70479  0.37484  Biso   1.000  Sb
  Sb115    1.0000 0.89429  0.76213  0.47397  Biso   1.000  Sb
  Sb116    1.0000 0.85748  0.74832  0.39390  Biso   1.000  Sb
  Sb117    1.0000 0.00331  0.70941  0.43116  Biso   1.000  Sb
  Sb118    1.0000 0.31504  0.77006  0.65802  Biso   1.000  Sb
  Sb119    1.0000 0.31677  0.68961  0.67940  Biso   1.000  Sb
  Sb120    1.0000 0.44883  0.74148  0.70949  Biso   1.000  Sb
  H1       1.0000 0.42850  0.53030  0.75620  Biso   1.000  H
  H2       1.0000 0.33570  0.56130  0.74230  Biso   1.000  H
  H3       1.0000 0.46330  0.60070  0.90470  Biso   1.000  H
  H4       1.0000 0.37830  0.63850  0.88850  Biso   1.000  H
  H5       1.0000 0.01140  0.39140  0.66540  Biso   1.000  H
  H6       1.0000 0.94000  0.41400  0.70530  Biso   1.000  H
  H7       1.0000 0.42850  0.96970  0.74380  Biso   1.000  H
  H8       1.0000 0.33570  0.93870  0.75770  Biso   1.000  H
  H9       1.0000 0.46330  0.89930  0.59530  Biso   1.000  H
  H10      1.0000 0.37830  0.86150  0.61150  Biso   1.000  H
  H11      1.0000 0.01140  0.10860  0.83460  Biso   1.000  H
  H12      1.0000 0.94000  0.08600  0.79470  Biso   1.000  H
  H13      1.0000 0.92850  0.24380  0.03030  Biso   1.000  H
  H14      1.0000 0.83570  0.25770  0.06130  Biso   1.000  H
  H15      1.0000 0.96330  0.09530  0.10070  Biso   1.000  H
  H16      1.0000 0.87830  0.11150  0.13850  Biso   1.000  H
  H17      1.0000 0.51140  0.33460  0.89140  Biso   1.000  H
  H18      1.0000 0.44000  0.29470  0.91400  Biso   1.000  H
  H19      1.0000 0.92850  0.25620  0.46970  Biso   1.000  H
  H20      1.0000 0.83570  0.24230  0.43870  Biso   1.000  H
  H21      1.0000 0.96330  0.40470  0.39930  Biso   1.000  H
  H22      1.0000 0.87830  0.38850  0.36150  Biso   1.000  H
  H23      1.0000 0.51140  0.16540  0.60860  Biso   1.000  H
  H24      1.0000 0.44000  0.20530  0.58600  Biso   1.000  H
  H25      1.0000 0.57150  0.46970  0.24380  Biso   1.000  H
  H26      1.0000 0.66430  0.43870  0.25770  Biso   1.000  H
  H27      1.0000 0.53670  0.39930  0.09530  Biso   1.000  H
  H28      1.0000 0.62170  0.36150  0.11150  Biso   1.000  H
  H29      1.0000 0.98860  0.60860  0.33460  Biso   1.000  H
  H30      1.0000 0.06000  0.58600  0.29470  Biso   1.000  H
  H31      1.0000 0.57150  0.03030  0.25620  Biso   1.000  H
  H32      1.0000 0.66430  0.06130  0.24230  Biso   1.000  H
  H33      1.0000 0.53670  0.10070  0.40470  Biso   1.000  H
  H34      1.0000 0.62170  0.13850  0.38850  Biso   1.000  H
  H35      1.0000 0.98860  0.89140  0.16540  Biso   1.000  H
  H36      1.0000 0.06000  0.91400  0.20530  Biso   1.000  H
  H37      1.0000 0.07150  0.75620  0.96970  Biso   1.000  H
  H38      1.0000 0.16430  0.74230  0.93870  Biso   1.000  H
  H39      1.0000 0.03670  0.90470  0.89930  Biso   1.000  H
  H40      1.0000 0.12170  0.88850  0.86150  Biso   1.000  H
  H41      1.0000 0.48860  0.66540  0.10860  Biso   1.000  H
  H42      1.0000 0.56000  0.70530  0.08600  Biso   1.000  H
  H43      1.0000 0.07150  0.74380  0.53030  Biso   1.000  H
  H44      1.0000 0.16430  0.75770  0.56130  Biso   1.000  H
  H45      1.0000 0.03670  0.59530  0.60070  Biso   1.000  H
  H46      1.0000 0.12170  0.61150  0.63850  Biso   1.000  H
  H47      1.0000 0.48860  0.83460  0.39140  Biso   1.000  H
  H48      1.0000 0.56000  0.79470  0.41400  Biso   1.000  H
  C1       1.0000 0.55660  0.55660  0.75990  Biso   1.000  C
  C2       1.0000 0.49010  0.56840  0.75330  Biso   1.000  C
  C3       1.0000 0.43150  0.55120  0.75220  Biso   1.000  C
  C4       1.0000 0.37970  0.56950  0.74460  Biso   1.000  C
  C5       1.0000 0.38940  0.60060  0.73990  Biso   1.000  C
  C6       1.0000 0.34350  0.62450  0.73250  Biso   1.000  C
  C7       1.0000 0.52910  0.56170  0.85970  Biso   1.000  C
  C8       1.0000 0.47650  0.58730  0.85920  Biso   1.000  C
  C9       1.0000 0.45040  0.60400  0.88440  Biso   1.000  C
  C10      1.0000 0.40230  0.62610  0.87480  Biso   1.000  C
  C11      1.0000 0.39350  0.62790  0.84430  Biso   1.000  C
  C12      1.0000 0.35070  0.65020  0.82820  Biso   1.000  C
  C13      1.0000 0.96150  0.34730  0.62620  Biso   1.000  C
  C14      1.0000 0.93290  0.36440  0.65180  Biso   1.000  C
  C15      1.0000 0.96570  0.38570  0.66880  Biso   1.000  C
  C16      1.0000 0.92470  0.39870  0.69210  Biso   1.000  C
  C17      1.0000 0.86050  0.38640  0.69330  Biso   1.000  C
  C18      1.0000 0.80460  0.39370  0.71560  Biso   1.000  C
  C19      1.0000 0.55660  0.94340  0.74010  Biso   1.000  C
  C20      1.0000 0.49010  0.93160  0.74670  Biso   1.000  C
  C21      1.0000 0.43150  0.94880  0.74780  Biso   1.000  C
  C22      1.0000 0.37970  0.93050  0.75540  Biso   1.000  C
  C23      1.0000 0.38940  0.89940  0.76010  Biso   1.000  C
  C24      1.0000 0.34350  0.87550  0.76750  Biso   1.000  C
  C25      1.0000 0.52910  0.93830  0.64030  Biso   1.000  C
  C26      1.0000 0.47650  0.91270  0.64080  Biso   1.000  C
  C27      1.0000 0.45040  0.89600  0.61560  Biso   1.000  C
  C28      1.0000 0.40230  0.87390  0.62520  Biso   1.000  C
  C29      1.0000 0.39350  0.87210  0.65570  Biso   1.000  C
  C30      1.0000 0.35070  0.84980  0.67180  Biso   1.000  C
  C31      1.0000 0.96150  0.15270  0.87380  Biso   1.000  C
  C32      1.0000 0.93290  0.13560  0.84820  Biso   1.000  C
  C33      1.0000 0.96570  0.11430  0.83120  Biso   1.000  C
  C34      1.0000 0.92470  0.10130  0.80790  Biso   1.000  C
  C35      1.0000 0.86050  0.11360  0.80670  Biso   1.000  C
  C36      1.0000 0.80460  0.10630  0.78440  Biso   1.000  C
  C37      1.0000 0.05660  0.24010  0.05660  Biso   1.000  C
  C38      1.0000 0.99010  0.24670  0.06840  Biso   1.000  C
  C39      1.0000 0.93150  0.24780  0.05120  Biso   1.000  C
  C40      1.0000 0.87970  0.25540  0.06950  Biso   1.000  C
  C41      1.0000 0.88940  0.26010  0.10060  Biso   1.000  C
  C42      1.0000 0.84350  0.26750  0.12450  Biso   1.000  C
  C43      1.0000 0.02910  0.14030  0.06170  Biso   1.000  C
  C44      1.0000 0.97650  0.14080  0.08730  Biso   1.000  C
  C45      1.0000 0.95040  0.11560  0.10400  Biso   1.000  C
  C46      1.0000 0.90230  0.12520  0.12610  Biso   1.000  C
  C47      1.0000 0.89350  0.15570  0.12790  Biso   1.000  C
  C48      1.0000 0.85070  0.17180  0.15020  Biso   1.000  C
  C49      1.0000 0.46150  0.37380  0.84730  Biso   1.000  C
  C50      1.0000 0.43290  0.34820  0.86440  Biso   1.000  C
  C51      1.0000 0.46570  0.33120  0.88570  Biso   1.000  C
  C52      1.0000 0.42470  0.30790  0.89870  Biso   1.000  C
  C53      1.0000 0.36050  0.30670  0.88640  Biso   1.000  C
  C54      1.0000 0.30460  0.28440  0.89370  Biso   1.000  C
  C55      1.0000 0.05660  0.25990  0.44340  Biso   1.000  C
  C56      1.0000 0.99010  0.25330  0.43160  Biso   1.000  C
  C57      1.0000 0.93150  0.25220  0.44880  Biso   1.000  C
  C58      1.0000 0.87970  0.24460  0.43050  Biso   1.000  C
  C59      1.0000 0.88940  0.23990  0.39940  Biso   1.000  C
  C60      1.0000 0.84350  0.23250  0.37550  Biso   1.000  C
  C61      1.0000 0.02910  0.35970  0.43830  Biso   1.000  C
  C62      1.0000 0.97650  0.35920  0.41270  Biso   1.000  C
  C63      1.0000 0.95040  0.38440  0.39600  Biso   1.000  C
  C64      1.0000 0.90230  0.37480  0.37390  Biso   1.000  C
  C65      1.0000 0.89350  0.34430  0.37210  Biso   1.000  C
  C66      1.0000 0.85070  0.32820  0.34980  Biso   1.000  C
  C67      1.0000 0.46150  0.12620  0.65270  Biso   1.000  C
  C68      1.0000 0.43290  0.15180  0.63560  Biso   1.000  C
  C69      1.0000 0.46570  0.16880  0.61430  Biso   1.000  C
  C70      1.0000 0.42470  0.19210  0.60130  Biso   1.000  C
  C71      1.0000 0.36050  0.19330  0.61360  Biso   1.000  C
  C72      1.0000 0.30460  0.21560  0.60630  Biso   1.000  C
  C73      1.0000 0.44340  0.44340  0.24010  Biso   1.000  C
  C74      1.0000 0.50990  0.43160  0.24670  Biso   1.000  C
  C75      1.0000 0.56850  0.44880  0.24780  Biso   1.000  C
  C76      1.0000 0.62030  0.43050  0.25540  Biso   1.000  C
  C77      1.0000 0.61060  0.39940  0.26010  Biso   1.000  C
  C78      1.0000 0.65650  0.37550  0.26750  Biso   1.000  C
  C79      1.0000 0.47090  0.43830  0.14030  Biso   1.000  C
  C80      1.0000 0.52350  0.41270  0.14080  Biso   1.000  C
  C81      1.0000 0.54960  0.39600  0.11560  Biso   1.000  C
  C82      1.0000 0.59770  0.37390  0.12520  Biso   1.000  C
  C83      1.0000 0.60650  0.37210  0.15570  Biso   1.000  C
  C84      1.0000 0.64930  0.34980  0.17180  Biso   1.000  C
  C85      1.0000 0.03850  0.65270  0.37380  Biso   1.000  C
  C86      1.0000 0.06710  0.63560  0.34820  Biso   1.000  C
  C87      1.0000 0.03430  0.61430  0.33120  Biso   1.000  C
  C88      1.0000 0.07530  0.60130  0.30790  Biso   1.000  C
  C89      1.0000 0.13950  0.61360  0.30670  Biso   1.000  C
  C90      1.0000 0.19540  0.60630  0.28440  Biso   1.000  C
  C91      1.0000 0.44340  0.05660  0.25990  Biso   1.000  C
  C92      1.0000 0.50990  0.06840  0.25330  Biso   1.000  C
  C93      1.0000 0.56850  0.05120  0.25220  Biso   1.000  C
  C94      1.0000 0.62030  0.06950  0.24460  Biso   1.000  C
  C95      1.0000 0.61060  0.10060  0.23990  Biso   1.000  C
  C96      1.0000 0.65650  0.12450  0.23250  Biso   1.000  C
  C97      1.0000 0.47090  0.06170  0.35970  Biso   1.000  C
  C98      1.0000 0.52350  0.08730  0.35920  Biso   1.000  C
  C99      1.0000 0.54960  0.10400  0.38440  Biso   1.000  C
  C100     1.0000 0.59770  0.12610  0.37480  Biso   1.000  C
  C101     1.0000 0.60650  0.12790  0.34430  Biso   1.000  C
  C102     1.0000 0.64930  0.15020  0.32820  Biso   1.000  C
  C103     1.0000 0.03850  0.84730  0.12620  Biso   1.000  C
  C104     1.0000 0.06710  0.86440  0.15180  Biso   1.000  C
  C105     1.0000 0.03430  0.88570  0.16880  Biso   1.000  C
  C106     1.0000 0.07530  0.89870  0.19210  Biso   1.000  C
  C107     1.0000 0.13950  0.88640  0.19330  Biso   1.000  C
  C108     1.0000 0.19540  0.89370  0.21560  Biso   1.000  C
  C109     1.0000 0.94340  0.75990  0.94340  Biso   1.000  C
  C110     1.0000 0.00990  0.75330  0.93160  Biso   1.000  C
  C111     1.0000 0.06850  0.75220  0.94880  Biso   1.000  C
  C112     1.0000 0.12030  0.74460  0.93050  Biso   1.000  C
  C113     1.0000 0.11060  0.73990  0.89940  Biso   1.000  C
  C114     1.0000 0.15650  0.73250  0.87550  Biso   1.000  C
  C115     1.0000 0.97090  0.85970  0.93830  Biso   1.000  C
  C116     1.0000 0.02350  0.85920  0.91270  Biso   1.000  C
  C117     1.0000 0.04960  0.88440  0.89600  Biso   1.000  C
  C118     1.0000 0.09770  0.87480  0.87390  Biso   1.000  C
  C119     1.0000 0.10650  0.84430  0.87210  Biso   1.000  C
  C120     1.0000 0.14930  0.82820  0.84980  Biso   1.000  C
  C121     1.0000 0.53850  0.62620  0.15270  Biso   1.000  C
  C122     1.0000 0.56710  0.65180  0.13560  Biso   1.000  C
  C123     1.0000 0.53430  0.66880  0.11430  Biso   1.000  C
  C124     1.0000 0.57530  0.69210  0.10130  Biso   1.000  C
  C125     1.0000 0.63950  0.69330  0.11360  Biso   1.000  C
  C126     1.0000 0.69540  0.71560  0.10630  Biso   1.000  C
  C127     1.0000 0.94340  0.74010  0.55660  Biso   1.000  C
  C128     1.0000 0.00990  0.74670  0.56840  Biso   1.000  C
  C129     1.0000 0.06850  0.74780  0.55120  Biso   1.000  C
  C130     1.0000 0.12030  0.75540  0.56950  Biso   1.000  C
  C131     1.0000 0.11060  0.76010  0.60060  Biso   1.000  C
  C132     1.0000 0.15650  0.76750  0.62450  Biso   1.000  C
  C133     1.0000 0.97090  0.64030  0.56170  Biso   1.000  C
  C134     1.0000 0.02350  0.64080  0.58730  Biso   1.000  C
  C135     1.0000 0.04960  0.61560  0.60400  Biso   1.000  C
  C136     1.0000 0.09770  0.62520  0.62610  Biso   1.000  C
  C137     1.0000 0.10650  0.65570  0.62790  Biso   1.000  C
  C138     1.0000 0.14930  0.67180  0.65020  Biso   1.000  C
  C139     1.0000 0.53850  0.87380  0.34730  Biso   1.000  C
  C140     1.0000 0.56710  0.84820  0.36440  Biso   1.000  C
  C141     1.0000 0.53430  0.83120  0.38570  Biso   1.000  C
  C142     1.0000 0.57530  0.80790  0.39870  Biso   1.000  C
  C143     1.0000 0.63950  0.80670  0.38640  Biso   1.000  C
  C144     1.0000 0.69540  0.78440  0.39370  Biso   1.000  C
  S1       1.0000 0.84890  0.35956  0.66485  Biso   1.000  S
  S2       1.0000 0.44150  0.60082  0.82582  Biso   1.000  S
  S3       1.0000 0.47510  0.60577  0.74470  Biso   1.000  S
  S4       1.0000 0.84890  0.14044  0.83515  Biso   1.000  S
  S5       1.0000 0.44150  0.89918  0.67418  Biso   1.000  S
  S6       1.0000 0.47510  0.89423  0.75530  Biso   1.000  S
  S7       1.0000 0.34890  0.33515  0.85956  Biso   1.000  S
  S8       1.0000 0.94150  0.17418  0.10082  Biso   1.000  S
  S9       1.0000 0.97510  0.25530  0.10577  Biso   1.000  S
  S10      1.0000 0.34890  0.16485  0.64044  Biso   1.000  S
  S11      1.0000 0.94150  0.32582  0.39918  Biso   1.000  S
  S12      1.0000 0.97510  0.24470  0.39423  Biso   1.000  S
  S13      1.0000 0.15110  0.64044  0.33515  Biso   1.000  S
  S14      1.0000 0.55850  0.39918  0.17418  Biso   1.000  S
  S15      1.0000 0.52490  0.39423  0.25530  Biso   1.000  S
  S16      1.0000 0.15110  0.85956  0.16485  Biso   1.000  S
  S17      1.0000 0.55850  0.10082  0.32582  Biso   1.000  S
  S18      1.0000 0.52490  0.10577  0.24470  Biso   1.000  S
  S19      1.0000 0.65110  0.66485  0.14044  Biso   1.000  S
  S20      1.0000 0.05850  0.82582  0.89918  Biso   1.000  S
  S21      1.0000 0.02490  0.74470  0.89423  Biso   1.000  S
  S22      1.0000 0.65110  0.83515  0.35956  Biso   1.000  S
  S23      1.0000 0.05850  0.67418  0.60082  Biso   1.000  S
  S24      1.0000 0.02490  0.75530  0.60577  Biso   1.000  S
  Cl1      1.0000 0.69590  0.45570  0.82490  Biso   1.000  Cl
  Cl2      1.0000 0.93200  0.48910  0.87733  Biso   1.000  Cl
  Cl3      1.0000 0.82060  0.44175  0.93208  Biso   1.000  Cl
  Cl4      1.0000 0.77180  0.52798  0.91515  Biso   1.000  Cl
  Cl5      1.0000 0.93080  0.47015  0.76217  Biso   1.000  Cl
  Cl6      1.0000 0.76130  0.48767  0.70872  Biso   1.000  Cl
  Cl7      1.0000 0.64900  0.33930  0.80004  Biso   1.000  Cl
  Cl8      1.0000 0.66370  0.35446  0.89013  Biso   1.000  Cl
  Cl9      1.0000 0.43050  0.48913  0.82093  Biso   1.000  Cl
  Cl10     1.0000 0.00300  0.73514  0.69686  Biso   1.000  Cl
  Cl11     1.0000 0.69590  0.04430  0.67510  Biso   1.000  Cl
  Cl12     1.0000 0.93200  0.01090  0.62267  Biso   1.000  Cl
  Cl13     1.0000 0.82060  0.05825  0.56792  Biso   1.000  Cl
  Cl14     1.0000 0.77180  0.97202  0.58485  Biso   1.000  Cl
  Cl15     1.0000 0.93080  0.02985  0.73783  Biso   1.000  Cl
  Cl16     1.0000 0.76130  0.01233  0.79128  Biso   1.000  Cl
  Cl17     1.0000 0.64900  0.16070  0.69996  Biso   1.000  Cl
  Cl18     1.0000 0.66370  0.14554  0.60987  Biso   1.000  Cl
  Cl19     1.0000 0.43050  0.01087  0.67907  Biso   1.000  Cl
  Cl20     1.0000 0.00300  0.76486  0.80314  Biso   1.000  Cl
  Cl21     1.0000 0.19590  0.17510  0.95570  Biso   1.000  Cl
  Cl22     1.0000 0.43200  0.12267  0.98910  Biso   1.000  Cl
  Cl23     1.0000 0.32060  0.06792  0.94175  Biso   1.000  Cl
  Cl24     1.0000 0.27180  0.08485  0.02798  Biso   1.000  Cl
  Cl25     1.0000 0.43080  0.23783  0.97015  Biso   1.000  Cl
  Cl26     1.0000 0.26130  0.29128  0.98767  Biso   1.000  Cl
  Cl27     1.0000 0.14900  0.19996  0.83930  Biso   1.000  Cl
  Cl28     1.0000 0.16370  0.10987  0.85446  Biso   1.000  Cl
  Cl29     1.0000 0.93050  0.17907  0.98913  Biso   1.000  Cl
  Cl30     1.0000 0.50300  0.30314  0.23514  Biso   1.000  Cl
  Cl31     1.0000 0.19590  0.32490  0.54430  Biso   1.000  Cl
  Cl32     1.0000 0.43200  0.37733  0.51090  Biso   1.000  Cl
  Cl33     1.0000 0.32060  0.43208  0.55825  Biso   1.000  Cl
  Cl34     1.0000 0.27180  0.41515  0.47202  Biso   1.000  Cl
  Cl35     1.0000 0.43080  0.26217  0.52985  Biso   1.000  Cl
  Cl36     1.0000 0.26130  0.20872  0.51233  Biso   1.000  Cl
  Cl37     1.0000 0.14900  0.30004  0.66070  Biso   1.000  Cl
  Cl38     1.0000 0.16370  0.39013  0.64554  Biso   1.000  Cl
  Cl39     1.0000 0.93050  0.32093  0.51087  Biso   1.000  Cl
  Cl40     1.0000 0.50300  0.19686  0.26486  Biso   1.000  Cl
  Cl41     1.0000 0.30410  0.54430  0.17510  Biso   1.000  Cl
  Cl42     1.0000 0.06800  0.51090  0.12267  Biso   1.000  Cl
  Cl43     1.0000 0.17940  0.55825  0.06792  Biso   1.000  Cl
  Cl44     1.0000 0.22820  0.47202  0.08485  Biso   1.000  Cl
  Cl45     1.0000 0.06920  0.52985  0.23783  Biso   1.000  Cl
  Cl46     1.0000 0.23870  0.51233  0.29128  Biso   1.000  Cl
  Cl47     1.0000 0.35100  0.66070  0.19996  Biso   1.000  Cl
  Cl48     1.0000 0.33630  0.64554  0.10987  Biso   1.000  Cl
  Cl49     1.0000 0.56950  0.51087  0.17907  Biso   1.000  Cl
  Cl50     1.0000 0.99700  0.26486  0.30314  Biso   1.000  Cl
  Cl51     1.0000 0.30410  0.95570  0.32490  Biso   1.000  Cl
  Cl52     1.0000 0.06800  0.98910  0.37733  Biso   1.000  Cl
  Cl53     1.0000 0.17940  0.94175  0.43208  Biso   1.000  Cl
  Cl54     1.0000 0.22820  0.02798  0.41515  Biso   1.000  Cl
  Cl55     1.0000 0.06920  0.97015  0.26217  Biso   1.000  Cl
  Cl56     1.0000 0.23870  0.98767  0.20872  Biso   1.000  Cl
  Cl57     1.0000 0.35100  0.83930  0.30004  Biso   1.000  Cl
  Cl58     1.0000 0.33630  0.85446  0.39013  Biso   1.000  Cl
  Cl59     1.0000 0.56950  0.98913  0.32093  Biso   1.000  Cl
  Cl60     1.0000 0.99700  0.23514  0.19686  Biso   1.000  Cl
  Cl61     1.0000 0.80410  0.82490  0.04430  Biso   1.000  Cl
  Cl62     1.0000 0.56800  0.87733  0.01090  Biso   1.000  Cl
  Cl63     1.0000 0.67940  0.93208  0.05825  Biso   1.000  Cl
  Cl64     1.0000 0.72820  0.91515  0.97202  Biso   1.000  Cl
  Cl65     1.0000 0.56920  0.76217  0.02985  Biso   1.000  Cl
  Cl66     1.0000 0.73870  0.70872  0.01233  Biso   1.000  Cl
  Cl67     1.0000 0.85100  0.80004  0.16070  Biso   1.000  Cl
  Cl68     1.0000 0.83630  0.89013  0.14554  Biso   1.000  Cl
  Cl69     1.0000 0.06950  0.82093  0.01087  Biso   1.000  Cl
  Cl70     1.0000 0.49700  0.69686  0.76486  Biso   1.000  Cl
  Cl71     1.0000 0.80410  0.67510  0.45570  Biso   1.000  Cl
  Cl72     1.0000 0.56800  0.62267  0.48910  Biso   1.000  Cl
  Cl73     1.0000 0.67940  0.56792  0.44175  Biso   1.000  Cl
  Cl74     1.0000 0.72820  0.58485  0.52798  Biso   1.000  Cl
  Cl75     1.0000 0.56920  0.73783  0.47015  Biso   1.000  Cl
  Cl76     1.0000 0.73870  0.79128  0.48767  Biso   1.000  Cl
  Cl77     1.0000 0.85100  0.69996  0.33930  Biso   1.000  Cl
  Cl78     1.0000 0.83630  0.60987  0.35446  Biso   1.000  Cl
  Cl79     1.0000 0.06950  0.67907  0.48913  Biso   1.000  Cl
  Cl80     1.0000 0.49700  0.80314  0.73514  Biso   1.000  Cl
  Cl81     1.0000 0.25000  0.75000  0.75000  Biso   1.000  Cl
  Cl82     1.0000 0.75000  0.25000  0.25000  Biso   1.000  Cl
  O1       1.0000 0.66870  0.51340  0.86300  Biso   1.000  O
  O2       1.0000 0.80190  0.52030  0.84440  Biso   1.000  O
  O3       1.0000 0.84810  0.46970  0.82080  Biso   1.000  O
  O4       1.0000 0.85170  0.42610  0.86190  Biso   1.000  O
  O5       1.0000 0.72540  0.41780  0.88150  Biso   1.000  O
  O6       1.0000 0.67880  0.46840  0.90510  Biso   1.000  O
  O7       1.0000 0.55260  0.48560  0.87180  Biso   1.000  O
  O8       1.0000 0.68220  0.53690  0.80930  Biso   1.000  O
  O9       1.0000 0.80050  0.50910  0.77940  Biso   1.000  O
  O10      1.0000 0.84510  0.41500  0.79530  Biso   1.000  O
  O11      1.0000 0.75840  0.37920  0.83700  Biso   1.000  O
  O12      1.0000 0.58740  0.42120  0.88300  Biso   1.000  O
  O13      1.0000 0.54310  0.44080  0.83010  Biso   1.000  O
  O14      1.0000 0.67270  0.49290  0.76780  Biso   1.000  O
  O15      1.0000 0.71640  0.40020  0.78240  Biso   1.000  O
  O16      1.0000 0.57830  0.40350  0.78610  Biso   1.000  O
  O17      1.0000 0.55040  0.46700  0.77530  Biso   1.000  O
  O18      1.0000 0.66440  0.43710  0.74200  Biso   1.000  O
  O19      1.0000 0.25030  0.68900  0.71410  Biso   1.000  O
  O20      1.0000 0.11870  0.69400  0.72840  Biso   1.000  O
  O21      1.0000 0.11830  0.71010  0.79320  Biso   1.000  O
  O22      1.0000 0.22670  0.66950  0.77080  Biso   1.000  O
  O23      1.0000 0.56050  0.53030  0.76820  Biso   1.000  O
  O24      1.0000 0.60780  0.57440  0.75680  Biso   1.000  O
  O25      1.0000 0.28150  0.61900  0.72670  Biso   1.000  O
  O26      1.0000 0.36330  0.65050  0.73320  Biso   1.000  O
  O27      1.0000 0.55430  0.55580  0.88420  Biso   1.000  O
  O28      1.0000 0.53930  0.54870  0.83460  Biso   1.000  O
  O29      1.0000 0.30440  0.66290  0.84170  Biso   1.000  O
  O30      1.0000 0.36460  0.65690  0.80110  Biso   1.000  O
  O31      1.0000 0.02560  0.34460  0.62580  Biso   1.000  O
  O32      1.0000 0.92170  0.33470  0.60760  Biso   1.000  O
  O33      1.0000 0.81610  0.41780  0.73060  Biso   1.000  O
  O34      1.0000 0.75260  0.37810  0.71680  Biso   1.000  O
  O35      1.0000 0.66870  0.98660  0.63700  Biso   1.000  O
  O36      1.0000 0.80190  0.97970  0.65560  Biso   1.000  O
  O37      1.0000 0.84810  0.03030  0.67920  Biso   1.000  O
  O38      1.0000 0.85170  0.07390  0.63810  Biso   1.000  O
  O39      1.0000 0.72540  0.08220  0.61850  Biso   1.000  O
  O40      1.0000 0.67880  0.03160  0.59490  Biso   1.000  O
  O41      1.0000 0.55260  0.01440  0.62820  Biso   1.000  O
  O42      1.0000 0.68220  0.96310  0.69070  Biso   1.000  O
  O43      1.0000 0.80050  0.99090  0.72060  Biso   1.000  O
  O44      1.0000 0.84510  0.08500  0.70470  Biso   1.000  O
  O45      1.0000 0.75840  0.12080  0.66300  Biso   1.000  O
  O46      1.0000 0.58740  0.07880  0.61700  Biso   1.000  O
  O47      1.0000 0.54310  0.05920  0.66990  Biso   1.000  O
  O48      1.0000 0.67270  0.00710  0.73220  Biso   1.000  O
  O49      1.0000 0.71640  0.09980  0.71760  Biso   1.000  O
  O50      1.0000 0.57830  0.09650  0.71390  Biso   1.000  O
  O51      1.0000 0.55040  0.03300  0.72470  Biso   1.000  O
  O52      1.0000 0.66440  0.06290  0.75800  Biso   1.000  O
  O53      1.0000 0.25030  0.81100  0.78590  Biso   1.000  O
  O54      1.0000 0.11870  0.80600  0.77160  Biso   1.000  O
  O55      1.0000 0.11830  0.78990  0.70680  Biso   1.000  O
  O56      1.0000 0.22670  0.83050  0.72920  Biso   1.000  O
  O57      1.0000 0.56050  0.96970  0.73180  Biso   1.000  O
  O58      1.0000 0.60780  0.92560  0.74320  Biso   1.000  O
  O59      1.0000 0.28150  0.88100  0.77330  Biso   1.000  O
  O60      1.0000 0.36330  0.84950  0.76680  Biso   1.000  O
  O61      1.0000 0.55430  0.94420  0.61580  Biso   1.000  O
  O62      1.0000 0.53930  0.95130  0.66540  Biso   1.000  O
  O63      1.0000 0.30440  0.83710  0.65830  Biso   1.000  O
  O64      1.0000 0.36460  0.84310  0.69890  Biso   1.000  O
  O65      1.0000 0.02560  0.15540  0.87420  Biso   1.000  O
  O66      1.0000 0.92170  0.16530  0.89240  Biso   1.000  O
  O67      1.0000 0.81610  0.08220  0.76940  Biso   1.000  O
  O68      1.0000 0.75260  0.12190  0.78320  Biso   1.000  O
  O69      1.0000 0.16870  0.13700  0.01340  Biso   1.000  O
  O70      1.0000 0.30190  0.15560  0.02030  Biso   1.000  O
  O71      1.0000 0.34810  0.17920  0.96970  Biso   1.000  O
  O72      1.0000 0.35170  0.13810  0.92610  Biso   1.000  O
  O73      1.0000 0.22540  0.11850  0.91780  Biso   1.000  O
  O74      1.0000 0.17880  0.09490  0.96840  Biso   1.000  O
  O75      1.0000 0.05260  0.12820  0.98560  Biso   1.000  O
  O76      1.0000 0.18220  0.19070  0.03690  Biso   1.000  O
  O77      1.0000 0.30050  0.22060  0.00910  Biso   1.000  O
  O78      1.0000 0.34510  0.20470  0.91500  Biso   1.000  O
  O79      1.0000 0.25840  0.16300  0.87920  Biso   1.000  O
  O80      1.0000 0.08740  0.11700  0.92120  Biso   1.000  O
  O81      1.0000 0.04310  0.16990  0.94080  Biso   1.000  O
  O82      1.0000 0.17270  0.23220  0.99290  Biso   1.000  O
  O83      1.0000 0.21640  0.21760  0.90020  Biso   1.000  O
  O84      1.0000 0.07830  0.21390  0.90350  Biso   1.000  O
  O85      1.0000 0.05040  0.22470  0.96700  Biso   1.000  O
  O86      1.0000 0.16440  0.25800  0.93710  Biso   1.000  O
  O87      1.0000 0.75030  0.28590  0.18900  Biso   1.000  O
  O88      1.0000 0.61870  0.27160  0.19400  Biso   1.000  O
  O89      1.0000 0.61830  0.20680  0.21010  Biso   1.000  O
  O90      1.0000 0.72670  0.22920  0.16950  Biso   1.000  O
  O91      1.0000 0.06050  0.23180  0.03030  Biso   1.000  O
  O92      1.0000 0.10780  0.24320  0.07440  Biso   1.000  O
  O93      1.0000 0.78150  0.27330  0.11900  Biso   1.000  O
  O94      1.0000 0.86330  0.26680  0.15050  Biso   1.000  O
  O95      1.0000 0.05430  0.11580  0.05580  Biso   1.000  O
  O96      1.0000 0.03930  0.16540  0.04870  Biso   1.000  O
  O97      1.0000 0.80440  0.15830  0.16290  Biso   1.000  O
  O98      1.0000 0.86460  0.19890  0.15690  Biso   1.000  O
  O99      1.0000 0.52560  0.37420  0.84460  Biso   1.000  O
  O100     1.0000 0.42170  0.39240  0.83470  Biso   1.000  O
  O101     1.0000 0.31610  0.26940  0.91780  Biso   1.000  O
  O102     1.0000 0.25260  0.28320  0.87810  Biso   1.000  O
  O103     1.0000 0.16870  0.36300  0.48660  Biso   1.000  O
  O104     1.0000 0.30190  0.34440  0.47970  Biso   1.000  O
  O105     1.0000 0.34810  0.32080  0.53030  Biso   1.000  O
  O106     1.0000 0.35170  0.36190  0.57390  Biso   1.000  O
  O107     1.0000 0.22540  0.38150  0.58220  Biso   1.000  O
  O108     1.0000 0.17880  0.40510  0.53160  Biso   1.000  O
  O109     1.0000 0.05260  0.37180  0.51440  Biso   1.000  O
  O110     1.0000 0.18220  0.30930  0.46310  Biso   1.000  O
  O111     1.0000 0.30050  0.27940  0.49090  Biso   1.000  O
  O112     1.0000 0.34510  0.29530  0.58500  Biso   1.000  O
  O113     1.0000 0.25840  0.33700  0.62080  Biso   1.000  O
  O114     1.0000 0.08740  0.38300  0.57880  Biso   1.000  O
  O115     1.0000 0.04310  0.33010  0.55920  Biso   1.000  O
  O116     1.0000 0.17270  0.26780  0.50710  Biso   1.000  O
  O117     1.0000 0.21640  0.28240  0.59980  Biso   1.000  O
  O118     1.0000 0.07830  0.28610  0.59650  Biso   1.000  O
  O119     1.0000 0.05040  0.27530  0.53300  Biso   1.000  O
  O120     1.0000 0.16440  0.24200  0.56290  Biso   1.000  O
  O121     1.0000 0.75030  0.21410  0.31100  Biso   1.000  O
  O122     1.0000 0.61870  0.22840  0.30600  Biso   1.000  O
  O123     1.0000 0.61830  0.29320  0.28990  Biso   1.000  O
  O124     1.0000 0.72670  0.27080  0.33050  Biso   1.000  O
  O125     1.0000 0.06050  0.26820  0.46970  Biso   1.000  O
  O126     1.0000 0.10780  0.25680  0.42560  Biso   1.000  O
  O127     1.0000 0.78150  0.22670  0.38100  Biso   1.000  O
  O128     1.0000 0.86330  0.23320  0.34950  Biso   1.000  O
  O129     1.0000 0.05430  0.38420  0.44420  Biso   1.000  O
  O130     1.0000 0.03930  0.33460  0.45130  Biso   1.000  O
  O131     1.0000 0.80440  0.34170  0.33710  Biso   1.000  O
  O132     1.0000 0.86460  0.30110  0.34310  Biso   1.000  O
  O133     1.0000 0.52560  0.12580  0.65540  Biso   1.000  O
  O134     1.0000 0.42170  0.10760  0.66530  Biso   1.000  O
  O135     1.0000 0.31610  0.23060  0.58220  Biso   1.000  O
  O136     1.0000 0.25260  0.21680  0.62190  Biso   1.000  O
  O137     1.0000 0.33130  0.48660  0.13700  Biso   1.000  O
  O138     1.0000 0.19810  0.47970  0.15560  Biso   1.000  O
  O139     1.0000 0.15190  0.53030  0.17920  Biso   1.000  O
  O140     1.0000 0.14830  0.57390  0.13810  Biso   1.000  O
  O141     1.0000 0.27460  0.58220  0.11850  Biso   1.000  O
  O142     1.0000 0.32120  0.53160  0.09490  Biso   1.000  O
  O143     1.0000 0.44740  0.51440  0.12820  Biso   1.000  O
  O144     1.0000 0.31780  0.46310  0.19070  Biso   1.000  O
  O145     1.0000 0.19950  0.49090  0.22060  Biso   1.000  O
  O146     1.0000 0.15490  0.58500  0.20470  Biso   1.000  O
  O147     1.0000 0.24160  0.62080  0.16300  Biso   1.000  O
  O148     1.0000 0.41260  0.57880  0.11700  Biso   1.000  O
  O149     1.0000 0.45690  0.55920  0.16990  Biso   1.000  O
  O150     1.0000 0.32730  0.50710  0.23220  Biso   1.000  O
  O151     1.0000 0.28360  0.59980  0.21760  Biso   1.000  O
  O152     1.0000 0.42170  0.59650  0.21390  Biso   1.000  O
  O153     1.0000 0.44960  0.53300  0.22470  Biso   1.000  O
  O154     1.0000 0.33560  0.56290  0.25800  Biso   1.000  O
  O155     1.0000 0.74970  0.31100  0.28590  Biso   1.000  O
  O156     1.0000 0.88130  0.30600  0.27160  Biso   1.000  O
  O157     1.0000 0.88170  0.28990  0.20680  Biso   1.000  O
  O158     1.0000 0.77330  0.33050  0.22920  Biso   1.000  O
  O159     1.0000 0.43950  0.46970  0.23180  Biso   1.000  O
  O160     1.0000 0.39220  0.42560  0.24320  Biso   1.000  O
  O161     1.0000 0.71850  0.38100  0.27330  Biso   1.000  O
  O162     1.0000 0.63670  0.34950  0.26680  Biso   1.000  O
  O163     1.0000 0.44570  0.44420  0.11580  Biso   1.000  O
  O164     1.0000 0.46070  0.45130  0.16540  Biso   1.000  O
  O165     1.0000 0.69560  0.33710  0.15830  Biso   1.000  O
  O166     1.0000 0.63540  0.34310  0.19890  Biso   1.000  O
  O167     1.0000 0.97440  0.65540  0.37420  Biso   1.000  O
  O168     1.0000 0.07830  0.66530  0.39240  Biso   1.000  O
  O169     1.0000 0.18390  0.58220  0.26940  Biso   1.000  O
  O170     1.0000 0.24740  0.62190  0.28320  Biso   1.000  O
  O171     1.0000 0.33130  0.01340  0.36300  Biso   1.000  O
  O172     1.0000 0.19810  0.02030  0.34440  Biso   1.000  O
  O173     1.0000 0.15190  0.96970  0.32080  Biso   1.000  O
  O174     1.0000 0.14830  0.92610  0.36190  Biso   1.000  O
  O175     1.0000 0.27460  0.91780  0.38150  Biso   1.000  O
  O176     1.0000 0.32120  0.96840  0.40510  Biso   1.000  O
  O177     1.0000 0.44740  0.98560  0.37180  Biso   1.000  O
  O178     1.0000 0.31780  0.03690  0.30930  Biso   1.000  O
  O179     1.0000 0.19950  0.00910  0.27940  Biso   1.000  O
  O180     1.0000 0.15490  0.91500  0.29530  Biso   1.000  O
  O181     1.0000 0.24160  0.87920  0.33700  Biso   1.000  O
  O182     1.0000 0.41260  0.92120  0.38300  Biso   1.000  O
  O183     1.0000 0.45690  0.94080  0.33010  Biso   1.000  O
  O184     1.0000 0.32730  0.99290  0.26780  Biso   1.000  O
  O185     1.0000 0.28360  0.90020  0.28240  Biso   1.000  O
  O186     1.0000 0.42170  0.90350  0.28610  Biso   1.000  O
  O187     1.0000 0.44960  0.96700  0.27530  Biso   1.000  O
  O188     1.0000 0.33560  0.93710  0.24200  Biso   1.000  O
  O189     1.0000 0.74970  0.18900  0.21410  Biso   1.000  O
  O190     1.0000 0.88130  0.19400  0.22840  Biso   1.000  O
  O191     1.0000 0.88170  0.21010  0.29320  Biso   1.000  O
  O192     1.0000 0.77330  0.16950  0.27080  Biso   1.000  O
  O193     1.0000 0.43950  0.03030  0.26820  Biso   1.000  O
  O194     1.0000 0.39220  0.07440  0.25680  Biso   1.000  O
  O195     1.0000 0.71850  0.11900  0.22670  Biso   1.000  O
  O196     1.0000 0.63670  0.15050  0.23320  Biso   1.000  O
  O197     1.0000 0.44570  0.05580  0.38420  Biso   1.000  O
  O198     1.0000 0.46070  0.04870  0.33460  Biso   1.000  O
  O199     1.0000 0.69560  0.16290  0.34170  Biso   1.000  O
  O200     1.0000 0.63540  0.15690  0.30110  Biso   1.000  O
  O201     1.0000 0.97440  0.84460  0.12580  Biso   1.000  O
  O202     1.0000 0.07830  0.83470  0.10760  Biso   1.000  O
  O203     1.0000 0.18390  0.91780  0.23060  Biso   1.000  O
  O204     1.0000 0.24740  0.87810  0.21680  Biso   1.000  O
  O205     1.0000 0.83130  0.86300  0.98660  Biso   1.000  O
  O206     1.0000 0.69810  0.84440  0.97970  Biso   1.000  O
  O207     1.0000 0.65190  0.82080  0.03030  Biso   1.000  O
  O208     1.0000 0.64830  0.86190  0.07390  Biso   1.000  O
  O209     1.0000 0.77460  0.88150  0.08220  Biso   1.000  O
  O210     1.0000 0.82120  0.90510  0.03160  Biso   1.000  O
  O211     1.0000 0.94740  0.87180  0.01440  Biso   1.000  O
  O212     1.0000 0.81780  0.80930  0.96310  Biso   1.000  O
  O213     1.0000 0.69950  0.77940  0.99090  Biso   1.000  O
  O214     1.0000 0.65490  0.79530  0.08500  Biso   1.000  O
  O215     1.0000 0.74160  0.83700  0.12080  Biso   1.000  O
  O216     1.0000 0.91260  0.88300  0.07880  Biso   1.000  O
  O217     1.0000 0.95690  0.83010  0.05920  Biso   1.000  O
  O218     1.0000 0.82730  0.76780  0.00710  Biso   1.000  O
  O219     1.0000 0.78360  0.78240  0.09980  Biso   1.000  O
  O220     1.0000 0.92170  0.78610  0.09650  Biso   1.000  O
  O221     1.0000 0.94960  0.77530  0.03300  Biso   1.000  O
  O222     1.0000 0.83560  0.74200  0.06290  Biso   1.000  O
  O223     1.0000 0.24970  0.71410  0.81100  Biso   1.000  O
  O224     1.0000 0.38130  0.72840  0.80600  Biso   1.000  O
  O225     1.0000 0.38170  0.79320  0.78990  Biso   1.000  O
  O226     1.0000 0.27330  0.77080  0.83050  Biso   1.000  O
  O227     1.0000 0.93950  0.76820  0.96970  Biso   1.000  O
  O228     1.0000 0.89220  0.75680  0.92560  Biso   1.000  O
  O229     1.0000 0.21850  0.72670  0.88100  Biso   1.000  O
  O230     1.0000 0.13670  0.73320  0.84950  Biso   1.000  O
  O231     1.0000 0.94570  0.88420  0.94420  Biso   1.000  O
  O232     1.0000 0.96070  0.83460  0.95130  Biso   1.000  O
  O233     1.0000 0.19560  0.84170  0.83710  Biso   1.000  O
  O234     1.0000 0.13540  0.80110  0.84310  Biso   1.000  O
  O235     1.0000 0.47440  0.62580  0.15540  Biso   1.000  O
  O236     1.0000 0.57830  0.60760  0.16530  Biso   1.000  O
  O237     1.0000 0.68390  0.73060  0.08220  Biso   1.000  O
  O238     1.0000 0.74740  0.71680  0.12190  Biso   1.000  O
  O239     1.0000 0.83130  0.63700  0.51340  Biso   1.000  O
  O240     1.0000 0.69810  0.65560  0.52030  Biso   1.000  O
  O241     1.0000 0.65190  0.67920  0.46970  Biso   1.000  O
  O242     1.0000 0.64830  0.63810  0.42610  Biso   1.000  O
  O243     1.0000 0.77460  0.61850  0.41780  Biso   1.000  O
  O244     1.0000 0.82120  0.59490  0.46840  Biso   1.000  O
  O245     1.0000 0.94740  0.62820  0.48560  Biso   1.000  O
  O246     1.0000 0.81780  0.69070  0.53690  Biso   1.000  O
  O247     1.0000 0.69950  0.72060  0.50910  Biso   1.000  O
  O248     1.0000 0.65490  0.70470  0.41500  Biso   1.000  O
  O249     1.0000 0.74160  0.66300  0.37920  Biso   1.000  O
  O250     1.0000 0.91260  0.61700  0.42120  Biso   1.000  O
  O251     1.0000 0.95690  0.66990  0.44080  Biso   1.000  O
  O252     1.0000 0.82730  0.73220  0.49290  Biso   1.000  O
  O253     1.0000 0.78360  0.71760  0.40020  Biso   1.000  O
  O254     1.0000 0.92170  0.71390  0.40350  Biso   1.000  O
  O255     1.0000 0.94960  0.72470  0.46700  Biso   1.000  O
  O256     1.0000 0.83560  0.75800  0.43710  Biso   1.000  O
  O257     1.0000 0.24970  0.78590  0.68900  Biso   1.000  O
  O258     1.0000 0.38130  0.77160  0.69400  Biso   1.000  O
  O259     1.0000 0.38170  0.70680  0.71010  Biso   1.000  O
  O260     1.0000 0.27330  0.72920  0.66950  Biso   1.000  O
  O261     1.0000 0.93950  0.73180  0.53030  Biso   1.000  O
  O262     1.0000 0.89220  0.74320  0.57440  Biso   1.000  O
  O263     1.0000 0.21850  0.77330  0.61900  Biso   1.000  O
  O264     1.0000 0.13670  0.76680  0.65050  Biso   1.000  O
  O265     1.0000 0.94570  0.61580  0.55580  Biso   1.000  O
  O266     1.0000 0.96070  0.66540  0.54870  Biso   1.000  O
  O267     1.0000 0.19560  0.65830  0.66290  Biso   1.000  O
  O268     1.0000 0.13540  0.69890  0.65690  Biso   1.000  O
  O269     1.0000 0.47440  0.87420  0.34460  Biso   1.000  O
  O270     1.0000 0.57830  0.89240  0.33470  Biso   1.000  O
  O271     1.0000 0.68390  0.76940  0.41780  Biso   1.000  O
  O272     1.0000 0.74740  0.78320  0.37810  Biso   1.000  O
  O273     1.0000 0.09650  0.75000  0.75000  Biso   1.000  O
  O274     1.0000 0.59650  0.25000  0.25000  Biso   1.000  O
  O275     1.0000 0.90350  0.25000  0.25000  Biso   1.000  O
  O276     1.0000 0.40350  0.75000  0.75000  Biso   1.000  O
