data_image0
_cell_length_a       37.2651
_cell_length_b       37.2651
_cell_length_c       37.2651
_cell_angle_alpha    109.471
_cell_angle_beta     109.471
_cell_angle_gamma    109.471

_symmetry_space_group_name_H-M    P 1
_symmetry_int_tables_number       1

loop_
  _symmetry_equiv_pos_as_xyz
  'x, y, z'

loop_
  _atom_site_label
  _atom_site_occupancy
  _atom_site_fract_x
  _atom_site_fract_y
  _atom_site_fract_z
  _atom_site_thermal_displace_type
  _atom_site_B_iso_or_equiv
  _atom_site_type_symbol
  Zn1      1.0000 0.49007  0.14719  0.00226  Biso   1.000  Zn
  Zn2      1.0000 0.75128  0.24002  0.24536  Biso   1.000  Zn
  Zn3      1.0000 0.64493  0.48781  0.49774  Biso   1.000  Zn
  Zn4      1.0000 0.49466  0.50592  0.25464  Biso   1.000  Zn
  Zn5      1.0000 0.85507  0.35281  0.84288  Biso   1.000  Zn
  Zn6      1.0000 0.00534  0.25998  0.01126  Biso   1.000  Zn
  Zn7      1.0000 0.00993  0.01219  0.65712  Biso   1.000  Zn
  Zn8      1.0000 0.74872  0.99408  0.48874  Biso   1.000  Zn
  Zn9      1.0000 0.34288  0.85507  0.85281  Biso   1.000  Zn
  Zn10     1.0000 0.51126  0.00534  0.75998  Biso   1.000  Zn
  Zn11     1.0000 0.15712  0.00993  0.51219  Biso   1.000  Zn
  Zn12     1.0000 0.98874  0.74872  0.49408  Biso   1.000  Zn
  Zn13     1.0000 0.50226  0.49007  0.64719  Biso   1.000  Zn
  Zn14     1.0000 0.74536  0.75128  0.74002  Biso   1.000  Zn
  Zn15     1.0000 0.99774  0.64493  0.98781  Biso   1.000  Zn
  Zn16     1.0000 0.75464  0.49466  0.00592  Biso   1.000  Zn
  Zn17     1.0000 0.48781  0.99774  0.14493  Biso   1.000  Zn
  Zn18     1.0000 0.50592  0.75464  0.99466  Biso   1.000  Zn
  Zn19     1.0000 0.14719  0.50226  0.99007  Biso   1.000  Zn
  Zn20     1.0000 0.24002  0.74536  0.25128  Biso   1.000  Zn
  Zn21     1.0000 0.01219  0.15712  0.50993  Biso   1.000  Zn
  Zn22     1.0000 0.99408  0.98874  0.24872  Biso   1.000  Zn
  Zn23     1.0000 0.35281  0.34288  0.35507  Biso   1.000  Zn
  Zn24     1.0000 0.25998  0.51126  0.50534  Biso   1.000  Zn
  Zn25     1.0000 0.50993  0.85281  0.99774  Biso   1.000  Zn
  Zn26     1.0000 0.24872  0.75998  0.75464  Biso   1.000  Zn
  Zn27     1.0000 0.35507  0.51219  0.50226  Biso   1.000  Zn
  Zn28     1.0000 0.50534  0.49408  0.74536  Biso   1.000  Zn
  Zn29     1.0000 0.14493  0.64719  0.15712  Biso   1.000  Zn
  Zn30     1.0000 0.99466  0.74002  0.98874  Biso   1.000  Zn
  Zn31     1.0000 0.99007  0.98781  0.34288  Biso   1.000  Zn
  Zn32     1.0000 0.25128  0.00592  0.51126  Biso   1.000  Zn
  Zn33     1.0000 0.65712  0.14493  0.14719  Biso   1.000  Zn
  Zn34     1.0000 0.48874  0.99466  0.24002  Biso   1.000  Zn
  Zn35     1.0000 0.84288  0.99007  0.48781  Biso   1.000  Zn
  Zn36     1.0000 0.01126  0.25128  0.50592  Biso   1.000  Zn
  Zn37     1.0000 0.49774  0.50993  0.35281  Biso   1.000  Zn
  Zn38     1.0000 0.25464  0.24872  0.25998  Biso   1.000  Zn
  Zn39     1.0000 0.00226  0.35507  0.01219  Biso   1.000  Zn
  Zn40     1.0000 0.24536  0.50534  0.99408  Biso   1.000  Zn
  Zn41     1.0000 0.51219  0.00226  0.85507  Biso   1.000  Zn
  Zn42     1.0000 0.49408  0.24536  0.00534  Biso   1.000  Zn
  Zn43     1.0000 0.85281  0.49774  0.00993  Biso   1.000  Zn
  Zn44     1.0000 0.75998  0.25464  0.74872  Biso   1.000  Zn
  Zn45     1.0000 0.98781  0.84288  0.49007  Biso   1.000  Zn
  Zn46     1.0000 0.00592  0.01126  0.75128  Biso   1.000  Zn
  Zn47     1.0000 0.64719  0.65712  0.64493  Biso   1.000  Zn
  Zn48     1.0000 0.74002  0.48874  0.49466  Biso   1.000  Zn
  Zn49     1.0000 0.74119  0.49119  0.25000  Biso   1.000  Zn
  Zn50     1.0000 0.75881  0.00881  0.75000  Biso   1.000  Zn
  Zn51     1.0000 0.25000  0.75881  0.50881  Biso   1.000  Zn
  Zn52     1.0000 0.75000  0.74119  0.99119  Biso   1.000  Zn
  Zn53     1.0000 0.49119  0.75000  0.24119  Biso   1.000  Zn
  Zn54     1.0000 0.00881  0.25000  0.25881  Biso   1.000  Zn
  Zn55     1.0000 0.25881  0.50881  0.75000  Biso   1.000  Zn
  Zn56     1.0000 0.24119  0.99119  0.25000  Biso   1.000  Zn
  Zn57     1.0000 0.75000  0.24119  0.49119  Biso   1.000  Zn
  Zn58     1.0000 0.25000  0.25881  0.00881  Biso   1.000  Zn
  Zn59     1.0000 0.50881  0.25000  0.75881  Biso   1.000  Zn
  Zn60     1.0000 0.99119  0.75000  0.74119  Biso   1.000  Zn
  Zn61     1.0000 0.00000  0.50000  0.16614  Biso   1.000  Zn
  Zn62     1.0000 1.00000  0.50000  0.26202  Biso   1.000  Zn
  Zn63     1.0000 0.83386  0.83386  0.33386  Biso   1.000  Zn
  Zn64     1.0000 0.73798  0.73798  0.23798  Biso   1.000  Zn
  Zn65     1.0000 0.66614  0.00000  0.00000  Biso   1.000  Zn
  Zn66     1.0000 0.76202  0.00000  0.00000  Biso   1.000  Zn
  Zn67     1.0000 0.50000  0.66614  0.50000  Biso   1.000  Zn
  Zn68     1.0000 0.50000  0.76202  0.50000  Biso   1.000  Zn
  Zn69     1.0000 0.00000  0.50000  0.83386  Biso   1.000  Zn
  Zn70     1.0000 0.00000  0.50000  0.73798  Biso   1.000  Zn
  Zn71     1.0000 0.16614  0.16614  0.66614  Biso   1.000  Zn
  Zn72     1.0000 0.26202  0.26202  0.76202  Biso   1.000  Zn
  Zn73     1.0000 0.33386  0.00000  0.00000  Biso   1.000  Zn
  Zn74     1.0000 0.23798  1.00000  0.00000  Biso   1.000  Zn
  Zn75     1.0000 0.50000  0.33386  0.50000  Biso   1.000  Zn
  Zn76     1.0000 0.50000  0.23798  0.50000  Biso   1.000  Zn
  H1       1.0000 0.60530  0.21100  0.10830  Biso   1.000  H
  H2       1.0000 0.61190  0.32420  0.12170  Biso   1.000  H
  H3       1.0000 0.70830  0.32530  0.21380  Biso   1.000  H
  H4       1.0000 0.77340  0.40620  0.13600  Biso   1.000  H
  H5       1.0000 0.87460  0.49470  0.22050  Biso   1.000  H
  H6       1.0000 0.63060  0.34580  0.22720  Biso   1.000  H
  H7       1.0000 0.71730  0.34540  0.13830  Biso   1.000  H
  H8       1.0000 0.86230  0.58090  0.22360  Biso   1.000  H
  H9       1.0000 0.78310  0.48960  0.11990  Biso   1.000  H
  H10      1.0000 0.89400  0.49480  0.12020  Biso   1.000  H
  H11      1.0000 0.60270  0.49700  0.39170  Biso   1.000  H
  H12      1.0000 0.70250  0.49020  0.37830  Biso   1.000  H
  H13      1.0000 0.61150  0.49450  0.28620  Biso   1.000  H
  H14      1.0000 0.77020  0.63740  0.36400  Biso   1.000  H
  H15      1.0000 0.77420  0.65410  0.27950  Biso   1.000  H
  H16      1.0000 0.61860  0.40340  0.27280  Biso   1.000  H
  H17      1.0000 0.70710  0.57900  0.36170  Biso   1.000  H
  H18      1.0000 0.85730  0.63870  0.27640  Biso   1.000  H
  H19      1.0000 0.86970  0.66320  0.38010  Biso   1.000  H
  H20      1.0000 0.87460  0.77380  0.37980  Biso   1.000  H
  H21      1.0000 0.89730  0.28900  0.89430  Biso   1.000  H
  H22      1.0000 0.79750  0.17580  0.78770  Biso   1.000  H
  H23      1.0000 0.88850  0.17470  0.88300  Biso   1.000  H
  H24      1.0000 0.72980  0.09380  0.86720  Biso   1.000  H
  H25      1.0000 0.72580  0.00530  0.87990  Biso   1.000  H
  H26      1.0000 0.88140  0.15420  0.78480  Biso   1.000  H
  H27      1.0000 0.79290  0.15460  0.87190  Biso   1.000  H
  H28      1.0000 0.64270  0.91910  0.78140  Biso   1.000  H
  H29      1.0000 0.63030  0.01040  0.79350  Biso   1.000  H
  H30      1.0000 0.62540  0.00520  0.89920  Biso   1.000  H
  H31      1.0000 0.89470  0.00300  0.60570  Biso   1.000  H
  H32      1.0000 0.88810  0.00980  0.71230  Biso   1.000  H
  H33      1.0000 0.79170  0.00550  0.61700  Biso   1.000  H
  H34      1.0000 0.72660  0.86260  0.63280  Biso   1.000  H
  H35      1.0000 0.62540  0.84590  0.62010  Biso   1.000  H
  H36      1.0000 0.86940  0.09660  0.71520  Biso   1.000  H
  H37      1.0000 0.78270  0.92100  0.62810  Biso   1.000  H
  H38      1.0000 0.63770  0.86130  0.71860  Biso   1.000  H
  H39      1.0000 0.71690  0.83680  0.70650  Biso   1.000  H
  H40      1.0000 0.60600  0.72620  0.60080  Biso   1.000  H
  H41      1.0000 0.39430  0.89730  0.78900  Biso   1.000  H
  H42      1.0000 0.28770  0.79750  0.67580  Biso   1.000  H
  H43      1.0000 0.38300  0.88850  0.67470  Biso   1.000  H
  H44      1.0000 0.36720  0.72980  0.59380  Biso   1.000  H
  H45      1.0000 0.37990  0.72580  0.50530  Biso   1.000  H
  H46      1.0000 0.28480  0.88140  0.65420  Biso   1.000  H
  H47      1.0000 0.37190  0.79290  0.65460  Biso   1.000  H
  H48      1.0000 0.28140  0.64270  0.41910  Biso   1.000  H
  H49      1.0000 0.29350  0.63030  0.51040  Biso   1.000  H
  H50      1.0000 0.39920  0.62540  0.50520  Biso   1.000  H
  H51      1.0000 0.10570  0.89470  0.50300  Biso   1.000  H
  H52      1.0000 0.21230  0.88810  0.50980  Biso   1.000  H
  H53      1.0000 0.11700  0.79170  0.50550  Biso   1.000  H
  H54      1.0000 0.13280  0.72660  0.36260  Biso   1.000  H
  H55      1.0000 0.12010  0.62540  0.34590  Biso   1.000  H
  H56      1.0000 0.21520  0.86940  0.59660  Biso   1.000  H
  H57      1.0000 0.12810  0.78270  0.42100  Biso   1.000  H
  H58      1.0000 0.21860  0.63770  0.36130  Biso   1.000  H
  H59      1.0000 0.20650  0.71690  0.33680  Biso   1.000  H
  H60      1.0000 0.10080  0.60600  0.22620  Biso   1.000  H
  H61      1.0000 0.60830  0.60530  0.71100  Biso   1.000  H
  H62      1.0000 0.62170  0.61190  0.82420  Biso   1.000  H
  H63      1.0000 0.71380  0.70830  0.82530  Biso   1.000  H
  H64      1.0000 0.63600  0.77340  0.90620  Biso   1.000  H
  H65      1.0000 0.72050  0.87460  0.99470  Biso   1.000  H
  H66      1.0000 0.72720  0.63060  0.84580  Biso   1.000  H
  H67      1.0000 0.63830  0.71730  0.84540  Biso   1.000  H
  H68      1.0000 0.72360  0.86230  0.08090  Biso   1.000  H
  H69      1.0000 0.61990  0.78310  0.98960  Biso   1.000  H
  H70      1.0000 0.62020  0.89400  0.99480  Biso   1.000  H
  H71      1.0000 0.89170  0.60270  0.99700  Biso   1.000  H
  H72      1.0000 0.87830  0.70250  0.99020  Biso   1.000  H
  H73      1.0000 0.78620  0.61150  0.99450  Biso   1.000  H
  H74      1.0000 0.86400  0.77020  0.13740  Biso   1.000  H
  H75      1.0000 0.77950  0.77420  0.15410  Biso   1.000  H
  H76      1.0000 0.77280  0.61860  0.90340  Biso   1.000  H
  H77      1.0000 0.86170  0.70710  0.07900  Biso   1.000  H
  H78      1.0000 0.77640  0.85730  0.13870  Biso   1.000  H
  H79      1.0000 0.88010  0.86970  0.16320  Biso   1.000  H
  H80      1.0000 0.87980  0.87460  0.27380  Biso   1.000  H
  H81      1.0000 0.49700  0.89170  0.10270  Biso   1.000  H
  H82      1.0000 0.49020  0.87830  0.20250  Biso   1.000  H
  H83      1.0000 0.49450  0.78620  0.11150  Biso   1.000  H
  H84      1.0000 0.63740  0.86400  0.27020  Biso   1.000  H
  H85      1.0000 0.65410  0.77950  0.27420  Biso   1.000  H
  H86      1.0000 0.40340  0.77280  0.11860  Biso   1.000  H
  H87      1.0000 0.57900  0.86170  0.20710  Biso   1.000  H
  H88      1.0000 0.63870  0.77640  0.35730  Biso   1.000  H
  H89      1.0000 0.66320  0.88010  0.36970  Biso   1.000  H
  H90      1.0000 0.77380  0.87980  0.37460  Biso   1.000  H
  H91      1.0000 0.21100  0.60830  0.10530  Biso   1.000  H
  H92      1.0000 0.32420  0.62170  0.11190  Biso   1.000  H
  H93      1.0000 0.32530  0.71380  0.20830  Biso   1.000  H
  H94      1.0000 0.40620  0.63600  0.27340  Biso   1.000  H
  H95      1.0000 0.49470  0.72050  0.37460  Biso   1.000  H
  H96      1.0000 0.34580  0.72720  0.13060  Biso   1.000  H
  H97      1.0000 0.34540  0.63830  0.21730  Biso   1.000  H
  H98      1.0000 0.58090  0.72360  0.36230  Biso   1.000  H
  H99      1.0000 0.48960  0.61990  0.28310  Biso   1.000  H
  H100     1.0000 0.49480  0.62020  0.39400  Biso   1.000  H
  H101     1.0000 0.00300  0.10570  0.39470  Biso   1.000  H
  H102     1.0000 0.00980  0.21230  0.38810  Biso   1.000  H
  H103     1.0000 0.00550  0.11700  0.29170  Biso   1.000  H
  H104     1.0000 0.86260  0.13280  0.22660  Biso   1.000  H
  H105     1.0000 0.84590  0.12010  0.12540  Biso   1.000  H
  H106     1.0000 0.09660  0.21520  0.36940  Biso   1.000  H
  H107     1.0000 0.92100  0.12810  0.28270  Biso   1.000  H
  H108     1.0000 0.86130  0.21860  0.13770  Biso   1.000  H
  H109     1.0000 0.83680  0.20650  0.21690  Biso   1.000  H
  H110     1.0000 0.72620  0.10080  0.10600  Biso   1.000  H
  H111     1.0000 0.28900  0.39430  0.39730  Biso   1.000  H
  H112     1.0000 0.17580  0.28770  0.29750  Biso   1.000  H
  H113     1.0000 0.17470  0.38300  0.38850  Biso   1.000  H
  H114     1.0000 0.09380  0.36720  0.22980  Biso   1.000  H
  H115     1.0000 0.00530  0.37990  0.22580  Biso   1.000  H
  H116     1.0000 0.15420  0.28480  0.38140  Biso   1.000  H
  H117     1.0000 0.15460  0.37190  0.29290  Biso   1.000  H
  H118     1.0000 0.91910  0.28140  0.14270  Biso   1.000  H
  H119     1.0000 0.01040  0.29350  0.13030  Biso   1.000  H
  H120     1.0000 0.00520  0.39920  0.12540  Biso   1.000  H
  H121     1.0000 0.39470  0.78900  0.89170  Biso   1.000  H
  H122     1.0000 0.38810  0.67580  0.87830  Biso   1.000  H
  H123     1.0000 0.29170  0.67470  0.78620  Biso   1.000  H
  H124     1.0000 0.22660  0.59380  0.86400  Biso   1.000  H
  H125     1.0000 0.12540  0.50530  0.77950  Biso   1.000  H
  H126     1.0000 0.36940  0.65420  0.77280  Biso   1.000  H
  H127     1.0000 0.28270  0.65460  0.86170  Biso   1.000  H
  H128     1.0000 0.13770  0.41910  0.77640  Biso   1.000  H
  H129     1.0000 0.21690  0.51040  0.88010  Biso   1.000  H
  H130     1.0000 0.10600  0.50520  0.87980  Biso   1.000  H
  H131     1.0000 0.39730  0.50300  0.60830  Biso   1.000  H
  H132     1.0000 0.29750  0.50980  0.62170  Biso   1.000  H
  H133     1.0000 0.38850  0.50550  0.71380  Biso   1.000  H
  H134     1.0000 0.22980  0.36260  0.63600  Biso   1.000  H
  H135     1.0000 0.22580  0.34590  0.72050  Biso   1.000  H
  H136     1.0000 0.38140  0.59660  0.72720  Biso   1.000  H
  H137     1.0000 0.29290  0.42100  0.63830  Biso   1.000  H
  H138     1.0000 0.14270  0.36130  0.72360  Biso   1.000  H
  H139     1.0000 0.13030  0.33680  0.61990  Biso   1.000  H
  H140     1.0000 0.12540  0.22620  0.62020  Biso   1.000  H
  H141     1.0000 0.10270  0.71100  0.10570  Biso   1.000  H
  H142     1.0000 0.20250  0.82420  0.21230  Biso   1.000  H
  H143     1.0000 0.11150  0.82530  0.11700  Biso   1.000  H
  H144     1.0000 0.27020  0.90620  0.13280  Biso   1.000  H
  H145     1.0000 0.27420  0.99470  0.12010  Biso   1.000  H
  H146     1.0000 0.11860  0.84580  0.21520  Biso   1.000  H
  H147     1.0000 0.20710  0.84540  0.12810  Biso   1.000  H
  H148     1.0000 0.35730  0.08090  0.21860  Biso   1.000  H
  H149     1.0000 0.36970  0.98960  0.20650  Biso   1.000  H
  H150     1.0000 0.37460  0.99480  0.10080  Biso   1.000  H
  H151     1.0000 0.10530  0.99700  0.39430  Biso   1.000  H
  H152     1.0000 0.11190  0.99020  0.28770  Biso   1.000  H
  H153     1.0000 0.20830  0.99450  0.38300  Biso   1.000  H
  H154     1.0000 0.27340  0.13740  0.36720  Biso   1.000  H
  H155     1.0000 0.37460  0.15410  0.37990  Biso   1.000  H
  H156     1.0000 0.13060  0.90340  0.28480  Biso   1.000  H
  H157     1.0000 0.21730  0.07900  0.37190  Biso   1.000  H
  H158     1.0000 0.36230  0.13870  0.28140  Biso   1.000  H
  H159     1.0000 0.28310  0.16320  0.29350  Biso   1.000  H
  H160     1.0000 0.39400  0.27380  0.39920  Biso   1.000  H
  H161     1.0000 0.60570  0.10270  0.21100  Biso   1.000  H
  H162     1.0000 0.71230  0.20250  0.32420  Biso   1.000  H
  H163     1.0000 0.61700  0.11150  0.32530  Biso   1.000  H
  H164     1.0000 0.63280  0.27020  0.40620  Biso   1.000  H
  H165     1.0000 0.62010  0.27420  0.49470  Biso   1.000  H
  H166     1.0000 0.71520  0.11860  0.34580  Biso   1.000  H
  H167     1.0000 0.62810  0.20710  0.34540  Biso   1.000  H
  H168     1.0000 0.71860  0.35730  0.58090  Biso   1.000  H
  H169     1.0000 0.70650  0.36970  0.48960  Biso   1.000  H
  H170     1.0000 0.60080  0.37460  0.49480  Biso   1.000  H
  H171     1.0000 0.89430  0.10530  0.49700  Biso   1.000  H
  H172     1.0000 0.78770  0.11190  0.49020  Biso   1.000  H
  H173     1.0000 0.88300  0.20830  0.49450  Biso   1.000  H
  H174     1.0000 0.86720  0.27340  0.63740  Biso   1.000  H
  H175     1.0000 0.87990  0.37460  0.65410  Biso   1.000  H
  H176     1.0000 0.78480  0.13060  0.40340  Biso   1.000  H
  H177     1.0000 0.87190  0.21730  0.57900  Biso   1.000  H
  H178     1.0000 0.78140  0.36230  0.63870  Biso   1.000  H
  H179     1.0000 0.79350  0.28310  0.66320  Biso   1.000  H
  H180     1.0000 0.89920  0.39400  0.77380  Biso   1.000  H
  H181     1.0000 0.39170  0.39470  0.28900  Biso   1.000  H
  H182     1.0000 0.37830  0.38810  0.17580  Biso   1.000  H
  H183     1.0000 0.28620  0.29170  0.17470  Biso   1.000  H
  H184     1.0000 0.36400  0.22660  0.09380  Biso   1.000  H
  H185     1.0000 0.27950  0.12540  0.00530  Biso   1.000  H
  H186     1.0000 0.27280  0.36940  0.15420  Biso   1.000  H
  H187     1.0000 0.36170  0.28270  0.15460  Biso   1.000  H
  H188     1.0000 0.27640  0.13770  0.91910  Biso   1.000  H
  H189     1.0000 0.38010  0.21690  0.01040  Biso   1.000  H
  H190     1.0000 0.37980  0.10600  0.00520  Biso   1.000  H
  H191     1.0000 0.10830  0.39730  0.00300  Biso   1.000  H
  H192     1.0000 0.12170  0.29750  0.00980  Biso   1.000  H
  H193     1.0000 0.21380  0.38850  0.00550  Biso   1.000  H
  H194     1.0000 0.13600  0.22980  0.86260  Biso   1.000  H
  H195     1.0000 0.22050  0.22580  0.84590  Biso   1.000  H
  H196     1.0000 0.22720  0.38140  0.09660  Biso   1.000  H
  H197     1.0000 0.13830  0.29290  0.92100  Biso   1.000  H
  H198     1.0000 0.22360  0.14270  0.86130  Biso   1.000  H
  H199     1.0000 0.11990  0.13030  0.83680  Biso   1.000  H
  H200     1.0000 0.12020  0.12540  0.72620  Biso   1.000  H
  H201     1.0000 0.50300  0.10830  0.89730  Biso   1.000  H
  H202     1.0000 0.50980  0.12170  0.79750  Biso   1.000  H
  H203     1.0000 0.50550  0.21380  0.88850  Biso   1.000  H
  H204     1.0000 0.36260  0.13600  0.72980  Biso   1.000  H
  H205     1.0000 0.34590  0.22050  0.72580  Biso   1.000  H
  H206     1.0000 0.59660  0.22720  0.88140  Biso   1.000  H
  H207     1.0000 0.42100  0.13830  0.79290  Biso   1.000  H
  H208     1.0000 0.36130  0.22360  0.64270  Biso   1.000  H
  H209     1.0000 0.33680  0.11990  0.63030  Biso   1.000  H
  H210     1.0000 0.22620  0.12020  0.62540  Biso   1.000  H
  H211     1.0000 0.78900  0.39170  0.89470  Biso   1.000  H
  H212     1.0000 0.67580  0.37830  0.88810  Biso   1.000  H
  H213     1.0000 0.67470  0.28620  0.79170  Biso   1.000  H
  H214     1.0000 0.59380  0.36400  0.72660  Biso   1.000  H
  H215     1.0000 0.50530  0.27950  0.62540  Biso   1.000  H
  H216     1.0000 0.65420  0.27280  0.86940  Biso   1.000  H
  H217     1.0000 0.65460  0.36170  0.78270  Biso   1.000  H
  H218     1.0000 0.41910  0.27640  0.63770  Biso   1.000  H
  H219     1.0000 0.51040  0.38010  0.71690  Biso   1.000  H
  H220     1.0000 0.50520  0.37980  0.60600  Biso   1.000  H
  H221     1.0000 0.99700  0.89430  0.60530  Biso   1.000  H
  H222     1.0000 0.99020  0.78770  0.61190  Biso   1.000  H
  H223     1.0000 0.99450  0.88300  0.70830  Biso   1.000  H
  H224     1.0000 0.13740  0.86720  0.77340  Biso   1.000  H
  H225     1.0000 0.15410  0.87990  0.87460  Biso   1.000  H
  H226     1.0000 0.90340  0.78480  0.63060  Biso   1.000  H
  H227     1.0000 0.07900  0.87190  0.71730  Biso   1.000  H
  H228     1.0000 0.13870  0.78140  0.86230  Biso   1.000  H
  H229     1.0000 0.16320  0.79350  0.78310  Biso   1.000  H
  H230     1.0000 0.27380  0.89920  0.89400  Biso   1.000  H
  H231     1.0000 0.71100  0.60570  0.60270  Biso   1.000  H
  H232     1.0000 0.82420  0.71230  0.70250  Biso   1.000  H
  H233     1.0000 0.82530  0.61700  0.61150  Biso   1.000  H
  H234     1.0000 0.90620  0.63280  0.77020  Biso   1.000  H
  H235     1.0000 0.99470  0.62010  0.77420  Biso   1.000  H
  H236     1.0000 0.84580  0.71520  0.61860  Biso   1.000  H
  H237     1.0000 0.84540  0.62810  0.70710  Biso   1.000  H
  H238     1.0000 0.08090  0.71860  0.85730  Biso   1.000  H
  H239     1.0000 0.98960  0.70650  0.86970  Biso   1.000  H
  H240     1.0000 0.99480  0.60080  0.87460  Biso   1.000  H
  C1       1.0000 0.66030  0.26340  0.16230  Biso   1.000  C
  C2       1.0000 0.62010  0.24220  0.12470  Biso   1.000  C
  C3       1.0000 0.62330  0.30820  0.13230  Biso   1.000  C
  C4       1.0000 0.66090  0.32820  0.16890  Biso   1.000  C
  C5       1.0000 0.68140  0.30870  0.18670  Biso   1.000  C
  C6       1.0000 0.68510  0.37780  0.19470  Biso   1.000  C
  C7       1.0000 0.67920  0.39980  0.22880  Biso   1.000  C
  C8       1.0000 0.68150  0.23810  0.17440  Biso   1.000  C
  C9       1.0000 0.71900  0.39910  0.18790  Biso   1.000  C
  C10      1.0000 0.76080  0.41000  0.15440  Biso   1.000  C
  C11      1.0000 0.76990  0.45170  0.18760  Biso   1.000  C
  C12      1.0000 0.80040  0.49180  0.19740  Biso   1.000  C
  C13      1.0000 0.80890  0.53100  0.22690  Biso   1.000  C
  C14      1.0000 0.86490  0.49410  0.19320  Biso   1.000  C
  C15      1.0000 0.64530  0.37630  0.23720  Biso   1.000  C
  C16      1.0000 0.72920  0.37610  0.15510  Biso   1.000  C
  C17      1.0000 0.82450  0.49060  0.17250  Biso   1.000  C
  C18      1.0000 0.84360  0.57660  0.23580  Biso   1.000  C
  C19      1.0000 0.81030  0.49080  0.13350  Biso   1.000  C
  C20      1.0000 0.89080  0.49670  0.17450  Biso   1.000  C
  C21      1.0000 0.87680  0.49490  0.13410  Biso   1.000  C
  C22      1.0000 0.83670  0.49300  0.11450  Biso   1.000  C
  C23      1.0000 0.60060  0.26210  0.10950  Biso   1.000  C
  C24      1.0000 0.55630  0.23790  0.06940  Biso   1.000  C
  C25      1.0000 0.82260  0.49560  0.07300  Biso   1.000  C
  C26      1.0000 0.93620  0.50300  0.19720  Biso   1.000  C
  C27      1.0000 0.60110  0.49800  0.33770  Biso   1.000  C
  C28      1.0000 0.61750  0.49540  0.37530  Biso   1.000  C
  C29      1.0000 0.67590  0.49100  0.36770  Biso   1.000  C
  C30      1.0000 0.65930  0.49200  0.33110  Biso   1.000  C
  C31      1.0000 0.62200  0.49470  0.31330  Biso   1.000  C
  C32      1.0000 0.68310  0.49040  0.30530  Biso   1.000  C
  C33      1.0000 0.67100  0.45040  0.27120  Biso   1.000  C
  C34      1.0000 0.56370  0.50710  0.32560  Biso   1.000  C
  C35      1.0000 0.71120  0.53110  0.31210  Biso   1.000  C
  C36      1.0000 0.75560  0.60640  0.34560  Biso   1.000  C
  C37      1.0000 0.76410  0.58230  0.31240  Biso   1.000  C
  C38      1.0000 0.79440  0.60300  0.30260  Biso   1.000  C
  C39      1.0000 0.80410  0.58200  0.27310  Biso   1.000  C
  C40      1.0000 0.80090  0.67170  0.30680  Biso   1.000  C
  C41      1.0000 0.63910  0.40810  0.26280  Biso   1.000  C
  C42      1.0000 0.72100  0.57410  0.34490  Biso   1.000  C
  C43      1.0000 0.81810  0.65200  0.32750  Biso   1.000  C
  C44      1.0000 0.84080  0.60780  0.26420  Biso   1.000  C
  C45      1.0000 0.85730  0.67680  0.36650  Biso   1.000  C
  C46      1.0000 0.82220  0.71630  0.32550  Biso   1.000  C
  C47      1.0000 0.86080  0.74270  0.36590  Biso   1.000  C
  C48      1.0000 0.87850  0.72220  0.38550  Biso   1.000  C
  C49      1.0000 0.65260  0.49110  0.39050  Biso   1.000  C
  C50      1.0000 0.66850  0.48690  0.43060  Biso   1.000  C
  C51      1.0000 0.92260  0.74960  0.42700  Biso   1.000  C
  C52      1.0000 0.80580  0.73900  0.30280  Biso   1.000  C
  C53      1.0000 0.89890  0.23660  0.89690  Biso   1.000  C
  C54      1.0000 0.88250  0.25780  0.87790  Biso   1.000  C
  C55      1.0000 0.82410  0.19180  0.81510  Biso   1.000  C
  C56      1.0000 0.84070  0.17180  0.83270  Biso   1.000  C
  C57      1.0000 0.87800  0.19130  0.87270  Biso   1.000  C
  C58      1.0000 0.81690  0.12220  0.80730  Biso   1.000  C
  C59      1.0000 0.82900  0.10020  0.77940  Biso   1.000  C
  C60      1.0000 0.93630  0.26190  0.94340  Biso   1.000  C
  C61      1.0000 0.78880  0.10090  0.81990  Biso   1.000  C
  C62      1.0000 0.74440  0.09000  0.85080  Biso   1.000  C
  C63      1.0000 0.73590  0.04830  0.81820  Biso   1.000  C
  C64      1.0000 0.70560  0.00820  0.80860  Biso   1.000  C
  C65      1.0000 0.69590  0.96900  0.77790  Biso   1.000  C
  C66      1.0000 0.69910  0.00590  0.87080  Biso   1.000  C
  C67      1.0000 0.86090  0.12370  0.76900  Biso   1.000  C
  C68      1.0000 0.77900  0.12390  0.85310  Biso   1.000  C
  C69      1.0000 0.68190  0.00940  0.83390  Biso   1.000  C
  C70      1.0000 0.65920  0.92340  0.76700  Biso   1.000  C
  C71      1.0000 0.64270  0.00920  0.81950  Biso   1.000  C
  C72      1.0000 0.67780  0.00330  0.89410  Biso   1.000  C
  C73      1.0000 0.63920  0.00510  0.88190  Biso   1.000  C
  C74      1.0000 0.62150  0.00700  0.84370  Biso   1.000  C
  C75      1.0000 0.84740  0.23790  0.83850  Biso   1.000  C
  C76      1.0000 0.83150  0.26210  0.81840  Biso   1.000  C
  C77      1.0000 0.57740  0.00440  0.82700  Biso   1.000  C
  C78      1.0000 0.69420  0.99700  0.93320  Biso   1.000  C
  C79      1.0000 0.83970  0.00200  0.60310  Biso   1.000  C
  C80      1.0000 0.87990  0.00460  0.62210  Biso   1.000  C
  C81      1.0000 0.87670  0.00900  0.68490  Biso   1.000  C
  C82      1.0000 0.83910  0.00800  0.66730  Biso   1.000  C
  C83      1.0000 0.81860  0.00530  0.62730  Biso   1.000  C
  C84      1.0000 0.81490  0.00960  0.69270  Biso   1.000  C
  C85      1.0000 0.82080  0.04960  0.72060  Biso   1.000  C
  C86      1.0000 0.81850  0.99290  0.55660  Biso   1.000  C
  C87      1.0000 0.78100  0.96890  0.68010  Biso   1.000  C
  C88      1.0000 0.73920  0.89360  0.64920  Biso   1.000  C
  C89      1.0000 0.73010  0.91770  0.68180  Biso   1.000  C
  C90      1.0000 0.69960  0.89700  0.69140  Biso   1.000  C
  C91      1.0000 0.69110  0.91800  0.72210  Biso   1.000  C
  C92      1.0000 0.63510  0.82830  0.62920  Biso   1.000  C
  C93      1.0000 0.85470  0.09190  0.73100  Biso   1.000  C
  C94      1.0000 0.77080  0.92590  0.64690  Biso   1.000  C
  C95      1.0000 0.67550  0.84800  0.66610  Biso   1.000  C
  C96      1.0000 0.65640  0.89220  0.73300  Biso   1.000  C
  C97      1.0000 0.68970  0.82320  0.68050  Biso   1.000  C
  C98      1.0000 0.60920  0.78370  0.60590  Biso   1.000  C
  C99      1.0000 0.62320  0.75730  0.61810  Biso   1.000  C
  C100     1.0000 0.66330  0.77780  0.65630  Biso   1.000  C
  C101     1.0000 0.89940  0.00890  0.66150  Biso   1.000  C
  C102     1.0000 0.94370  0.01310  0.68160  Biso   1.000  C
  C103     1.0000 0.67740  0.75040  0.67300  Biso   1.000  C
  C104     1.0000 0.56380  0.76100  0.56680  Biso   1.000  C
  C105     1.0000 0.39690  0.89890  0.73660  Biso   1.000  C
  C106     1.0000 0.37790  0.88250  0.75780  Biso   1.000  C
  C107     1.0000 0.31510  0.82410  0.69180  Biso   1.000  C
  C108     1.0000 0.33270  0.84070  0.67180  Biso   1.000  C
  C109     1.0000 0.37270  0.87800  0.69130  Biso   1.000  C
  C110     1.0000 0.30730  0.81690  0.62220  Biso   1.000  C
  C111     1.0000 0.27940  0.82900  0.60020  Biso   1.000  C
  C112     1.0000 0.44340  0.93630  0.76190  Biso   1.000  C
  C113     1.0000 0.31990  0.78880  0.60090  Biso   1.000  C
  C114     1.0000 0.35080  0.74440  0.59000  Biso   1.000  C
  C115     1.0000 0.31820  0.73590  0.54830  Biso   1.000  C
  C116     1.0000 0.30860  0.70560  0.50820  Biso   1.000  C
  C117     1.0000 0.27790  0.69590  0.46900  Biso   1.000  C
  C118     1.0000 0.37080  0.69910  0.50590  Biso   1.000  C
  C119     1.0000 0.26900  0.86090  0.62370  Biso   1.000  C
  C120     1.0000 0.35310  0.77900  0.62390  Biso   1.000  C
  C121     1.0000 0.33390  0.68190  0.50940  Biso   1.000  C
  C122     1.0000 0.26700  0.65920  0.42340  Biso   1.000  C
  C123     1.0000 0.31950  0.64270  0.50920  Biso   1.000  C
  C124     1.0000 0.39410  0.67780  0.50330  Biso   1.000  C
  C125     1.0000 0.38190  0.63920  0.50510  Biso   1.000  C
  C126     1.0000 0.34370  0.62150  0.50700  Biso   1.000  C
  C127     1.0000 0.33850  0.84740  0.73790  Biso   1.000  C
  C128     1.0000 0.31840  0.83150  0.76210  Biso   1.000  C
  C129     1.0000 0.32700  0.57740  0.50440  Biso   1.000  C
  C130     1.0000 0.43320  0.69420  0.49700  Biso   1.000  C
  C131     1.0000 0.10310  0.83970  0.50200  Biso   1.000  C
  C132     1.0000 0.12210  0.87990  0.50460  Biso   1.000  C
  C133     1.0000 0.18490  0.87670  0.50900  Biso   1.000  C
  C134     1.0000 0.16730  0.83910  0.50800  Biso   1.000  C
  C135     1.0000 0.12730  0.81860  0.50530  Biso   1.000  C
  C136     1.0000 0.19270  0.81490  0.50960  Biso   1.000  C
  C137     1.0000 0.22060  0.82080  0.54960  Biso   1.000  C
  C138     1.0000 0.05660  0.81850  0.49290  Biso   1.000  C
  C139     1.0000 0.18010  0.78100  0.46890  Biso   1.000  C
  C140     1.0000 0.14920  0.73920  0.39360  Biso   1.000  C
  C141     1.0000 0.18180  0.73010  0.41770  Biso   1.000  C
  C142     1.0000 0.19140  0.69960  0.39700  Biso   1.000  C
  C143     1.0000 0.22210  0.69110  0.41800  Biso   1.000  C
  C144     1.0000 0.12920  0.63510  0.32830  Biso   1.000  C
  C145     1.0000 0.23100  0.85470  0.59190  Biso   1.000  C
  C146     1.0000 0.14690  0.77080  0.42590  Biso   1.000  C
  C147     1.0000 0.16610  0.67550  0.34800  Biso   1.000  C
  C148     1.0000 0.23300  0.65640  0.39220  Biso   1.000  C
  C149     1.0000 0.18050  0.68970  0.32320  Biso   1.000  C
  C150     1.0000 0.10590  0.60920  0.28370  Biso   1.000  C
  C151     1.0000 0.11810  0.62320  0.25730  Biso   1.000  C
  C152     1.0000 0.15630  0.66330  0.27780  Biso   1.000  C
  C153     1.0000 0.16150  0.89940  0.50890  Biso   1.000  C
  C154     1.0000 0.18160  0.94370  0.51310  Biso   1.000  C
  C155     1.0000 0.17300  0.67740  0.25040  Biso   1.000  C
  C156     1.0000 0.06680  0.56380  0.26100  Biso   1.000  C
  C157     1.0000 0.66230  0.66030  0.76340  Biso   1.000  C
  C158     1.0000 0.62470  0.62010  0.74220  Biso   1.000  C
  C159     1.0000 0.63230  0.62330  0.80820  Biso   1.000  C
  C160     1.0000 0.66890  0.66090  0.82820  Biso   1.000  C
  C161     1.0000 0.68670  0.68140  0.80870  Biso   1.000  C
  C162     1.0000 0.69470  0.68510  0.87780  Biso   1.000  C
  C163     1.0000 0.72880  0.67920  0.89980  Biso   1.000  C
  C164     1.0000 0.67440  0.68150  0.73810  Biso   1.000  C
  C165     1.0000 0.68790  0.71900  0.89910  Biso   1.000  C
  C166     1.0000 0.65440  0.76080  0.91000  Biso   1.000  C
  C167     1.0000 0.68760  0.76990  0.95170  Biso   1.000  C
  C168     1.0000 0.69740  0.80040  0.99180  Biso   1.000  C
  C169     1.0000 0.72690  0.80890  0.03100  Biso   1.000  C
  C170     1.0000 0.69320  0.86490  0.99410  Biso   1.000  C
  C171     1.0000 0.73720  0.64530  0.87630  Biso   1.000  C
  C172     1.0000 0.65510  0.72920  0.87610  Biso   1.000  C
  C173     1.0000 0.67250  0.82450  0.99060  Biso   1.000  C
  C174     1.0000 0.73580  0.84360  0.07660  Biso   1.000  C
  C175     1.0000 0.63350  0.81030  0.99080  Biso   1.000  C
  C176     1.0000 0.67450  0.89080  0.99670  Biso   1.000  C
  C177     1.0000 0.63410  0.87680  0.99490  Biso   1.000  C
  C178     1.0000 0.61450  0.83670  0.99300  Biso   1.000  C
  C179     1.0000 0.60950  0.60060  0.76210  Biso   1.000  C
  C180     1.0000 0.56940  0.55630  0.73790  Biso   1.000  C
  C181     1.0000 0.57300  0.82260  0.99560  Biso   1.000  C
  C182     1.0000 0.69720  0.93620  0.00300  Biso   1.000  C
  C183     1.0000 0.83770  0.60110  0.99800  Biso   1.000  C
  C184     1.0000 0.87530  0.61750  0.99540  Biso   1.000  C
  C185     1.0000 0.86770  0.67590  0.99100  Biso   1.000  C
  C186     1.0000 0.83110  0.65930  0.99200  Biso   1.000  C
  C187     1.0000 0.81330  0.62200  0.99470  Biso   1.000  C
  C188     1.0000 0.80530  0.68310  0.99040  Biso   1.000  C
  C189     1.0000 0.77120  0.67100  0.95040  Biso   1.000  C
  C190     1.0000 0.82560  0.56370  0.00710  Biso   1.000  C
  C191     1.0000 0.81210  0.71120  0.03110  Biso   1.000  C
  C192     1.0000 0.84560  0.75560  0.10640  Biso   1.000  C
  C193     1.0000 0.81240  0.76410  0.08230  Biso   1.000  C
  C194     1.0000 0.80260  0.79440  0.10300  Biso   1.000  C
  C195     1.0000 0.77310  0.80410  0.08200  Biso   1.000  C
  C196     1.0000 0.80680  0.80090  0.17170  Biso   1.000  C
  C197     1.0000 0.76280  0.63910  0.90810  Biso   1.000  C
  C198     1.0000 0.84490  0.72100  0.07410  Biso   1.000  C
  C199     1.0000 0.82750  0.81810  0.15200  Biso   1.000  C
  C200     1.0000 0.76420  0.84080  0.10780  Biso   1.000  C
  C201     1.0000 0.86650  0.85730  0.17680  Biso   1.000  C
  C202     1.0000 0.82550  0.82220  0.21630  Biso   1.000  C
  C203     1.0000 0.86590  0.86080  0.24270  Biso   1.000  C
  C204     1.0000 0.88550  0.87850  0.22220  Biso   1.000  C
  C205     1.0000 0.89050  0.65260  0.99110  Biso   1.000  C
  C206     1.0000 0.93060  0.66850  0.98690  Biso   1.000  C
  C207     1.0000 0.92700  0.92260  0.24960  Biso   1.000  C
  C208     1.0000 0.80280  0.80580  0.23900  Biso   1.000  C
  C209     1.0000 0.49800  0.83770  0.10110  Biso   1.000  C
  C210     1.0000 0.49540  0.87530  0.11750  Biso   1.000  C
  C211     1.0000 0.49100  0.86770  0.17590  Biso   1.000  C
  C212     1.0000 0.49200  0.83110  0.15930  Biso   1.000  C
  C213     1.0000 0.49470  0.81330  0.12200  Biso   1.000  C
  C214     1.0000 0.49040  0.80530  0.18310  Biso   1.000  C
  C215     1.0000 0.45040  0.77120  0.17100  Biso   1.000  C
  C216     1.0000 0.50710  0.82560  0.06370  Biso   1.000  C
  C217     1.0000 0.53110  0.81210  0.21120  Biso   1.000  C
  C218     1.0000 0.60640  0.84560  0.25560  Biso   1.000  C
  C219     1.0000 0.58230  0.81240  0.26410  Biso   1.000  C
  C220     1.0000 0.60300  0.80260  0.29440  Biso   1.000  C
  C221     1.0000 0.58200  0.77310  0.30410  Biso   1.000  C
  C222     1.0000 0.67170  0.80680  0.30090  Biso   1.000  C
  C223     1.0000 0.40810  0.76280  0.13910  Biso   1.000  C
  C224     1.0000 0.57410  0.84490  0.22100  Biso   1.000  C
  C225     1.0000 0.65200  0.82750  0.31810  Biso   1.000  C
  C226     1.0000 0.60780  0.76420  0.34080  Biso   1.000  C
  C227     1.0000 0.67680  0.86650  0.35730  Biso   1.000  C
  C228     1.0000 0.71630  0.82550  0.32220  Biso   1.000  C
  C229     1.0000 0.74270  0.86590  0.36080  Biso   1.000  C
  C230     1.0000 0.72220  0.88550  0.37850  Biso   1.000  C
  C231     1.0000 0.49110  0.89050  0.15260  Biso   1.000  C
  C232     1.0000 0.48690  0.93060  0.16850  Biso   1.000  C
  C233     1.0000 0.74960  0.92700  0.42260  Biso   1.000  C
  C234     1.0000 0.73900  0.80280  0.30580  Biso   1.000  C
  C235     1.0000 0.26340  0.66230  0.16030  Biso   1.000  C
  C236     1.0000 0.24220  0.62470  0.12010  Biso   1.000  C
  C237     1.0000 0.30820  0.63230  0.12330  Biso   1.000  C
  C238     1.0000 0.32820  0.66890  0.16090  Biso   1.000  C
  C239     1.0000 0.30870  0.68670  0.18140  Biso   1.000  C
  C240     1.0000 0.37780  0.69470  0.18510  Biso   1.000  C
  C241     1.0000 0.39980  0.72880  0.17920  Biso   1.000  C
  C242     1.0000 0.23810  0.67440  0.18150  Biso   1.000  C
  C243     1.0000 0.39910  0.68790  0.21900  Biso   1.000  C
  C244     1.0000 0.41000  0.65440  0.26080  Biso   1.000  C
  C245     1.0000 0.45170  0.68760  0.26990  Biso   1.000  C
  C246     1.0000 0.49180  0.69740  0.30040  Biso   1.000  C
  C247     1.0000 0.53100  0.72690  0.30890  Biso   1.000  C
  C248     1.0000 0.49410  0.69320  0.36490  Biso   1.000  C
  C249     1.0000 0.37630  0.73720  0.14530  Biso   1.000  C
  C250     1.0000 0.37610  0.65510  0.22920  Biso   1.000  C
  C251     1.0000 0.49060  0.67250  0.32450  Biso   1.000  C
  C252     1.0000 0.57660  0.73580  0.34360  Biso   1.000  C
  C253     1.0000 0.49080  0.63350  0.31030  Biso   1.000  C
  C254     1.0000 0.49670  0.67450  0.39080  Biso   1.000  C
  C255     1.0000 0.49490  0.63410  0.37680  Biso   1.000  C
  C256     1.0000 0.49300  0.61450  0.33670  Biso   1.000  C
  C257     1.0000 0.26210  0.60950  0.10060  Biso   1.000  C
  C258     1.0000 0.23790  0.56940  0.05630  Biso   1.000  C
  C259     1.0000 0.49560  0.57300  0.32260  Biso   1.000  C
  C260     1.0000 0.50300  0.69720  0.43620  Biso   1.000  C
  C261     1.0000 0.00200  0.10310  0.33970  Biso   1.000  C
  C262     1.0000 0.00460  0.12210  0.37990  Biso   1.000  C
  C263     1.0000 0.00900  0.18490  0.37670  Biso   1.000  C
  C264     1.0000 0.00800  0.16730  0.33910  Biso   1.000  C
  C265     1.0000 0.00530  0.12730  0.31860  Biso   1.000  C
  C266     1.0000 0.00960  0.19270  0.31490  Biso   1.000  C
  C267     1.0000 0.04960  0.22060  0.32080  Biso   1.000  C
  C268     1.0000 0.99290  0.05660  0.31850  Biso   1.000  C
  C269     1.0000 0.96890  0.18010  0.28100  Biso   1.000  C
  C270     1.0000 0.89360  0.14920  0.23920  Biso   1.000  C
  C271     1.0000 0.91770  0.18180  0.23010  Biso   1.000  C
  C272     1.0000 0.89700  0.19140  0.19960  Biso   1.000  C
  C273     1.0000 0.91800  0.22210  0.19110  Biso   1.000  C
  C274     1.0000 0.82830  0.12920  0.13510  Biso   1.000  C
  C275     1.0000 0.09190  0.23100  0.35470  Biso   1.000  C
  C276     1.0000 0.92590  0.14690  0.27080  Biso   1.000  C
  C277     1.0000 0.84800  0.16610  0.17550  Biso   1.000  C
  C278     1.0000 0.89220  0.23300  0.15640  Biso   1.000  C
  C279     1.0000 0.82320  0.18050  0.18970  Biso   1.000  C
  C280     1.0000 0.78370  0.10590  0.10920  Biso   1.000  C
  C281     1.0000 0.75730  0.11810  0.12320  Biso   1.000  C
  C282     1.0000 0.77780  0.15630  0.16330  Biso   1.000  C
  C283     1.0000 0.00890  0.16150  0.39940  Biso   1.000  C
  C284     1.0000 0.01310  0.18160  0.44370  Biso   1.000  C
  C285     1.0000 0.75040  0.17300  0.17740  Biso   1.000  C
  C286     1.0000 0.76100  0.06680  0.06380  Biso   1.000  C
  C287     1.0000 0.23660  0.39690  0.39890  Biso   1.000  C
  C288     1.0000 0.25780  0.37790  0.38250  Biso   1.000  C
  C289     1.0000 0.19180  0.31510  0.32410  Biso   1.000  C
  C290     1.0000 0.17180  0.33270  0.34070  Biso   1.000  C
  C291     1.0000 0.19130  0.37270  0.37800  Biso   1.000  C
  C292     1.0000 0.12220  0.30730  0.31690  Biso   1.000  C
  C293     1.0000 0.10020  0.27940  0.32900  Biso   1.000  C
  C294     1.0000 0.26190  0.44340  0.43630  Biso   1.000  C
  C295     1.0000 0.10090  0.31990  0.28880  Biso   1.000  C
  C296     1.0000 0.09000  0.35080  0.24440  Biso   1.000  C
  C297     1.0000 0.04830  0.31820  0.23590  Biso   1.000  C
  C298     1.0000 0.00820  0.30860  0.20560  Biso   1.000  C
  C299     1.0000 0.96900  0.27790  0.19590  Biso   1.000  C
  C300     1.0000 0.00590  0.37080  0.19910  Biso   1.000  C
  C301     1.0000 0.12370  0.26900  0.36090  Biso   1.000  C
  C302     1.0000 0.12390  0.35310  0.27900  Biso   1.000  C
  C303     1.0000 0.00940  0.33390  0.18190  Biso   1.000  C
  C304     1.0000 0.92340  0.26700  0.15920  Biso   1.000  C
  C305     1.0000 0.00920  0.31950  0.14270  Biso   1.000  C
  C306     1.0000 0.00330  0.39410  0.17780  Biso   1.000  C
  C307     1.0000 0.00510  0.38190  0.13920  Biso   1.000  C
  C308     1.0000 0.00700  0.34370  0.12150  Biso   1.000  C
  C309     1.0000 0.23790  0.33850  0.34740  Biso   1.000  C
  C310     1.0000 0.26210  0.31840  0.33150  Biso   1.000  C
  C311     1.0000 0.00440  0.32700  0.07740  Biso   1.000  C
  C312     1.0000 0.99700  0.43320  0.19420  Biso   1.000  C
  C313     1.0000 0.33970  0.73660  0.83770  Biso   1.000  C
  C314     1.0000 0.37990  0.75780  0.87530  Biso   1.000  C
  C315     1.0000 0.37670  0.69180  0.86770  Biso   1.000  C
  C316     1.0000 0.33910  0.67180  0.83110  Biso   1.000  C
  C317     1.0000 0.31860  0.69130  0.81330  Biso   1.000  C
  C318     1.0000 0.31490  0.62220  0.80530  Biso   1.000  C
  C319     1.0000 0.32080  0.60020  0.77120  Biso   1.000  C
  C320     1.0000 0.31850  0.76190  0.82560  Biso   1.000  C
  C321     1.0000 0.28100  0.60090  0.81210  Biso   1.000  C
  C322     1.0000 0.23920  0.59000  0.84560  Biso   1.000  C
  C323     1.0000 0.23010  0.54830  0.81240  Biso   1.000  C
  C324     1.0000 0.19960  0.50820  0.80260  Biso   1.000  C
  C325     1.0000 0.19110  0.46900  0.77310  Biso   1.000  C
  C326     1.0000 0.13510  0.50590  0.80680  Biso   1.000  C
  C327     1.0000 0.35470  0.62370  0.76280  Biso   1.000  C
  C328     1.0000 0.27080  0.62390  0.84490  Biso   1.000  C
  C329     1.0000 0.17550  0.50940  0.82750  Biso   1.000  C
  C330     1.0000 0.15640  0.42340  0.76420  Biso   1.000  C
  C331     1.0000 0.18970  0.50920  0.86650  Biso   1.000  C
  C332     1.0000 0.10920  0.50330  0.82550  Biso   1.000  C
  C333     1.0000 0.12320  0.50510  0.86590  Biso   1.000  C
  C334     1.0000 0.16330  0.50700  0.88550  Biso   1.000  C
  C335     1.0000 0.39940  0.73790  0.89050  Biso   1.000  C
  C336     1.0000 0.44370  0.76210  0.93060  Biso   1.000  C
  C337     1.0000 0.17740  0.50440  0.92700  Biso   1.000  C
  C338     1.0000 0.06380  0.49700  0.80280  Biso   1.000  C
  C339     1.0000 0.39890  0.50200  0.66230  Biso   1.000  C
  C340     1.0000 0.38250  0.50460  0.62470  Biso   1.000  C
  C341     1.0000 0.32410  0.50900  0.63230  Biso   1.000  C
  C342     1.0000 0.34070  0.50800  0.66890  Biso   1.000  C
  C343     1.0000 0.37800  0.50530  0.68670  Biso   1.000  C
  C344     1.0000 0.31690  0.50960  0.69470  Biso   1.000  C
  C345     1.0000 0.32900  0.54960  0.72880  Biso   1.000  C
  C346     1.0000 0.43630  0.49290  0.67440  Biso   1.000  C
  C347     1.0000 0.28880  0.46890  0.68790  Biso   1.000  C
  C348     1.0000 0.24440  0.39360  0.65440  Biso   1.000  C
  C349     1.0000 0.23590  0.41770  0.68760  Biso   1.000  C
  C350     1.0000 0.20560  0.39700  0.69740  Biso   1.000  C
  C351     1.0000 0.19590  0.41800  0.72690  Biso   1.000  C
  C352     1.0000 0.19910  0.32830  0.69320  Biso   1.000  C
  C353     1.0000 0.36090  0.59190  0.73720  Biso   1.000  C
  C354     1.0000 0.27900  0.42590  0.65510  Biso   1.000  C
  C355     1.0000 0.18190  0.34800  0.67250  Biso   1.000  C
  C356     1.0000 0.15920  0.39220  0.73580  Biso   1.000  C
  C357     1.0000 0.14270  0.32320  0.63350  Biso   1.000  C
  C358     1.0000 0.17780  0.28370  0.67450  Biso   1.000  C
  C359     1.0000 0.13920  0.25730  0.63410  Biso   1.000  C
  C360     1.0000 0.12150  0.27780  0.61450  Biso   1.000  C
  C361     1.0000 0.34740  0.50890  0.60950  Biso   1.000  C
  C362     1.0000 0.33150  0.51310  0.56940  Biso   1.000  C
  C363     1.0000 0.07740  0.25040  0.57300  Biso   1.000  C
  C364     1.0000 0.19420  0.26100  0.69720  Biso   1.000  C
  C365     1.0000 0.10110  0.76340  0.10310  Biso   1.000  C
  C366     1.0000 0.11750  0.74220  0.12210  Biso   1.000  C
  C367     1.0000 0.17590  0.80820  0.18490  Biso   1.000  C
  C368     1.0000 0.15930  0.82820  0.16730  Biso   1.000  C
  C369     1.0000 0.12200  0.80870  0.12730  Biso   1.000  C
  C370     1.0000 0.18310  0.87780  0.19270  Biso   1.000  C
  C371     1.0000 0.17100  0.89980  0.22060  Biso   1.000  C
  C372     1.0000 0.06370  0.73810  0.05660  Biso   1.000  C
  C373     1.0000 0.21120  0.89910  0.18010  Biso   1.000  C
  C374     1.0000 0.25560  0.91000  0.14920  Biso   1.000  C
  C375     1.0000 0.26410  0.95170  0.18180  Biso   1.000  C
  C376     1.0000 0.29440  0.99180  0.19140  Biso   1.000  C
  C377     1.0000 0.30410  0.03100  0.22210  Biso   1.000  C
  C378     1.0000 0.30090  0.99410  0.12920  Biso   1.000  C
  C379     1.0000 0.13910  0.87630  0.23100  Biso   1.000  C
  C380     1.0000 0.22100  0.87610  0.14690  Biso   1.000  C
  C381     1.0000 0.31810  0.99060  0.16610  Biso   1.000  C
  C382     1.0000 0.34080  0.07660  0.23300  Biso   1.000  C
  C383     1.0000 0.35730  0.99080  0.18050  Biso   1.000  C
  C384     1.0000 0.32220  0.99670  0.10590  Biso   1.000  C
  C385     1.0000 0.36080  0.99490  0.11810  Biso   1.000  C
  C386     1.0000 0.37850  0.99300  0.15630  Biso   1.000  C
  C387     1.0000 0.15260  0.76210  0.16150  Biso   1.000  C
  C388     1.0000 0.16850  0.73790  0.18160  Biso   1.000  C
  C389     1.0000 0.42260  0.99560  0.17300  Biso   1.000  C
  C390     1.0000 0.30580  0.00300  0.06680  Biso   1.000  C
  C391     1.0000 0.16030  0.99800  0.39690  Biso   1.000  C
  C392     1.0000 0.12010  0.99540  0.37790  Biso   1.000  C
  C393     1.0000 0.12330  0.99100  0.31510  Biso   1.000  C
  C394     1.0000 0.16090  0.99200  0.33270  Biso   1.000  C
  C395     1.0000 0.18140  0.99470  0.37270  Biso   1.000  C
  C396     1.0000 0.18510  0.99040  0.30730  Biso   1.000  C
  C397     1.0000 0.17920  0.95040  0.27940  Biso   1.000  C
  C398     1.0000 0.18150  0.00710  0.44340  Biso   1.000  C
  C399     1.0000 0.21900  0.03110  0.31990  Biso   1.000  C
  C400     1.0000 0.26080  0.10640  0.35080  Biso   1.000  C
  C401     1.0000 0.26990  0.08230  0.31820  Biso   1.000  C
  C402     1.0000 0.30040  0.10300  0.30860  Biso   1.000  C
  C403     1.0000 0.30890  0.08200  0.27790  Biso   1.000  C
  C404     1.0000 0.36490  0.17170  0.37080  Biso   1.000  C
  C405     1.0000 0.14530  0.90810  0.26900  Biso   1.000  C
  C406     1.0000 0.22920  0.07410  0.35310  Biso   1.000  C
  C407     1.0000 0.32450  0.15200  0.33390  Biso   1.000  C
  C408     1.0000 0.34360  0.10780  0.26700  Biso   1.000  C
  C409     1.0000 0.31030  0.17680  0.31950  Biso   1.000  C
  C410     1.0000 0.39080  0.21630  0.39410  Biso   1.000  C
  C411     1.0000 0.37680  0.24270  0.38190  Biso   1.000  C
  C412     1.0000 0.33670  0.22220  0.34370  Biso   1.000  C
  C413     1.0000 0.10060  0.99110  0.33850  Biso   1.000  C
  C414     1.0000 0.05630  0.98690  0.31840  Biso   1.000  C
  C415     1.0000 0.32260  0.24960  0.32700  Biso   1.000  C
  C416     1.0000 0.43620  0.23900  0.43320  Biso   1.000  C
  C417     1.0000 0.60310  0.10110  0.26340  Biso   1.000  C
  C418     1.0000 0.62210  0.11750  0.24220  Biso   1.000  C
  C419     1.0000 0.68490  0.17590  0.30820  Biso   1.000  C
  C420     1.0000 0.66730  0.15930  0.32820  Biso   1.000  C
  C421     1.0000 0.62730  0.12200  0.30870  Biso   1.000  C
  C422     1.0000 0.69270  0.18310  0.37780  Biso   1.000  C
  C423     1.0000 0.72060  0.17100  0.39980  Biso   1.000  C
  C424     1.0000 0.55660  0.06370  0.23810  Biso   1.000  C
  C425     1.0000 0.68010  0.21120  0.39910  Biso   1.000  C
  C426     1.0000 0.64920  0.25560  0.41000  Biso   1.000  C
  C427     1.0000 0.68180  0.26410  0.45170  Biso   1.000  C
  C428     1.0000 0.69140  0.29440  0.49180  Biso   1.000  C
  C429     1.0000 0.72210  0.30410  0.53100  Biso   1.000  C
  C430     1.0000 0.62920  0.30090  0.49410  Biso   1.000  C
  C431     1.0000 0.73100  0.13910  0.37630  Biso   1.000  C
  C432     1.0000 0.64690  0.22100  0.37610  Biso   1.000  C
  C433     1.0000 0.66610  0.31810  0.49060  Biso   1.000  C
  C434     1.0000 0.73300  0.34080  0.57660  Biso   1.000  C
  C435     1.0000 0.68050  0.35730  0.49080  Biso   1.000  C
  C436     1.0000 0.60590  0.32220  0.49670  Biso   1.000  C
  C437     1.0000 0.61810  0.36080  0.49490  Biso   1.000  C
  C438     1.0000 0.65630  0.37850  0.49300  Biso   1.000  C
  C439     1.0000 0.66150  0.15260  0.26210  Biso   1.000  C
  C440     1.0000 0.68160  0.16850  0.23790  Biso   1.000  C
  C441     1.0000 0.67300  0.42260  0.49560  Biso   1.000  C
  C442     1.0000 0.56680  0.30580  0.50300  Biso   1.000  C
  C443     1.0000 0.89690  0.16030  0.49800  Biso   1.000  C
  C444     1.0000 0.87790  0.12010  0.49540  Biso   1.000  C
  C445     1.0000 0.81510  0.12330  0.49100  Biso   1.000  C
  C446     1.0000 0.83270  0.16090  0.49200  Biso   1.000  C
  C447     1.0000 0.87270  0.18140  0.49470  Biso   1.000  C
  C448     1.0000 0.80730  0.18510  0.49040  Biso   1.000  C
  C449     1.0000 0.77940  0.17920  0.45040  Biso   1.000  C
  C450     1.0000 0.94340  0.18150  0.50710  Biso   1.000  C
  C451     1.0000 0.81990  0.21900  0.53110  Biso   1.000  C
  C452     1.0000 0.85080  0.26080  0.60640  Biso   1.000  C
  C453     1.0000 0.81820  0.26990  0.58230  Biso   1.000  C
  C454     1.0000 0.80860  0.30040  0.60300  Biso   1.000  C
  C455     1.0000 0.77790  0.30890  0.58200  Biso   1.000  C
  C456     1.0000 0.87080  0.36490  0.67170  Biso   1.000  C
  C457     1.0000 0.76900  0.14530  0.40810  Biso   1.000  C
  C458     1.0000 0.85310  0.22920  0.57410  Biso   1.000  C
  C459     1.0000 0.83390  0.32450  0.65200  Biso   1.000  C
  C460     1.0000 0.76700  0.34360  0.60780  Biso   1.000  C
  C461     1.0000 0.81950  0.31030  0.67680  Biso   1.000  C
  C462     1.0000 0.89410  0.39080  0.71630  Biso   1.000  C
  C463     1.0000 0.88190  0.37680  0.74270  Biso   1.000  C
  C464     1.0000 0.84370  0.33670  0.72220  Biso   1.000  C
  C465     1.0000 0.83850  0.10060  0.49110  Biso   1.000  C
  C466     1.0000 0.81840  0.05630  0.48690  Biso   1.000  C
  C467     1.0000 0.82700  0.32260  0.74960  Biso   1.000  C
  C468     1.0000 0.93320  0.43620  0.73900  Biso   1.000  C
  C469     1.0000 0.33770  0.33970  0.23660  Biso   1.000  C
  C470     1.0000 0.37530  0.37990  0.25780  Biso   1.000  C
  C471     1.0000 0.36770  0.37670  0.19180  Biso   1.000  C
  C472     1.0000 0.33110  0.33910  0.17180  Biso   1.000  C
  C473     1.0000 0.31330  0.31860  0.19130  Biso   1.000  C
  C474     1.0000 0.30530  0.31490  0.12220  Biso   1.000  C
  C475     1.0000 0.27120  0.32080  0.10020  Biso   1.000  C
  C476     1.0000 0.32560  0.31850  0.26190  Biso   1.000  C
  C477     1.0000 0.31210  0.28100  0.10090  Biso   1.000  C
  C478     1.0000 0.34560  0.23920  0.09000  Biso   1.000  C
  C479     1.0000 0.31240  0.23010  0.04830  Biso   1.000  C
  C480     1.0000 0.30260  0.19960  0.00820  Biso   1.000  C
  C481     1.0000 0.27310  0.19110  0.96900  Biso   1.000  C
  C482     1.0000 0.30680  0.13510  0.00590  Biso   1.000  C
  C483     1.0000 0.26280  0.35470  0.12370  Biso   1.000  C
  C484     1.0000 0.34490  0.27080  0.12390  Biso   1.000  C
  C485     1.0000 0.32750  0.17550  0.00940  Biso   1.000  C
  C486     1.0000 0.26420  0.15640  0.92340  Biso   1.000  C
  C487     1.0000 0.36650  0.18970  0.00920  Biso   1.000  C
  C488     1.0000 0.32550  0.10920  0.00330  Biso   1.000  C
  C489     1.0000 0.36590  0.12320  0.00510  Biso   1.000  C
  C490     1.0000 0.38550  0.16330  0.00700  Biso   1.000  C
  C491     1.0000 0.39050  0.39940  0.23790  Biso   1.000  C
  C492     1.0000 0.43060  0.44370  0.26210  Biso   1.000  C
  C493     1.0000 0.42700  0.17740  0.00440  Biso   1.000  C
  C494     1.0000 0.30280  0.06380  0.99700  Biso   1.000  C
  C495     1.0000 0.16230  0.39890  0.00200  Biso   1.000  C
  C496     1.0000 0.12470  0.38250  0.00460  Biso   1.000  C
  C497     1.0000 0.13230  0.32410  0.00900  Biso   1.000  C
  C498     1.0000 0.16890  0.34070  0.00800  Biso   1.000  C
  C499     1.0000 0.18670  0.37800  0.00530  Biso   1.000  C
  C500     1.0000 0.19470  0.31690  0.00960  Biso   1.000  C
  C501     1.0000 0.22880  0.32900  0.04960  Biso   1.000  C
  C502     1.0000 0.17440  0.43630  0.99290  Biso   1.000  C
  C503     1.0000 0.18790  0.28880  0.96890  Biso   1.000  C
  C504     1.0000 0.15440  0.24440  0.89360  Biso   1.000  C
  C505     1.0000 0.18760  0.23590  0.91770  Biso   1.000  C
  C506     1.0000 0.19740  0.20560  0.89700  Biso   1.000  C
  C507     1.0000 0.22690  0.19590  0.91800  Biso   1.000  C
  C508     1.0000 0.19320  0.19910  0.82830  Biso   1.000  C
  C509     1.0000 0.23720  0.36090  0.09190  Biso   1.000  C
  C510     1.0000 0.15510  0.27900  0.92590  Biso   1.000  C
  C511     1.0000 0.17250  0.18190  0.84800  Biso   1.000  C
  C512     1.0000 0.23580  0.15920  0.89220  Biso   1.000  C
  C513     1.0000 0.13350  0.14270  0.82320  Biso   1.000  C
  C514     1.0000 0.17450  0.17780  0.78370  Biso   1.000  C
  C515     1.0000 0.13410  0.13920  0.75730  Biso   1.000  C
  C516     1.0000 0.11450  0.12150  0.77780  Biso   1.000  C
  C517     1.0000 0.10950  0.34740  0.00890  Biso   1.000  C
  C518     1.0000 0.06940  0.33150  0.01310  Biso   1.000  C
  C519     1.0000 0.07300  0.07740  0.75040  Biso   1.000  C
  C520     1.0000 0.19720  0.19420  0.76100  Biso   1.000  C
  C521     1.0000 0.50200  0.16230  0.89890  Biso   1.000  C
  C522     1.0000 0.50460  0.12470  0.88250  Biso   1.000  C
  C523     1.0000 0.50900  0.13230  0.82410  Biso   1.000  C
  C524     1.0000 0.50800  0.16890  0.84070  Biso   1.000  C
  C525     1.0000 0.50530  0.18670  0.87800  Biso   1.000  C
  C526     1.0000 0.50960  0.19470  0.81690  Biso   1.000  C
  C527     1.0000 0.54960  0.22880  0.82900  Biso   1.000  C
  C528     1.0000 0.49290  0.17440  0.93630  Biso   1.000  C
  C529     1.0000 0.46890  0.18790  0.78880  Biso   1.000  C
  C530     1.0000 0.39360  0.15440  0.74440  Biso   1.000  C
  C531     1.0000 0.41770  0.18760  0.73590  Biso   1.000  C
  C532     1.0000 0.39700  0.19740  0.70560  Biso   1.000  C
  C533     1.0000 0.41800  0.22690  0.69590  Biso   1.000  C
  C534     1.0000 0.32830  0.19320  0.69910  Biso   1.000  C
  C535     1.0000 0.59190  0.23720  0.86090  Biso   1.000  C
  C536     1.0000 0.42590  0.15510  0.77900  Biso   1.000  C
  C537     1.0000 0.34800  0.17250  0.68190  Biso   1.000  C
  C538     1.0000 0.39220  0.23580  0.65920  Biso   1.000  C
  C539     1.0000 0.32320  0.13350  0.64270  Biso   1.000  C
  C540     1.0000 0.28370  0.17450  0.67780  Biso   1.000  C
  C541     1.0000 0.25730  0.13410  0.63920  Biso   1.000  C
  C542     1.0000 0.27780  0.11450  0.62150  Biso   1.000  C
  C543     1.0000 0.50890  0.10950  0.84740  Biso   1.000  C
  C544     1.0000 0.51310  0.06940  0.83150  Biso   1.000  C
  C545     1.0000 0.25040  0.07300  0.57740  Biso   1.000  C
  C546     1.0000 0.26100  0.19720  0.69420  Biso   1.000  C
  C547     1.0000 0.73660  0.33770  0.83970  Biso   1.000  C
  C548     1.0000 0.75780  0.37530  0.87990  Biso   1.000  C
  C549     1.0000 0.69180  0.36770  0.87670  Biso   1.000  C
  C550     1.0000 0.67180  0.33110  0.83910  Biso   1.000  C
  C551     1.0000 0.69130  0.31330  0.81860  Biso   1.000  C
  C552     1.0000 0.62220  0.30530  0.81490  Biso   1.000  C
  C553     1.0000 0.60020  0.27120  0.82080  Biso   1.000  C
  C554     1.0000 0.76190  0.32560  0.81850  Biso   1.000  C
  C555     1.0000 0.60090  0.31210  0.78100  Biso   1.000  C
  C556     1.0000 0.59000  0.34560  0.73920  Biso   1.000  C
  C557     1.0000 0.54830  0.31240  0.73010  Biso   1.000  C
  C558     1.0000 0.50820  0.30260  0.69960  Biso   1.000  C
  C559     1.0000 0.46900  0.27310  0.69110  Biso   1.000  C
  C560     1.0000 0.50590  0.30680  0.63510  Biso   1.000  C
  C561     1.0000 0.62370  0.26280  0.85470  Biso   1.000  C
  C562     1.0000 0.62390  0.34490  0.77080  Biso   1.000  C
  C563     1.0000 0.50940  0.32750  0.67550  Biso   1.000  C
  C564     1.0000 0.42340  0.26420  0.65640  Biso   1.000  C
  C565     1.0000 0.50920  0.36650  0.68970  Biso   1.000  C
  C566     1.0000 0.50330  0.32550  0.60920  Biso   1.000  C
  C567     1.0000 0.50510  0.36590  0.62320  Biso   1.000  C
  C568     1.0000 0.50700  0.38550  0.66330  Biso   1.000  C
  C569     1.0000 0.73790  0.39050  0.89940  Biso   1.000  C
  C570     1.0000 0.76210  0.43060  0.94370  Biso   1.000  C
  C571     1.0000 0.50440  0.42700  0.67740  Biso   1.000  C
  C572     1.0000 0.49700  0.30280  0.56380  Biso   1.000  C
  C573     1.0000 0.99800  0.89690  0.66030  Biso   1.000  C
  C574     1.0000 0.99540  0.87790  0.62010  Biso   1.000  C
  C575     1.0000 0.99100  0.81510  0.62330  Biso   1.000  C
  C576     1.0000 0.99200  0.83270  0.66090  Biso   1.000  C
  C577     1.0000 0.99470  0.87270  0.68140  Biso   1.000  C
  C578     1.0000 0.99040  0.80730  0.68510  Biso   1.000  C
  C579     1.0000 0.95040  0.77940  0.67920  Biso   1.000  C
  C580     1.0000 0.00710  0.94340  0.68150  Biso   1.000  C
  C581     1.0000 0.03110  0.81990  0.71900  Biso   1.000  C
  C582     1.0000 0.10640  0.85080  0.76080  Biso   1.000  C
  C583     1.0000 0.08230  0.81820  0.76990  Biso   1.000  C
  C584     1.0000 0.10300  0.80860  0.80040  Biso   1.000  C
  C585     1.0000 0.08200  0.77790  0.80890  Biso   1.000  C
  C586     1.0000 0.17170  0.87080  0.86490  Biso   1.000  C
  C587     1.0000 0.90810  0.76900  0.64530  Biso   1.000  C
  C588     1.0000 0.07410  0.85310  0.72920  Biso   1.000  C
  C589     1.0000 0.15200  0.83390  0.82450  Biso   1.000  C
  C590     1.0000 0.10780  0.76700  0.84360  Biso   1.000  C
  C591     1.0000 0.17680  0.81950  0.81030  Biso   1.000  C
  C592     1.0000 0.21630  0.89410  0.89080  Biso   1.000  C
  C593     1.0000 0.24270  0.88190  0.87680  Biso   1.000  C
  C594     1.0000 0.22220  0.84370  0.83670  Biso   1.000  C
  C595     1.0000 0.99110  0.83850  0.60060  Biso   1.000  C
  C596     1.0000 0.98690  0.81840  0.55630  Biso   1.000  C
  C597     1.0000 0.24960  0.82700  0.82260  Biso   1.000  C
  C598     1.0000 0.23900  0.93320  0.93620  Biso   1.000  C
  C599     1.0000 0.76340  0.60310  0.60110  Biso   1.000  C
  C600     1.0000 0.74220  0.62210  0.61750  Biso   1.000  C
  C601     1.0000 0.80820  0.68490  0.67590  Biso   1.000  C
  C602     1.0000 0.82820  0.66730  0.65930  Biso   1.000  C
  C603     1.0000 0.80870  0.62730  0.62200  Biso   1.000  C
  C604     1.0000 0.87780  0.69270  0.68310  Biso   1.000  C
  C605     1.0000 0.89980  0.72060  0.67100  Biso   1.000  C
  C606     1.0000 0.73810  0.55660  0.56370  Biso   1.000  C
  C607     1.0000 0.89910  0.68010  0.71120  Biso   1.000  C
  C608     1.0000 0.91000  0.64920  0.75560  Biso   1.000  C
  C609     1.0000 0.95170  0.68180  0.76410  Biso   1.000  C
  C610     1.0000 0.99180  0.69140  0.79440  Biso   1.000  C
  C611     1.0000 0.03100  0.72210  0.80410  Biso   1.000  C
  C612     1.0000 0.99410  0.62920  0.80090  Biso   1.000  C
  C613     1.0000 0.87630  0.73100  0.63910  Biso   1.000  C
  C614     1.0000 0.87610  0.64690  0.72100  Biso   1.000  C
  C615     1.0000 0.99060  0.66610  0.81810  Biso   1.000  C
  C616     1.0000 0.07660  0.73300  0.84080  Biso   1.000  C
  C617     1.0000 0.99080  0.68050  0.85730  Biso   1.000  C
  C618     1.0000 0.99670  0.60590  0.82220  Biso   1.000  C
  C619     1.0000 0.99490  0.61810  0.86080  Biso   1.000  C
  C620     1.0000 0.99300  0.65630  0.87850  Biso   1.000  C
  C621     1.0000 0.76210  0.66150  0.65260  Biso   1.000  C
  C622     1.0000 0.73790  0.68160  0.66850  Biso   1.000  C
  C623     1.0000 0.99560  0.67300  0.92260  Biso   1.000  C
  C624     1.0000 0.00300  0.56680  0.80580  Biso   1.000  C
  N1       1.0000 0.74350  0.44370  0.20640  Biso   1.000  N
  N2       1.0000 0.73730  0.53710  0.29360  Biso   1.000  N
  N3       1.0000 0.76270  0.05630  0.79980  Biso   1.000  N
  N4       1.0000 0.75650  0.96290  0.70020  Biso   1.000  N
  N5       1.0000 0.29980  0.76270  0.55630  Biso   1.000  N
  N6       1.0000 0.20020  0.75650  0.46290  Biso   1.000  N
  N7       1.0000 0.70640  0.74350  0.94370  Biso   1.000  N
  N8       1.0000 0.79360  0.73730  0.03710  Biso   1.000  N
  N9       1.0000 0.53710  0.79360  0.23730  Biso   1.000  N
  N10      1.0000 0.44370  0.70640  0.24350  Biso   1.000  N
  N11      1.0000 0.96290  0.20020  0.25650  Biso   1.000  N
  N12      1.0000 0.05630  0.29980  0.26270  Biso   1.000  N
  N13      1.0000 0.25650  0.55630  0.79360  Biso   1.000  N
  N14      1.0000 0.26270  0.46290  0.70640  Biso   1.000  N
  N15      1.0000 0.23730  0.94370  0.20020  Biso   1.000  N
  N16      1.0000 0.24350  0.03710  0.29980  Biso   1.000  N
  N17      1.0000 0.70020  0.23730  0.44370  Biso   1.000  N
  N18      1.0000 0.79980  0.24350  0.53710  Biso   1.000  N
  N19      1.0000 0.29360  0.25650  0.05630  Biso   1.000  N
  N20      1.0000 0.20640  0.26270  0.96290  Biso   1.000  N
  N21      1.0000 0.46290  0.20640  0.76270  Biso   1.000  N
  N22      1.0000 0.55630  0.29360  0.75650  Biso   1.000  N
  N23      1.0000 0.03710  0.79980  0.74350  Biso   1.000  N
  N24      1.0000 0.94370  0.70020  0.73730  Biso   1.000  N
  N25      1.0000 0.69390  0.44390  0.25000  Biso   1.000  N
  N26      1.0000 0.78790  0.53790  0.25000  Biso   1.000  N
  N27      1.0000 0.80610  0.05610  0.75000  Biso   1.000  N
  N28      1.0000 0.71210  0.96210  0.75000  Biso   1.000  N
  N29      1.0000 0.25000  0.80610  0.55610  Biso   1.000  N
  N30      1.0000 0.25000  0.71210  0.46210  Biso   1.000  N
  N31      1.0000 0.75000  0.69390  0.94390  Biso   1.000  N
  N32      1.0000 0.75000  0.78790  0.03790  Biso   1.000  N
  N33      1.0000 0.44390  0.75000  0.19390  Biso   1.000  N
  N34      1.0000 0.53790  0.75000  0.28790  Biso   1.000  N
  N35      1.0000 0.05610  0.25000  0.30610  Biso   1.000  N
  N36      1.0000 0.96210  0.25000  0.21210  Biso   1.000  N
  N37      1.0000 0.30610  0.55610  0.75000  Biso   1.000  N
  N38      1.0000 0.21210  0.46210  0.75000  Biso   1.000  N
  N39      1.0000 0.19390  0.94390  0.25000  Biso   1.000  N
  N40      1.0000 0.28790  0.03790  0.25000  Biso   1.000  N
  N41      1.0000 0.75000  0.19390  0.44390  Biso   1.000  N
  N42      1.0000 0.75000  0.28790  0.53790  Biso   1.000  N
  N43      1.0000 0.25000  0.30610  0.05610  Biso   1.000  N
  N44      1.0000 0.25000  0.21210  0.96210  Biso   1.000  N
  N45      1.0000 0.55610  0.25000  0.80610  Biso   1.000  N
  N46      1.0000 0.46210  0.25000  0.71210  Biso   1.000  N
  N47      1.0000 0.94390  0.75000  0.69390  Biso   1.000  N
  N48      1.0000 0.03790  0.75000  0.78790  Biso   1.000  N
  O1       1.0000 0.53790  0.19600  0.04870  Biso   1.000  O
  O2       1.0000 0.84610  0.49540  0.05650  Biso   1.000  O
  O3       1.0000 0.71560  0.25890  0.21090  Biso   1.000  O
  O4       1.0000 0.78870  0.49670  0.05780  Biso   1.000  O
  O5       1.0000 0.54180  0.26040  0.05920  Biso   1.000  O
  O6       1.0000 0.94720  0.49820  0.22980  Biso   1.000  O
  O7       1.0000 0.66240  0.19740  0.14860  Biso   1.000  O
  O8       1.0000 0.95900  0.51410  0.18010  Biso   1.000  O
  O9       1.0000 0.64730  0.48920  0.45130  Biso   1.000  O
  O10      1.0000 0.93890  0.78960  0.44350  Biso   1.000  O
  O11      1.0000 0.54800  0.50470  0.28910  Biso   1.000  O
  O12      1.0000 0.93890  0.73090  0.44220  Biso   1.000  O
  O13      1.0000 0.70120  0.48260  0.44080  Biso   1.000  O
  O14      1.0000 0.76840  0.71740  0.27020  Biso   1.000  O
  O15      1.0000 0.54880  0.51380  0.35140  Biso   1.000  O
  O16      1.0000 0.83400  0.77890  0.31990  Biso   1.000  O
  O17      1.0000 0.85270  0.30400  0.84190  Biso   1.000  O
  O18      1.0000 0.56110  0.00460  0.85070  Biso   1.000  O
  O19      1.0000 0.95200  0.24110  0.95670  Biso   1.000  O
  O20      1.0000 0.56110  0.00330  0.79200  Biso   1.000  O
  O21      1.0000 0.79880  0.23960  0.78140  Biso   1.000  O
  O22      1.0000 0.73160  0.00180  0.94900  Biso   1.000  O
  O23      1.0000 0.95120  0.30260  0.96500  Biso   1.000  O
  O24      1.0000 0.66600  0.98590  0.94490  Biso   1.000  O
  O25      1.0000 0.96210  0.01080  0.65810  Biso   1.000  O
  O26      1.0000 0.65390  0.71040  0.64930  Biso   1.000  O
  O27      1.0000 0.78440  0.99530  0.54330  Biso   1.000  O
  O28      1.0000 0.71130  0.76910  0.70800  Biso   1.000  O
  O29      1.0000 0.95820  0.01740  0.71860  Biso   1.000  O
  O30      1.0000 0.55280  0.78260  0.55100  Biso   1.000  O
  O31      1.0000 0.83760  0.98620  0.53500  Biso   1.000  O
  O32      1.0000 0.54100  0.72110  0.55510  Biso   1.000  O
  O33      1.0000 0.34190  0.85270  0.80400  Biso   1.000  O
  O34      1.0000 0.35070  0.56110  0.50460  Biso   1.000  O
  O35      1.0000 0.45670  0.95200  0.74110  Biso   1.000  O
  O36      1.0000 0.29200  0.56110  0.50330  Biso   1.000  O
  O37      1.0000 0.28140  0.79880  0.73960  Biso   1.000  O
  O38      1.0000 0.44900  0.73160  0.50180  Biso   1.000  O
  O39      1.0000 0.46500  0.95120  0.80260  Biso   1.000  O
  O40      1.0000 0.44490  0.66600  0.48590  Biso   1.000  O
  O41      1.0000 0.15810  0.96210  0.51080  Biso   1.000  O
  O42      1.0000 0.14930  0.65390  0.21040  Biso   1.000  O
  O43      1.0000 0.04330  0.78440  0.49530  Biso   1.000  O
  O44      1.0000 0.20800  0.71130  0.26910  Biso   1.000  O
  O45      1.0000 0.21860  0.95820  0.51740  Biso   1.000  O
  O46      1.0000 0.05100  0.55280  0.28260  Biso   1.000  O
  O47      1.0000 0.03500  0.83760  0.48620  Biso   1.000  O
  O48      1.0000 0.05510  0.54100  0.22110  Biso   1.000  O
  O49      1.0000 0.54870  0.53790  0.69600  Biso   1.000  O
  O50      1.0000 0.55650  0.84610  0.99540  Biso   1.000  O
  O51      1.0000 0.71090  0.71560  0.75890  Biso   1.000  O
  O52      1.0000 0.55780  0.78870  0.99670  Biso   1.000  O
  O53      1.0000 0.55920  0.54180  0.76040  Biso   1.000  O
  O54      1.0000 0.72980  0.94720  0.99820  Biso   1.000  O
  O55      1.0000 0.64860  0.66240  0.69740  Biso   1.000  O
  O56      1.0000 0.68010  0.95900  0.01410  Biso   1.000  O
  O57      1.0000 0.95130  0.64730  0.98920  Biso   1.000  O
  O58      1.0000 0.94350  0.93890  0.28960  Biso   1.000  O
  O59      1.0000 0.78910  0.54800  0.00470  Biso   1.000  O
  O60      1.0000 0.94220  0.93890  0.23090  Biso   1.000  O
  O61      1.0000 0.94080  0.70120  0.98260  Biso   1.000  O
  O62      1.0000 0.77020  0.76840  0.21740  Biso   1.000  O
  O63      1.0000 0.85140  0.54880  0.01380  Biso   1.000  O
  O64      1.0000 0.81990  0.83400  0.27890  Biso   1.000  O
  O65      1.0000 0.48920  0.95130  0.14730  Biso   1.000  O
  O66      1.0000 0.78960  0.94350  0.43890  Biso   1.000  O
  O67      1.0000 0.50470  0.78910  0.04800  Biso   1.000  O
  O68      1.0000 0.73090  0.94220  0.43890  Biso   1.000  O
  O69      1.0000 0.48260  0.94080  0.20120  Biso   1.000  O
  O70      1.0000 0.71740  0.77020  0.26840  Biso   1.000  O
  O71      1.0000 0.51380  0.85140  0.04880  Biso   1.000  O
  O72      1.0000 0.77890  0.81990  0.33400  Biso   1.000  O
  O73      1.0000 0.19600  0.54870  0.03790  Biso   1.000  O
  O74      1.0000 0.49540  0.55650  0.34610  Biso   1.000  O
  O75      1.0000 0.25890  0.71090  0.21560  Biso   1.000  O
  O76      1.0000 0.49670  0.55780  0.28870  Biso   1.000  O
  O77      1.0000 0.26040  0.55920  0.04180  Biso   1.000  O
  O78      1.0000 0.49820  0.72980  0.44720  Biso   1.000  O
  O79      1.0000 0.19740  0.64860  0.16240  Biso   1.000  O
  O80      1.0000 0.51410  0.68010  0.45900  Biso   1.000  O
  O81      1.0000 0.01080  0.15810  0.46210  Biso   1.000  O
  O82      1.0000 0.71040  0.14930  0.15390  Biso   1.000  O
  O83      1.0000 0.99530  0.04330  0.28440  Biso   1.000  O
  O84      1.0000 0.76910  0.20800  0.21130  Biso   1.000  O
  O85      1.0000 0.01740  0.21860  0.45820  Biso   1.000  O
  O86      1.0000 0.78260  0.05100  0.05280  Biso   1.000  O
  O87      1.0000 0.98620  0.03500  0.33760  Biso   1.000  O
  O88      1.0000 0.72110  0.05510  0.04100  Biso   1.000  O
  O89      1.0000 0.30400  0.34190  0.35270  Biso   1.000  O
  O90      1.0000 0.00460  0.35070  0.06110  Biso   1.000  O
  O91      1.0000 0.24110  0.45670  0.45200  Biso   1.000  O
  O92      1.0000 0.00330  0.29200  0.06110  Biso   1.000  O
  O93      1.0000 0.23960  0.28140  0.29880  Biso   1.000  O
  O94      1.0000 0.00180  0.44900  0.23160  Biso   1.000  O
  O95      1.0000 0.30260  0.46500  0.45120  Biso   1.000  O
  O96      1.0000 0.98590  0.44490  0.16600  Biso   1.000  O
  O97      1.0000 0.46210  0.80400  0.95130  Biso   1.000  O
  O98      1.0000 0.15390  0.50460  0.94350  Biso   1.000  O
  O99      1.0000 0.28440  0.74110  0.78910  Biso   1.000  O
  O100     1.0000 0.21130  0.50330  0.94220  Biso   1.000  O
  O101     1.0000 0.45820  0.73960  0.94080  Biso   1.000  O
  O102     1.0000 0.05280  0.50180  0.77020  Biso   1.000  O
  O103     1.0000 0.33760  0.80260  0.85140  Biso   1.000  O
  O104     1.0000 0.04100  0.48590  0.81990  Biso   1.000  O
  O105     1.0000 0.35270  0.51080  0.54870  Biso   1.000  O
  O106     1.0000 0.06110  0.21040  0.55650  Biso   1.000  O
  O107     1.0000 0.45200  0.49530  0.71090  Biso   1.000  O
  O108     1.0000 0.06110  0.26910  0.55780  Biso   1.000  O
  O109     1.0000 0.29880  0.51740  0.55920  Biso   1.000  O
  O110     1.0000 0.23160  0.28260  0.72980  Biso   1.000  O
  O111     1.0000 0.45120  0.48620  0.64860  Biso   1.000  O
  O112     1.0000 0.16600  0.22110  0.68010  Biso   1.000  O
  O113     1.0000 0.14730  0.69600  0.15810  Biso   1.000  O
  O114     1.0000 0.43890  0.99540  0.14930  Biso   1.000  O
  O115     1.0000 0.04800  0.75890  0.04330  Biso   1.000  O
  O116     1.0000 0.43890  0.99670  0.20800  Biso   1.000  O
  O117     1.0000 0.20120  0.76040  0.21860  Biso   1.000  O
  O118     1.0000 0.26840  0.99820  0.05100  Biso   1.000  O
  O119     1.0000 0.04880  0.69740  0.03500  Biso   1.000  O
  O120     1.0000 0.33400  0.01410  0.05510  Biso   1.000  O
  O121     1.0000 0.03790  0.98920  0.34190  Biso   1.000  O
  O122     1.0000 0.34610  0.28960  0.35070  Biso   1.000  O
  O123     1.0000 0.21560  0.00470  0.45670  Biso   1.000  O
  O124     1.0000 0.28870  0.23090  0.29200  Biso   1.000  O
  O125     1.0000 0.04180  0.98260  0.28140  Biso   1.000  O
  O126     1.0000 0.44720  0.21740  0.44900  Biso   1.000  O
  O127     1.0000 0.16240  0.01380  0.46500  Biso   1.000  O
  O128     1.0000 0.45900  0.27890  0.44490  Biso   1.000  O
  O129     1.0000 0.65810  0.14730  0.19600  Biso   1.000  O
  O130     1.0000 0.64930  0.43890  0.49540  Biso   1.000  O
  O131     1.0000 0.54330  0.04800  0.25890  Biso   1.000  O
  O132     1.0000 0.70800  0.43890  0.49670  Biso   1.000  O
  O133     1.0000 0.71860  0.20120  0.26040  Biso   1.000  O
  O134     1.0000 0.55100  0.26840  0.49820  Biso   1.000  O
  O135     1.0000 0.53500  0.04880  0.19740  Biso   1.000  O
  O136     1.0000 0.55510  0.33400  0.51410  Biso   1.000  O
  O137     1.0000 0.84190  0.03790  0.48920  Biso   1.000  O
  O138     1.0000 0.85070  0.34610  0.78960  Biso   1.000  O
  O139     1.0000 0.95670  0.21560  0.50470  Biso   1.000  O
  O140     1.0000 0.79200  0.28870  0.73090  Biso   1.000  O
  O141     1.0000 0.78140  0.04180  0.48260  Biso   1.000  O
  O142     1.0000 0.94900  0.44720  0.71740  Biso   1.000  O
  O143     1.0000 0.96500  0.16240  0.51380  Biso   1.000  O
  O144     1.0000 0.94490  0.45900  0.77890  Biso   1.000  O
  O145     1.0000 0.45130  0.46210  0.30400  Biso   1.000  O
  O146     1.0000 0.44350  0.15390  0.00460  Biso   1.000  O
  O147     1.0000 0.28910  0.28440  0.24110  Biso   1.000  O
  O148     1.0000 0.44220  0.21130  0.00330  Biso   1.000  O
  O149     1.0000 0.44080  0.45820  0.23960  Biso   1.000  O
  O150     1.0000 0.27020  0.05280  0.00180  Biso   1.000  O
  O151     1.0000 0.35140  0.33760  0.30260  Biso   1.000  O
  O152     1.0000 0.31990  0.04100  0.98590  Biso   1.000  O
  O153     1.0000 0.04870  0.35270  0.01080  Biso   1.000  O
  O154     1.0000 0.05650  0.06110  0.71040  Biso   1.000  O
  O155     1.0000 0.21090  0.45200  0.99530  Biso   1.000  O
  O156     1.0000 0.05780  0.06110  0.76910  Biso   1.000  O
  O157     1.0000 0.05920  0.29880  0.01740  Biso   1.000  O
  O158     1.0000 0.22980  0.23160  0.78260  Biso   1.000  O
  O159     1.0000 0.14860  0.45120  0.98620  Biso   1.000  O
  O160     1.0000 0.18010  0.16600  0.72110  Biso   1.000  O
  O161     1.0000 0.51080  0.04870  0.85270  Biso   1.000  O
  O162     1.0000 0.21040  0.05650  0.56110  Biso   1.000  O
  O163     1.0000 0.49530  0.21090  0.95200  Biso   1.000  O
  O164     1.0000 0.26910  0.05780  0.56110  Biso   1.000  O
  O165     1.0000 0.51740  0.05920  0.79880  Biso   1.000  O
  O166     1.0000 0.28260  0.22980  0.73160  Biso   1.000  O
  O167     1.0000 0.48620  0.14860  0.95120  Biso   1.000  O
  O168     1.0000 0.22110  0.18010  0.66600  Biso   1.000  O
  O169     1.0000 0.80400  0.45130  0.96210  Biso   1.000  O
  O170     1.0000 0.50460  0.44350  0.65390  Biso   1.000  O
  O171     1.0000 0.74110  0.28910  0.78440  Biso   1.000  O
  O172     1.0000 0.50330  0.44220  0.71130  Biso   1.000  O
  O173     1.0000 0.73960  0.44080  0.95820  Biso   1.000  O
  O174     1.0000 0.50180  0.27020  0.55280  Biso   1.000  O
  O175     1.0000 0.80260  0.35140  0.83760  Biso   1.000  O
  O176     1.0000 0.48590  0.31990  0.54100  Biso   1.000  O
  O177     1.0000 0.98920  0.84190  0.53790  Biso   1.000  O
  O178     1.0000 0.28960  0.85070  0.84610  Biso   1.000  O
  O179     1.0000 0.00470  0.95670  0.71560  Biso   1.000  O
  O180     1.0000 0.23090  0.79200  0.78870  Biso   1.000  O
  O181     1.0000 0.98260  0.78140  0.54180  Biso   1.000  O
  O182     1.0000 0.21740  0.94900  0.94720  Biso   1.000  O
  O183     1.0000 0.01380  0.96500  0.66240  Biso   1.000  O
  O184     1.0000 0.27890  0.94490  0.95900  Biso   1.000  O
  O185     1.0000 0.69600  0.65810  0.64730  Biso   1.000  O
  O186     1.0000 0.99540  0.64930  0.93890  Biso   1.000  O
  O187     1.0000 0.75890  0.54330  0.54800  Biso   1.000  O
  O188     1.0000 0.99670  0.70800  0.93890  Biso   1.000  O
  O189     1.0000 0.76040  0.71860  0.70120  Biso   1.000  O
  O190     1.0000 0.99820  0.55100  0.76840  Biso   1.000  O
  O191     1.0000 0.69740  0.53500  0.54880  Biso   1.000  O
  O192     1.0000 0.01410  0.55510  0.83400  Biso   1.000  O
