data_image0
_cell_length_a       20.5223
_cell_length_b       20.5223
_cell_length_c       20.5223
_cell_angle_alpha    90
_cell_angle_beta     90
_cell_angle_gamma    90

_symmetry_space_group_name_H-M    P 1
_symmetry_int_tables_number       1

loop_
  _symmetry_equiv_pos_as_xyz
  'x, y, z'

loop_
  _atom_site_label
  _atom_site_occupancy
  _atom_site_fract_x
  _atom_site_fract_y
  _atom_site_fract_z
  _atom_site_thermal_displace_type
  _atom_site_B_iso_or_equiv
  _atom_site_type_symbol
  Zn1      1.0000 0.16283  0.10087  0.64202  Biso   1.000  Zn
  Zn2      1.0000 0.27718  0.00549  0.56126  Biso   1.000  Zn
  Zn3      1.0000 0.33717  0.89913  0.14202  Biso   1.000  Zn
  Zn4      1.0000 0.22282  0.99451  0.06126  Biso   1.000  Zn
  Zn5      1.0000 0.83717  0.60087  0.85798  Biso   1.000  Zn
  Zn6      1.0000 0.72282  0.50549  0.93874  Biso   1.000  Zn
  Zn7      1.0000 0.66283  0.39913  0.35798  Biso   1.000  Zn
  Zn8      1.0000 0.77718  0.49451  0.43874  Biso   1.000  Zn
  Zn9      1.0000 0.64202  0.16283  0.10087  Biso   1.000  Zn
  Zn10     1.0000 0.56126  0.27718  0.00549  Biso   1.000  Zn
  Zn11     1.0000 0.14202  0.33717  0.89913  Biso   1.000  Zn
  Zn12     1.0000 0.06126  0.22282  0.99451  Biso   1.000  Zn
  Zn13     1.0000 0.85798  0.83717  0.60087  Biso   1.000  Zn
  Zn14     1.0000 0.93874  0.72282  0.50549  Biso   1.000  Zn
  Zn15     1.0000 0.35798  0.66283  0.39913  Biso   1.000  Zn
  Zn16     1.0000 0.43874  0.77718  0.49451  Biso   1.000  Zn
  Zn17     1.0000 0.10087  0.64202  0.16283  Biso   1.000  Zn
  Zn18     1.0000 0.00549  0.56126  0.27718  Biso   1.000  Zn
  Zn19     1.0000 0.89913  0.14202  0.33717  Biso   1.000  Zn
  Zn20     1.0000 0.99451  0.06126  0.22282  Biso   1.000  Zn
  Zn21     1.0000 0.60087  0.85798  0.83717  Biso   1.000  Zn
  Zn22     1.0000 0.50549  0.93874  0.72282  Biso   1.000  Zn
  Zn23     1.0000 0.39913  0.35798  0.66283  Biso   1.000  Zn
  Zn24     1.0000 0.49451  0.43874  0.77718  Biso   1.000  Zn
  Zn25     1.0000 0.83717  0.89913  0.35798  Biso   1.000  Zn
  Zn26     1.0000 0.72282  0.99451  0.43874  Biso   1.000  Zn
  Zn27     1.0000 0.66283  0.10087  0.85798  Biso   1.000  Zn
  Zn28     1.0000 0.77718  0.00549  0.93874  Biso   1.000  Zn
  Zn29     1.0000 0.16283  0.39913  0.14202  Biso   1.000  Zn
  Zn30     1.0000 0.27718  0.49451  0.06126  Biso   1.000  Zn
  Zn31     1.0000 0.33717  0.60087  0.64202  Biso   1.000  Zn
  Zn32     1.0000 0.22282  0.50549  0.56126  Biso   1.000  Zn
  Zn33     1.0000 0.35798  0.83717  0.89913  Biso   1.000  Zn
  Zn34     1.0000 0.43874  0.72282  0.99451  Biso   1.000  Zn
  Zn35     1.0000 0.85798  0.66283  0.10087  Biso   1.000  Zn
  Zn36     1.0000 0.93874  0.77718  0.00549  Biso   1.000  Zn
  Zn37     1.0000 0.14202  0.16283  0.39913  Biso   1.000  Zn
  Zn38     1.0000 0.06126  0.27718  0.49451  Biso   1.000  Zn
  Zn39     1.0000 0.64202  0.33717  0.60087  Biso   1.000  Zn
  Zn40     1.0000 0.56126  0.22282  0.50549  Biso   1.000  Zn
  Zn41     1.0000 0.89913  0.35798  0.83717  Biso   1.000  Zn
  Zn42     1.0000 0.99451  0.43874  0.72282  Biso   1.000  Zn
  Zn43     1.0000 0.10087  0.85798  0.66283  Biso   1.000  Zn
  Zn44     1.0000 0.00549  0.93874  0.77718  Biso   1.000  Zn
  Zn45     1.0000 0.39913  0.14202  0.16283  Biso   1.000  Zn
  Zn46     1.0000 0.49451  0.06126  0.27718  Biso   1.000  Zn
  Zn47     1.0000 0.60087  0.64202  0.33717  Biso   1.000  Zn
  Zn48     1.0000 0.50549  0.56126  0.22282  Biso   1.000  Zn
  H1       1.0000 0.33880  0.19260  0.50270  Biso   1.000  H
  H2       1.0000 0.37810  0.20010  0.62050  Biso   1.000  H
  H3       1.0000 0.23690  0.30580  0.61090  Biso   1.000  H
  H4       1.0000 0.30050  0.29280  0.49140  Biso   1.000  H
  H5       1.0000 0.39420  0.00110  0.58620  Biso   1.000  H
  H6       1.0000 0.37440  0.94150  0.56520  Biso   1.000  H
  H7       1.0000 0.16500  0.99300  0.56900  Biso   1.000  H
  H8       1.0000 0.16700  0.04500  0.52800  Biso   1.000  H
  H9       1.0000 0.16120  0.80740  0.00270  Biso   1.000  H
  H10      1.0000 0.12190  0.79990  0.12050  Biso   1.000  H
  H11      1.0000 0.26310  0.69420  0.11090  Biso   1.000  H
  H12      1.0000 0.19950  0.70720  0.99140  Biso   1.000  H
  H13      1.0000 0.10580  0.99890  0.08620  Biso   1.000  H
  H14      1.0000 0.12560  0.05850  0.06520  Biso   1.000  H
  H15      1.0000 0.33500  0.00700  0.06900  Biso   1.000  H
  H16      1.0000 0.33300  0.95500  0.02800  Biso   1.000  H
  H17      1.0000 0.66120  0.69260  0.99730  Biso   1.000  H
  H18      1.0000 0.62190  0.70010  0.87950  Biso   1.000  H
  H19      1.0000 0.76310  0.80580  0.88910  Biso   1.000  H
  H20      1.0000 0.69950  0.79280  0.00860  Biso   1.000  H
  H21      1.0000 0.60580  0.50110  0.91380  Biso   1.000  H
  H22      1.0000 0.62560  0.44150  0.93480  Biso   1.000  H
  H23      1.0000 0.83500  0.49300  0.93100  Biso   1.000  H
  H24      1.0000 0.83300  0.54500  0.97200  Biso   1.000  H
  H25      1.0000 0.83880  0.30740  0.49730  Biso   1.000  H
  H26      1.0000 0.87810  0.29990  0.37950  Biso   1.000  H
  H27      1.0000 0.73690  0.19420  0.38910  Biso   1.000  H
  H28      1.0000 0.80050  0.20720  0.50860  Biso   1.000  H
  H29      1.0000 0.89420  0.49890  0.41380  Biso   1.000  H
  H30      1.0000 0.87440  0.55850  0.43480  Biso   1.000  H
  H31      1.0000 0.66500  0.50700  0.43100  Biso   1.000  H
  H32      1.0000 0.66700  0.45500  0.47200  Biso   1.000  H
  H33      1.0000 0.50270  0.33880  0.19260  Biso   1.000  H
  H34      1.0000 0.62050  0.37810  0.20010  Biso   1.000  H
  H35      1.0000 0.61090  0.23690  0.30580  Biso   1.000  H
  H36      1.0000 0.49140  0.30050  0.29280  Biso   1.000  H
  H37      1.0000 0.58620  0.39420  0.00110  Biso   1.000  H
  H38      1.0000 0.56520  0.37440  0.94150  Biso   1.000  H
  H39      1.0000 0.56900  0.16500  0.99300  Biso   1.000  H
  H40      1.0000 0.52800  0.16700  0.04500  Biso   1.000  H
  H41      1.0000 0.00270  0.16120  0.80740  Biso   1.000  H
  H42      1.0000 0.12050  0.12190  0.79990  Biso   1.000  H
  H43      1.0000 0.11090  0.26310  0.69420  Biso   1.000  H
  H44      1.0000 0.99140  0.19950  0.70720  Biso   1.000  H
  H45      1.0000 0.08620  0.10580  0.99890  Biso   1.000  H
  H46      1.0000 0.06520  0.12560  0.05850  Biso   1.000  H
  H47      1.0000 0.06900  0.33500  0.00700  Biso   1.000  H
  H48      1.0000 0.02800  0.33300  0.95500  Biso   1.000  H
  H49      1.0000 0.99730  0.66120  0.69260  Biso   1.000  H
  H50      1.0000 0.87950  0.62190  0.70010  Biso   1.000  H
  H51      1.0000 0.88910  0.76310  0.80580  Biso   1.000  H
  H52      1.0000 0.00860  0.69950  0.79280  Biso   1.000  H
  H53      1.0000 0.91380  0.60580  0.50110  Biso   1.000  H
  H54      1.0000 0.93480  0.62560  0.44150  Biso   1.000  H
  H55      1.0000 0.93100  0.83500  0.49300  Biso   1.000  H
  H56      1.0000 0.97200  0.83300  0.54500  Biso   1.000  H
  H57      1.0000 0.49730  0.83880  0.30740  Biso   1.000  H
  H58      1.0000 0.37950  0.87810  0.29990  Biso   1.000  H
  H59      1.0000 0.38910  0.73690  0.19420  Biso   1.000  H
  H60      1.0000 0.50860  0.80050  0.20720  Biso   1.000  H
  H61      1.0000 0.41380  0.89420  0.49890  Biso   1.000  H
  H62      1.0000 0.43480  0.87440  0.55850  Biso   1.000  H
  H63      1.0000 0.43100  0.66500  0.50700  Biso   1.000  H
  H64      1.0000 0.47200  0.66700  0.45500  Biso   1.000  H
  H65      1.0000 0.19260  0.50270  0.33880  Biso   1.000  H
  H66      1.0000 0.20010  0.62050  0.37810  Biso   1.000  H
  H67      1.0000 0.30580  0.61090  0.23690  Biso   1.000  H
  H68      1.0000 0.29280  0.49140  0.30050  Biso   1.000  H
  H69      1.0000 0.00110  0.58620  0.39420  Biso   1.000  H
  H70      1.0000 0.94150  0.56520  0.37440  Biso   1.000  H
  H71      1.0000 0.99300  0.56900  0.16500  Biso   1.000  H
  H72      1.0000 0.04500  0.52800  0.16700  Biso   1.000  H
  H73      1.0000 0.80740  0.00270  0.16120  Biso   1.000  H
  H74      1.0000 0.79990  0.12050  0.12190  Biso   1.000  H
  H75      1.0000 0.69420  0.11090  0.26310  Biso   1.000  H
  H76      1.0000 0.70720  0.99140  0.19950  Biso   1.000  H
  H77      1.0000 0.99890  0.08620  0.10580  Biso   1.000  H
  H78      1.0000 0.05850  0.06520  0.12560  Biso   1.000  H
  H79      1.0000 0.00700  0.06900  0.33500  Biso   1.000  H
  H80      1.0000 0.95500  0.02800  0.33300  Biso   1.000  H
  H81      1.0000 0.69260  0.99730  0.66120  Biso   1.000  H
  H82      1.0000 0.70010  0.87950  0.62190  Biso   1.000  H
  H83      1.0000 0.80580  0.88910  0.76310  Biso   1.000  H
  H84      1.0000 0.79280  0.00860  0.69950  Biso   1.000  H
  H85      1.0000 0.50110  0.91380  0.60580  Biso   1.000  H
  H86      1.0000 0.44150  0.93480  0.62560  Biso   1.000  H
  H87      1.0000 0.49300  0.93100  0.83500  Biso   1.000  H
  H88      1.0000 0.54500  0.97200  0.83300  Biso   1.000  H
  H89      1.0000 0.30740  0.49730  0.83880  Biso   1.000  H
  H90      1.0000 0.29990  0.37950  0.87810  Biso   1.000  H
  H91      1.0000 0.19420  0.38910  0.73690  Biso   1.000  H
  H92      1.0000 0.20720  0.50860  0.80050  Biso   1.000  H
  H93      1.0000 0.49890  0.41380  0.89420  Biso   1.000  H
  H94      1.0000 0.55850  0.43480  0.87440  Biso   1.000  H
  H95      1.0000 0.50700  0.43100  0.66500  Biso   1.000  H
  H96      1.0000 0.45500  0.47200  0.66700  Biso   1.000  H
  H97      1.0000 0.66120  0.80740  0.49730  Biso   1.000  H
  H98      1.0000 0.62190  0.79990  0.37950  Biso   1.000  H
  H99      1.0000 0.76310  0.69420  0.38910  Biso   1.000  H
  H100     1.0000 0.69950  0.70720  0.50860  Biso   1.000  H
  H101     1.0000 0.60580  0.99890  0.41380  Biso   1.000  H
  H102     1.0000 0.62560  0.05850  0.43480  Biso   1.000  H
  H103     1.0000 0.83500  0.00700  0.43100  Biso   1.000  H
  H104     1.0000 0.83300  0.95500  0.47200  Biso   1.000  H
  H105     1.0000 0.83880  0.19260  0.99730  Biso   1.000  H
  H106     1.0000 0.87810  0.20010  0.87950  Biso   1.000  H
  H107     1.0000 0.73690  0.30580  0.88910  Biso   1.000  H
  H108     1.0000 0.80050  0.29280  0.00860  Biso   1.000  H
  H109     1.0000 0.89420  0.00110  0.91380  Biso   1.000  H
  H110     1.0000 0.87440  0.94150  0.93480  Biso   1.000  H
  H111     1.0000 0.66500  0.99300  0.93100  Biso   1.000  H
  H112     1.0000 0.66700  0.04500  0.97200  Biso   1.000  H
  H113     1.0000 0.33880  0.30740  0.00270  Biso   1.000  H
  H114     1.0000 0.37810  0.29990  0.12050  Biso   1.000  H
  H115     1.0000 0.23690  0.19420  0.11090  Biso   1.000  H
  H116     1.0000 0.30050  0.20720  0.99140  Biso   1.000  H
  H117     1.0000 0.39420  0.49890  0.08620  Biso   1.000  H
  H118     1.0000 0.37440  0.55850  0.06520  Biso   1.000  H
  H119     1.0000 0.16500  0.50700  0.06900  Biso   1.000  H
  H120     1.0000 0.16700  0.45500  0.02800  Biso   1.000  H
  H121     1.0000 0.16120  0.69260  0.50270  Biso   1.000  H
  H122     1.0000 0.12190  0.70010  0.62050  Biso   1.000  H
  H123     1.0000 0.26310  0.80580  0.61090  Biso   1.000  H
  H124     1.0000 0.19950  0.79280  0.49140  Biso   1.000  H
  H125     1.0000 0.10580  0.50110  0.58620  Biso   1.000  H
  H126     1.0000 0.12560  0.44150  0.56520  Biso   1.000  H
  H127     1.0000 0.33500  0.49300  0.56900  Biso   1.000  H
  H128     1.0000 0.33300  0.54500  0.52800  Biso   1.000  H
  H129     1.0000 0.49730  0.66120  0.80740  Biso   1.000  H
  H130     1.0000 0.37950  0.62190  0.79990  Biso   1.000  H
  H131     1.0000 0.38910  0.76310  0.69420  Biso   1.000  H
  H132     1.0000 0.50860  0.69950  0.70720  Biso   1.000  H
  H133     1.0000 0.41380  0.60580  0.99890  Biso   1.000  H
  H134     1.0000 0.43480  0.62560  0.05850  Biso   1.000  H
  H135     1.0000 0.43100  0.83500  0.00700  Biso   1.000  H
  H136     1.0000 0.47200  0.83300  0.95500  Biso   1.000  H
  H137     1.0000 0.99730  0.83880  0.19260  Biso   1.000  H
  H138     1.0000 0.87950  0.87810  0.20010  Biso   1.000  H
  H139     1.0000 0.88910  0.73690  0.30580  Biso   1.000  H
  H140     1.0000 0.00860  0.80050  0.29280  Biso   1.000  H
  H141     1.0000 0.91380  0.89420  0.00110  Biso   1.000  H
  H142     1.0000 0.93480  0.87440  0.94150  Biso   1.000  H
  H143     1.0000 0.93100  0.66500  0.99300  Biso   1.000  H
  H144     1.0000 0.97200  0.66700  0.04500  Biso   1.000  H
  H145     1.0000 0.00270  0.33880  0.30740  Biso   1.000  H
  H146     1.0000 0.12050  0.37810  0.29990  Biso   1.000  H
  H147     1.0000 0.11090  0.23690  0.19420  Biso   1.000  H
  H148     1.0000 0.99140  0.30050  0.20720  Biso   1.000  H
  H149     1.0000 0.08620  0.39420  0.49890  Biso   1.000  H
  H150     1.0000 0.06520  0.37440  0.55850  Biso   1.000  H
  H151     1.0000 0.06900  0.16500  0.50700  Biso   1.000  H
  H152     1.0000 0.02800  0.16700  0.45500  Biso   1.000  H
  H153     1.0000 0.50270  0.16120  0.69260  Biso   1.000  H
  H154     1.0000 0.62050  0.12190  0.70010  Biso   1.000  H
  H155     1.0000 0.61090  0.26310  0.80580  Biso   1.000  H
  H156     1.0000 0.49140  0.19950  0.79280  Biso   1.000  H
  H157     1.0000 0.58620  0.10580  0.50110  Biso   1.000  H
  H158     1.0000 0.56520  0.12560  0.44150  Biso   1.000  H
  H159     1.0000 0.56900  0.33500  0.49300  Biso   1.000  H
  H160     1.0000 0.52800  0.33300  0.54500  Biso   1.000  H
  H161     1.0000 0.80740  0.49730  0.66120  Biso   1.000  H
  H162     1.0000 0.79990  0.37950  0.62190  Biso   1.000  H
  H163     1.0000 0.69420  0.38910  0.76310  Biso   1.000  H
  H164     1.0000 0.70720  0.50860  0.69950  Biso   1.000  H
  H165     1.0000 0.99890  0.41380  0.60580  Biso   1.000  H
  H166     1.0000 0.05850  0.43480  0.62560  Biso   1.000  H
  H167     1.0000 0.00700  0.43100  0.83500  Biso   1.000  H
  H168     1.0000 0.95500  0.47200  0.83300  Biso   1.000  H
  H169     1.0000 0.19260  0.99730  0.83880  Biso   1.000  H
  H170     1.0000 0.20010  0.87950  0.87810  Biso   1.000  H
  H171     1.0000 0.30580  0.88910  0.73690  Biso   1.000  H
  H172     1.0000 0.29280  0.00860  0.80050  Biso   1.000  H
  H173     1.0000 0.00110  0.91380  0.89420  Biso   1.000  H
  H174     1.0000 0.94150  0.93480  0.87440  Biso   1.000  H
  H175     1.0000 0.99300  0.93100  0.66500  Biso   1.000  H
  H176     1.0000 0.04500  0.97200  0.66700  Biso   1.000  H
  H177     1.0000 0.30740  0.00270  0.33880  Biso   1.000  H
  H178     1.0000 0.29990  0.12050  0.37810  Biso   1.000  H
  H179     1.0000 0.19420  0.11090  0.23690  Biso   1.000  H
  H180     1.0000 0.20720  0.99140  0.30050  Biso   1.000  H
  H181     1.0000 0.49890  0.08620  0.39420  Biso   1.000  H
  H182     1.0000 0.55850  0.06520  0.37440  Biso   1.000  H
  H183     1.0000 0.50700  0.06900  0.16500  Biso   1.000  H
  H184     1.0000 0.45500  0.02800  0.16700  Biso   1.000  H
  H185     1.0000 0.69260  0.50270  0.16120  Biso   1.000  H
  H186     1.0000 0.70010  0.62050  0.12190  Biso   1.000  H
  H187     1.0000 0.80580  0.61090  0.26310  Biso   1.000  H
  H188     1.0000 0.79280  0.49140  0.19950  Biso   1.000  H
  H189     1.0000 0.50110  0.58620  0.10580  Biso   1.000  H
  H190     1.0000 0.44150  0.56520  0.12560  Biso   1.000  H
  H191     1.0000 0.49300  0.56900  0.33500  Biso   1.000  H
  H192     1.0000 0.54500  0.52800  0.33300  Biso   1.000  H
  C1       1.0000 0.31638  0.20876  0.54158  Biso   1.000  C
  C2       1.0000 0.36616  0.23550  0.59070  Biso   1.000  C
  C3       1.0000 0.27830  0.31038  0.58758  Biso   1.000  C
  C4       1.0000 0.27624  0.26881  0.52475  Biso   1.000  C
  C5       1.0000 0.27876  0.15341  0.57436  Biso   1.000  C
  C6       1.0000 0.29074  0.38207  0.57383  Biso   1.000  C
  C7       1.0000 0.42865  0.26290  0.56111  Biso   1.000  C
  C8       1.0000 0.20934  0.25340  0.49598  Biso   1.000  C
  C9       1.0000 0.18362  0.79124  0.04158  Biso   1.000  C
  C10      1.0000 0.13384  0.76450  0.09070  Biso   1.000  C
  C11      1.0000 0.22170  0.68962  0.08758  Biso   1.000  C
  C12      1.0000 0.22376  0.73119  0.02475  Biso   1.000  C
  C13      1.0000 0.22124  0.84659  0.07436  Biso   1.000  C
  C14      1.0000 0.20926  0.61793  0.07383  Biso   1.000  C
  C15      1.0000 0.07135  0.73710  0.06111  Biso   1.000  C
  C16      1.0000 0.29066  0.74660  0.99598  Biso   1.000  C
  C17      1.0000 0.68362  0.70876  0.95842  Biso   1.000  C
  C18      1.0000 0.63384  0.73550  0.90930  Biso   1.000  C
  C19      1.0000 0.72170  0.81038  0.91242  Biso   1.000  C
  C20      1.0000 0.72376  0.76881  0.97525  Biso   1.000  C
  C21      1.0000 0.72124  0.65341  0.92564  Biso   1.000  C
  C22      1.0000 0.70926  0.88207  0.92617  Biso   1.000  C
  C23      1.0000 0.57135  0.76290  0.93889  Biso   1.000  C
  C24      1.0000 0.79066  0.75340  0.00402  Biso   1.000  C
  C25      1.0000 0.81638  0.29124  0.45842  Biso   1.000  C
  C26      1.0000 0.86616  0.26450  0.40930  Biso   1.000  C
  C27      1.0000 0.77830  0.18962  0.41242  Biso   1.000  C
  C28      1.0000 0.77624  0.23119  0.47525  Biso   1.000  C
  C29      1.0000 0.77876  0.34659  0.42564  Biso   1.000  C
  C30      1.0000 0.79074  0.11793  0.42617  Biso   1.000  C
  C31      1.0000 0.92865  0.23710  0.43889  Biso   1.000  C
  C32      1.0000 0.70934  0.24660  0.50402  Biso   1.000  C
  C33      1.0000 0.54158  0.31638  0.20876  Biso   1.000  C
  C34      1.0000 0.59070  0.36616  0.23550  Biso   1.000  C
  C35      1.0000 0.58758  0.27830  0.31038  Biso   1.000  C
  C36      1.0000 0.52475  0.27624  0.26881  Biso   1.000  C
  C37      1.0000 0.57436  0.27876  0.15341  Biso   1.000  C
  C38      1.0000 0.57383  0.29074  0.38207  Biso   1.000  C
  C39      1.0000 0.56111  0.42865  0.26290  Biso   1.000  C
  C40      1.0000 0.49598  0.20934  0.25340  Biso   1.000  C
  C41      1.0000 0.04158  0.18362  0.79124  Biso   1.000  C
  C42      1.0000 0.09070  0.13384  0.76450  Biso   1.000  C
  C43      1.0000 0.08758  0.22170  0.68962  Biso   1.000  C
  C44      1.0000 0.02475  0.22376  0.73119  Biso   1.000  C
  C45      1.0000 0.07436  0.22124  0.84659  Biso   1.000  C
  C46      1.0000 0.07383  0.20926  0.61793  Biso   1.000  C
  C47      1.0000 0.06111  0.07135  0.73710  Biso   1.000  C
  C48      1.0000 0.99598  0.29066  0.74660  Biso   1.000  C
  C49      1.0000 0.95842  0.68362  0.70876  Biso   1.000  C
  C50      1.0000 0.90930  0.63384  0.73550  Biso   1.000  C
  C51      1.0000 0.91242  0.72170  0.81038  Biso   1.000  C
  C52      1.0000 0.97525  0.72376  0.76881  Biso   1.000  C
  C53      1.0000 0.92564  0.72124  0.65341  Biso   1.000  C
  C54      1.0000 0.92617  0.70926  0.88207  Biso   1.000  C
  C55      1.0000 0.93889  0.57135  0.76290  Biso   1.000  C
  C56      1.0000 0.00402  0.79066  0.75340  Biso   1.000  C
  C57      1.0000 0.45842  0.81638  0.29124  Biso   1.000  C
  C58      1.0000 0.40930  0.86616  0.26450  Biso   1.000  C
  C59      1.0000 0.41242  0.77830  0.18962  Biso   1.000  C
  C60      1.0000 0.47525  0.77624  0.23119  Biso   1.000  C
  C61      1.0000 0.42564  0.77876  0.34659  Biso   1.000  C
  C62      1.0000 0.42617  0.79074  0.11793  Biso   1.000  C
  C63      1.0000 0.43889  0.92865  0.23710  Biso   1.000  C
  C64      1.0000 0.50402  0.70934  0.24660  Biso   1.000  C
  C65      1.0000 0.20876  0.54158  0.31638  Biso   1.000  C
  C66      1.0000 0.23550  0.59070  0.36616  Biso   1.000  C
  C67      1.0000 0.31038  0.58758  0.27830  Biso   1.000  C
  C68      1.0000 0.26881  0.52475  0.27624  Biso   1.000  C
  C69      1.0000 0.15341  0.57436  0.27876  Biso   1.000  C
  C70      1.0000 0.38207  0.57383  0.29074  Biso   1.000  C
  C71      1.0000 0.26290  0.56111  0.42865  Biso   1.000  C
  C72      1.0000 0.25340  0.49598  0.20934  Biso   1.000  C
  C73      1.0000 0.79124  0.04158  0.18362  Biso   1.000  C
  C74      1.0000 0.76450  0.09070  0.13384  Biso   1.000  C
  C75      1.0000 0.68962  0.08758  0.22170  Biso   1.000  C
  C76      1.0000 0.73119  0.02475  0.22376  Biso   1.000  C
  C77      1.0000 0.84659  0.07436  0.22124  Biso   1.000  C
  C78      1.0000 0.61793  0.07383  0.20926  Biso   1.000  C
  C79      1.0000 0.73710  0.06111  0.07135  Biso   1.000  C
  C80      1.0000 0.74660  0.99598  0.29066  Biso   1.000  C
  C81      1.0000 0.70876  0.95842  0.68362  Biso   1.000  C
  C82      1.0000 0.73550  0.90930  0.63384  Biso   1.000  C
  C83      1.0000 0.81038  0.91242  0.72170  Biso   1.000  C
  C84      1.0000 0.76881  0.97525  0.72376  Biso   1.000  C
  C85      1.0000 0.65341  0.92564  0.72124  Biso   1.000  C
  C86      1.0000 0.88207  0.92617  0.70926  Biso   1.000  C
  C87      1.0000 0.76290  0.93889  0.57135  Biso   1.000  C
  C88      1.0000 0.75340  0.00402  0.79066  Biso   1.000  C
  C89      1.0000 0.29124  0.45842  0.81638  Biso   1.000  C
  C90      1.0000 0.26450  0.40930  0.86616  Biso   1.000  C
  C91      1.0000 0.18962  0.41242  0.77830  Biso   1.000  C
  C92      1.0000 0.23119  0.47525  0.77624  Biso   1.000  C
  C93      1.0000 0.34659  0.42564  0.77876  Biso   1.000  C
  C94      1.0000 0.11793  0.42617  0.79074  Biso   1.000  C
  C95      1.0000 0.23710  0.43889  0.92865  Biso   1.000  C
  C96      1.0000 0.24660  0.50402  0.70934  Biso   1.000  C
  C97      1.0000 0.68362  0.79124  0.45842  Biso   1.000  C
  C98      1.0000 0.63384  0.76450  0.40930  Biso   1.000  C
  C99      1.0000 0.72170  0.68962  0.41242  Biso   1.000  C
  C100     1.0000 0.72376  0.73119  0.47525  Biso   1.000  C
  C101     1.0000 0.72124  0.84659  0.42564  Biso   1.000  C
  C102     1.0000 0.70926  0.61793  0.42617  Biso   1.000  C
  C103     1.0000 0.57135  0.73710  0.43889  Biso   1.000  C
  C104     1.0000 0.79066  0.74660  0.50402  Biso   1.000  C
  C105     1.0000 0.81638  0.20876  0.95842  Biso   1.000  C
  C106     1.0000 0.86616  0.23550  0.90930  Biso   1.000  C
  C107     1.0000 0.77830  0.31038  0.91242  Biso   1.000  C
  C108     1.0000 0.77624  0.26881  0.97525  Biso   1.000  C
  C109     1.0000 0.77876  0.15341  0.92564  Biso   1.000  C
  C110     1.0000 0.79074  0.38207  0.92617  Biso   1.000  C
  C111     1.0000 0.92865  0.26290  0.93889  Biso   1.000  C
  C112     1.0000 0.70934  0.25340  0.00402  Biso   1.000  C
  C113     1.0000 0.31638  0.29124  0.04158  Biso   1.000  C
  C114     1.0000 0.36616  0.26450  0.09070  Biso   1.000  C
  C115     1.0000 0.27830  0.18962  0.08758  Biso   1.000  C
  C116     1.0000 0.27624  0.23119  0.02475  Biso   1.000  C
  C117     1.0000 0.27876  0.34659  0.07436  Biso   1.000  C
  C118     1.0000 0.29074  0.11793  0.07383  Biso   1.000  C
  C119     1.0000 0.42865  0.23710  0.06111  Biso   1.000  C
  C120     1.0000 0.20934  0.24660  0.99598  Biso   1.000  C
  C121     1.0000 0.18362  0.70876  0.54158  Biso   1.000  C
  C122     1.0000 0.13384  0.73550  0.59070  Biso   1.000  C
  C123     1.0000 0.22170  0.81038  0.58758  Biso   1.000  C
  C124     1.0000 0.22376  0.76881  0.52475  Biso   1.000  C
  C125     1.0000 0.22124  0.65341  0.57436  Biso   1.000  C
  C126     1.0000 0.20926  0.88207  0.57383  Biso   1.000  C
  C127     1.0000 0.07135  0.76290  0.56111  Biso   1.000  C
  C128     1.0000 0.29066  0.75340  0.49598  Biso   1.000  C
  C129     1.0000 0.45842  0.68362  0.79124  Biso   1.000  C
  C130     1.0000 0.40930  0.63384  0.76450  Biso   1.000  C
  C131     1.0000 0.41242  0.72170  0.68962  Biso   1.000  C
  C132     1.0000 0.47525  0.72376  0.73119  Biso   1.000  C
  C133     1.0000 0.42564  0.72124  0.84659  Biso   1.000  C
  C134     1.0000 0.42617  0.70926  0.61793  Biso   1.000  C
  C135     1.0000 0.43889  0.57135  0.73710  Biso   1.000  C
  C136     1.0000 0.50402  0.79066  0.74660  Biso   1.000  C
  C137     1.0000 0.95842  0.81638  0.20876  Biso   1.000  C
  C138     1.0000 0.90930  0.86616  0.23550  Biso   1.000  C
  C139     1.0000 0.91242  0.77830  0.31038  Biso   1.000  C
  C140     1.0000 0.97525  0.77624  0.26881  Biso   1.000  C
  C141     1.0000 0.92564  0.77876  0.15341  Biso   1.000  C
  C142     1.0000 0.92617  0.79074  0.38207  Biso   1.000  C
  C143     1.0000 0.93889  0.92865  0.26290  Biso   1.000  C
  C144     1.0000 0.00402  0.70934  0.25340  Biso   1.000  C
  C145     1.0000 0.04158  0.31638  0.29124  Biso   1.000  C
  C146     1.0000 0.09070  0.36616  0.26450  Biso   1.000  C
  C147     1.0000 0.08758  0.27830  0.18962  Biso   1.000  C
  C148     1.0000 0.02475  0.27624  0.23119  Biso   1.000  C
  C149     1.0000 0.07436  0.27876  0.34659  Biso   1.000  C
  C150     1.0000 0.07383  0.29074  0.11793  Biso   1.000  C
  C151     1.0000 0.06111  0.42865  0.23710  Biso   1.000  C
  C152     1.0000 0.99598  0.20934  0.24660  Biso   1.000  C
  C153     1.0000 0.54158  0.18362  0.70876  Biso   1.000  C
  C154     1.0000 0.59070  0.13384  0.73550  Biso   1.000  C
  C155     1.0000 0.58758  0.22170  0.81038  Biso   1.000  C
  C156     1.0000 0.52475  0.22376  0.76881  Biso   1.000  C
  C157     1.0000 0.57436  0.22124  0.65341  Biso   1.000  C
  C158     1.0000 0.57383  0.20926  0.88207  Biso   1.000  C
  C159     1.0000 0.56111  0.07135  0.76290  Biso   1.000  C
  C160     1.0000 0.49598  0.29066  0.75340  Biso   1.000  C
  C161     1.0000 0.79124  0.45842  0.68362  Biso   1.000  C
  C162     1.0000 0.76450  0.40930  0.63384  Biso   1.000  C
  C163     1.0000 0.68962  0.41242  0.72170  Biso   1.000  C
  C164     1.0000 0.73119  0.47525  0.72376  Biso   1.000  C
  C165     1.0000 0.84659  0.42564  0.72124  Biso   1.000  C
  C166     1.0000 0.61793  0.42617  0.70926  Biso   1.000  C
  C167     1.0000 0.73710  0.43889  0.57135  Biso   1.000  C
  C168     1.0000 0.74660  0.50402  0.79066  Biso   1.000  C
  C169     1.0000 0.20876  0.95842  0.81638  Biso   1.000  C
  C170     1.0000 0.23550  0.90930  0.86616  Biso   1.000  C
  C171     1.0000 0.31038  0.91242  0.77830  Biso   1.000  C
  C172     1.0000 0.26881  0.97525  0.77624  Biso   1.000  C
  C173     1.0000 0.15341  0.92564  0.77876  Biso   1.000  C
  C174     1.0000 0.38207  0.92617  0.79074  Biso   1.000  C
  C175     1.0000 0.26290  0.93889  0.92865  Biso   1.000  C
  C176     1.0000 0.25340  0.00402  0.70934  Biso   1.000  C
  C177     1.0000 0.29124  0.04158  0.31638  Biso   1.000  C
  C178     1.0000 0.26450  0.09070  0.36616  Biso   1.000  C
  C179     1.0000 0.18962  0.08758  0.27830  Biso   1.000  C
  C180     1.0000 0.23119  0.02475  0.27624  Biso   1.000  C
  C181     1.0000 0.34659  0.07436  0.27876  Biso   1.000  C
  C182     1.0000 0.11793  0.07383  0.29074  Biso   1.000  C
  C183     1.0000 0.23710  0.06111  0.42865  Biso   1.000  C
  C184     1.0000 0.24660  0.99598  0.20934  Biso   1.000  C
  C185     1.0000 0.70876  0.54158  0.18362  Biso   1.000  C
  C186     1.0000 0.73550  0.59070  0.13384  Biso   1.000  C
  C187     1.0000 0.81038  0.58758  0.22170  Biso   1.000  C
  C188     1.0000 0.76881  0.52475  0.22376  Biso   1.000  C
  C189     1.0000 0.65341  0.57436  0.22124  Biso   1.000  C
  C190     1.0000 0.88207  0.57383  0.20926  Biso   1.000  C
  C191     1.0000 0.76290  0.56111  0.07135  Biso   1.000  C
  C192     1.0000 0.75340  0.49598  0.29066  Biso   1.000  C
  O1       1.0000 0.22765  0.16639  0.60451  Biso   1.000  O
  O2       1.0000 0.30419  0.09908  0.57060  Biso   1.000  O
  O3       1.0000 0.24543  0.41045  0.54304  Biso   1.000  O
  O4       1.0000 0.34190  0.40845  0.59259  Biso   1.000  O
  O5       1.0000 0.44776  0.31826  0.57961  Biso   1.000  O
  O6       1.0000 0.45805  0.22745  0.52193  Biso   1.000  O
  O7       1.0000 0.21053  0.21397  0.44910  Biso   1.000  O
  O8       1.0000 0.15979  0.28095  0.51853  Biso   1.000  O
  O9       1.0000 0.33076  0.28392  0.62742  Biso   1.000  O
  O10      1.0000 0.37470  0.98170  0.55520  Biso   1.000  O
  O11      1.0000 0.17170  0.03358  0.56740  Biso   1.000  O
  O12      1.0000 0.27235  0.83361  0.10451  Biso   1.000  O
  O13      1.0000 0.19581  0.90092  0.07060  Biso   1.000  O
  O14      1.0000 0.25457  0.58955  0.04304  Biso   1.000  O
  O15      1.0000 0.15810  0.59155  0.09259  Biso   1.000  O
  O16      1.0000 0.05224  0.68174  0.07961  Biso   1.000  O
  O17      1.0000 0.04195  0.77255  0.02193  Biso   1.000  O
  O18      1.0000 0.28947  0.78603  0.94910  Biso   1.000  O
  O19      1.0000 0.34021  0.71905  0.01853  Biso   1.000  O
  O20      1.0000 0.16924  0.71608  0.12742  Biso   1.000  O
  O21      1.0000 0.12530  0.01830  0.05520  Biso   1.000  O
  O22      1.0000 0.32830  0.96642  0.06740  Biso   1.000  O
  O23      1.0000 0.77235  0.66639  0.89549  Biso   1.000  O
  O24      1.0000 0.69581  0.59908  0.92940  Biso   1.000  O
  O25      1.0000 0.75457  0.91045  0.95696  Biso   1.000  O
  O26      1.0000 0.65810  0.90845  0.90741  Biso   1.000  O
  O27      1.0000 0.55224  0.81826  0.92039  Biso   1.000  O
  O28      1.0000 0.54195  0.72745  0.97807  Biso   1.000  O
  O29      1.0000 0.78947  0.71397  0.05090  Biso   1.000  O
  O30      1.0000 0.84021  0.78095  0.98147  Biso   1.000  O
  O31      1.0000 0.66924  0.78392  0.87258  Biso   1.000  O
  O32      1.0000 0.62530  0.48170  0.94480  Biso   1.000  O
  O33      1.0000 0.82830  0.53358  0.93260  Biso   1.000  O
  O34      1.0000 0.72765  0.33361  0.39549  Biso   1.000  O
  O35      1.0000 0.80419  0.40092  0.42940  Biso   1.000  O
  O36      1.0000 0.74543  0.08955  0.45696  Biso   1.000  O
  O37      1.0000 0.84190  0.09155  0.40741  Biso   1.000  O
  O38      1.0000 0.94776  0.18174  0.42039  Biso   1.000  O
  O39      1.0000 0.95805  0.27255  0.47807  Biso   1.000  O
  O40      1.0000 0.71053  0.28603  0.55090  Biso   1.000  O
  O41      1.0000 0.65979  0.21905  0.48147  Biso   1.000  O
  O42      1.0000 0.83076  0.21608  0.37258  Biso   1.000  O
  O43      1.0000 0.87470  0.51830  0.44480  Biso   1.000  O
  O44      1.0000 0.67170  0.46642  0.43260  Biso   1.000  O
  O45      1.0000 0.60451  0.22765  0.16639  Biso   1.000  O
  O46      1.0000 0.57060  0.30419  0.09908  Biso   1.000  O
  O47      1.0000 0.54304  0.24543  0.41045  Biso   1.000  O
  O48      1.0000 0.59259  0.34190  0.40845  Biso   1.000  O
  O49      1.0000 0.57961  0.44776  0.31826  Biso   1.000  O
  O50      1.0000 0.52193  0.45805  0.22745  Biso   1.000  O
  O51      1.0000 0.44910  0.21053  0.21397  Biso   1.000  O
  O52      1.0000 0.51853  0.15979  0.28095  Biso   1.000  O
  O53      1.0000 0.62742  0.33076  0.28392  Biso   1.000  O
  O54      1.0000 0.55520  0.37470  0.98170  Biso   1.000  O
  O55      1.0000 0.56740  0.17170  0.03358  Biso   1.000  O
  O56      1.0000 0.10451  0.27235  0.83361  Biso   1.000  O
  O57      1.0000 0.07060  0.19581  0.90092  Biso   1.000  O
  O58      1.0000 0.04304  0.25457  0.58955  Biso   1.000  O
  O59      1.0000 0.09259  0.15810  0.59155  Biso   1.000  O
  O60      1.0000 0.07961  0.05224  0.68174  Biso   1.000  O
  O61      1.0000 0.02193  0.04195  0.77255  Biso   1.000  O
  O62      1.0000 0.94910  0.28947  0.78603  Biso   1.000  O
  O63      1.0000 0.01853  0.34021  0.71905  Biso   1.000  O
  O64      1.0000 0.12742  0.16924  0.71608  Biso   1.000  O
  O65      1.0000 0.05520  0.12530  0.01830  Biso   1.000  O
  O66      1.0000 0.06740  0.32830  0.96642  Biso   1.000  O
  O67      1.0000 0.89549  0.77235  0.66639  Biso   1.000  O
  O68      1.0000 0.92940  0.69581  0.59908  Biso   1.000  O
  O69      1.0000 0.95696  0.75457  0.91045  Biso   1.000  O
  O70      1.0000 0.90741  0.65810  0.90845  Biso   1.000  O
  O71      1.0000 0.92039  0.55224  0.81826  Biso   1.000  O
  O72      1.0000 0.97807  0.54195  0.72745  Biso   1.000  O
  O73      1.0000 0.05090  0.78947  0.71397  Biso   1.000  O
  O74      1.0000 0.98147  0.84021  0.78095  Biso   1.000  O
  O75      1.0000 0.87258  0.66924  0.78392  Biso   1.000  O
  O76      1.0000 0.94480  0.62530  0.48170  Biso   1.000  O
  O77      1.0000 0.93260  0.82830  0.53358  Biso   1.000  O
  O78      1.0000 0.39549  0.72765  0.33361  Biso   1.000  O
  O79      1.0000 0.42940  0.80419  0.40092  Biso   1.000  O
  O80      1.0000 0.45696  0.74543  0.08955  Biso   1.000  O
  O81      1.0000 0.40741  0.84190  0.09155  Biso   1.000  O
  O82      1.0000 0.42039  0.94776  0.18174  Biso   1.000  O
  O83      1.0000 0.47807  0.95805  0.27255  Biso   1.000  O
  O84      1.0000 0.55090  0.71053  0.28603  Biso   1.000  O
  O85      1.0000 0.48147  0.65979  0.21905  Biso   1.000  O
  O86      1.0000 0.37258  0.83076  0.21608  Biso   1.000  O
  O87      1.0000 0.44480  0.87470  0.51830  Biso   1.000  O
  O88      1.0000 0.43260  0.67170  0.46642  Biso   1.000  O
  O89      1.0000 0.16639  0.60451  0.22765  Biso   1.000  O
  O90      1.0000 0.09908  0.57060  0.30419  Biso   1.000  O
  O91      1.0000 0.41045  0.54304  0.24543  Biso   1.000  O
  O92      1.0000 0.40845  0.59259  0.34190  Biso   1.000  O
  O93      1.0000 0.31826  0.57961  0.44776  Biso   1.000  O
  O94      1.0000 0.22745  0.52193  0.45805  Biso   1.000  O
  O95      1.0000 0.21397  0.44910  0.21053  Biso   1.000  O
  O96      1.0000 0.28095  0.51853  0.15979  Biso   1.000  O
  O97      1.0000 0.28392  0.62742  0.33076  Biso   1.000  O
  O98      1.0000 0.98170  0.55520  0.37470  Biso   1.000  O
  O99      1.0000 0.03358  0.56740  0.17170  Biso   1.000  O
  O100     1.0000 0.83361  0.10451  0.27235  Biso   1.000  O
  O101     1.0000 0.90092  0.07060  0.19581  Biso   1.000  O
  O102     1.0000 0.58955  0.04304  0.25457  Biso   1.000  O
  O103     1.0000 0.59155  0.09259  0.15810  Biso   1.000  O
  O104     1.0000 0.68174  0.07961  0.05224  Biso   1.000  O
  O105     1.0000 0.77255  0.02193  0.04195  Biso   1.000  O
  O106     1.0000 0.78603  0.94910  0.28947  Biso   1.000  O
  O107     1.0000 0.71905  0.01853  0.34021  Biso   1.000  O
  O108     1.0000 0.71608  0.12742  0.16924  Biso   1.000  O
  O109     1.0000 0.01830  0.05520  0.12530  Biso   1.000  O
  O110     1.0000 0.96642  0.06740  0.32830  Biso   1.000  O
  O111     1.0000 0.66639  0.89549  0.77235  Biso   1.000  O
  O112     1.0000 0.59908  0.92940  0.69581  Biso   1.000  O
  O113     1.0000 0.91045  0.95696  0.75457  Biso   1.000  O
  O114     1.0000 0.90845  0.90741  0.65810  Biso   1.000  O
  O115     1.0000 0.81826  0.92039  0.55224  Biso   1.000  O
  O116     1.0000 0.72745  0.97807  0.54195  Biso   1.000  O
  O117     1.0000 0.71397  0.05090  0.78947  Biso   1.000  O
  O118     1.0000 0.78095  0.98147  0.84021  Biso   1.000  O
  O119     1.0000 0.78392  0.87258  0.66924  Biso   1.000  O
  O120     1.0000 0.48170  0.94480  0.62530  Biso   1.000  O
  O121     1.0000 0.53358  0.93260  0.82830  Biso   1.000  O
  O122     1.0000 0.33361  0.39549  0.72765  Biso   1.000  O
  O123     1.0000 0.40092  0.42940  0.80419  Biso   1.000  O
  O124     1.0000 0.08955  0.45696  0.74543  Biso   1.000  O
  O125     1.0000 0.09155  0.40741  0.84190  Biso   1.000  O
  O126     1.0000 0.18174  0.42039  0.94776  Biso   1.000  O
  O127     1.0000 0.27255  0.47807  0.95805  Biso   1.000  O
  O128     1.0000 0.28603  0.55090  0.71053  Biso   1.000  O
  O129     1.0000 0.21905  0.48147  0.65979  Biso   1.000  O
  O130     1.0000 0.21608  0.37258  0.83076  Biso   1.000  O
  O131     1.0000 0.51830  0.44480  0.87470  Biso   1.000  O
  O132     1.0000 0.46642  0.43260  0.67170  Biso   1.000  O
  O133     1.0000 0.77235  0.83361  0.39549  Biso   1.000  O
  O134     1.0000 0.69581  0.90092  0.42940  Biso   1.000  O
  O135     1.0000 0.75457  0.58955  0.45696  Biso   1.000  O
  O136     1.0000 0.65810  0.59155  0.40741  Biso   1.000  O
  O137     1.0000 0.55224  0.68174  0.42039  Biso   1.000  O
  O138     1.0000 0.54195  0.77255  0.47807  Biso   1.000  O
  O139     1.0000 0.78947  0.78603  0.55090  Biso   1.000  O
  O140     1.0000 0.84021  0.71905  0.48147  Biso   1.000  O
  O141     1.0000 0.66924  0.71608  0.37258  Biso   1.000  O
  O142     1.0000 0.62530  0.01830  0.44480  Biso   1.000  O
  O143     1.0000 0.82830  0.96642  0.43260  Biso   1.000  O
  O144     1.0000 0.72765  0.16639  0.89549  Biso   1.000  O
  O145     1.0000 0.80419  0.09908  0.92940  Biso   1.000  O
  O146     1.0000 0.74543  0.41045  0.95696  Biso   1.000  O
  O147     1.0000 0.84190  0.40845  0.90741  Biso   1.000  O
  O148     1.0000 0.94776  0.31826  0.92039  Biso   1.000  O
  O149     1.0000 0.95805  0.22745  0.97807  Biso   1.000  O
  O150     1.0000 0.71053  0.21397  0.05090  Biso   1.000  O
  O151     1.0000 0.65979  0.28095  0.98147  Biso   1.000  O
  O152     1.0000 0.83076  0.28392  0.87258  Biso   1.000  O
  O153     1.0000 0.87470  0.98170  0.94480  Biso   1.000  O
  O154     1.0000 0.67170  0.03358  0.93260  Biso   1.000  O
  O155     1.0000 0.22765  0.33361  0.10451  Biso   1.000  O
  O156     1.0000 0.30419  0.40092  0.07060  Biso   1.000  O
  O157     1.0000 0.24543  0.08955  0.04304  Biso   1.000  O
  O158     1.0000 0.34190  0.09155  0.09259  Biso   1.000  O
  O159     1.0000 0.44776  0.18174  0.07961  Biso   1.000  O
  O160     1.0000 0.45805  0.27255  0.02193  Biso   1.000  O
  O161     1.0000 0.21053  0.28603  0.94910  Biso   1.000  O
  O162     1.0000 0.15979  0.21905  0.01853  Biso   1.000  O
  O163     1.0000 0.33076  0.21608  0.12742  Biso   1.000  O
  O164     1.0000 0.37470  0.51830  0.05520  Biso   1.000  O
  O165     1.0000 0.17170  0.46642  0.06740  Biso   1.000  O
  O166     1.0000 0.27235  0.66639  0.60451  Biso   1.000  O
  O167     1.0000 0.19581  0.59908  0.57060  Biso   1.000  O
  O168     1.0000 0.25457  0.91045  0.54304  Biso   1.000  O
  O169     1.0000 0.15810  0.90845  0.59259  Biso   1.000  O
  O170     1.0000 0.05224  0.81826  0.57961  Biso   1.000  O
  O171     1.0000 0.04195  0.72745  0.52193  Biso   1.000  O
  O172     1.0000 0.28947  0.71397  0.44910  Biso   1.000  O
  O173     1.0000 0.34021  0.78095  0.51853  Biso   1.000  O
  O174     1.0000 0.16924  0.78392  0.62742  Biso   1.000  O
  O175     1.0000 0.12530  0.48170  0.55520  Biso   1.000  O
  O176     1.0000 0.32830  0.53358  0.56740  Biso   1.000  O
  O177     1.0000 0.39549  0.77235  0.83361  Biso   1.000  O
  O178     1.0000 0.42940  0.69581  0.90092  Biso   1.000  O
  O179     1.0000 0.45696  0.75457  0.58955  Biso   1.000  O
  O180     1.0000 0.40741  0.65810  0.59155  Biso   1.000  O
  O181     1.0000 0.42039  0.55224  0.68174  Biso   1.000  O
  O182     1.0000 0.47807  0.54195  0.77255  Biso   1.000  O
  O183     1.0000 0.55090  0.78947  0.78603  Biso   1.000  O
  O184     1.0000 0.48147  0.84021  0.71905  Biso   1.000  O
  O185     1.0000 0.37258  0.66924  0.71608  Biso   1.000  O
  O186     1.0000 0.44480  0.62530  0.01830  Biso   1.000  O
  O187     1.0000 0.43260  0.82830  0.96642  Biso   1.000  O
  O188     1.0000 0.89549  0.72765  0.16639  Biso   1.000  O
  O189     1.0000 0.92940  0.80419  0.09908  Biso   1.000  O
  O190     1.0000 0.95696  0.74543  0.41045  Biso   1.000  O
  O191     1.0000 0.90741  0.84190  0.40845  Biso   1.000  O
  O192     1.0000 0.92039  0.94776  0.31826  Biso   1.000  O
  O193     1.0000 0.97807  0.95805  0.22745  Biso   1.000  O
  O194     1.0000 0.05090  0.71053  0.21397  Biso   1.000  O
  O195     1.0000 0.98147  0.65979  0.28095  Biso   1.000  O
  O196     1.0000 0.87258  0.83076  0.28392  Biso   1.000  O
  O197     1.0000 0.94480  0.87470  0.98170  Biso   1.000  O
  O198     1.0000 0.93260  0.67170  0.03358  Biso   1.000  O
  O199     1.0000 0.10451  0.22765  0.33361  Biso   1.000  O
  O200     1.0000 0.07060  0.30419  0.40092  Biso   1.000  O
  O201     1.0000 0.04304  0.24543  0.08955  Biso   1.000  O
  O202     1.0000 0.09259  0.34190  0.09155  Biso   1.000  O
  O203     1.0000 0.07961  0.44776  0.18174  Biso   1.000  O
  O204     1.0000 0.02193  0.45805  0.27255  Biso   1.000  O
  O205     1.0000 0.94910  0.21053  0.28603  Biso   1.000  O
  O206     1.0000 0.01853  0.15979  0.21905  Biso   1.000  O
  O207     1.0000 0.12742  0.33076  0.21608  Biso   1.000  O
  O208     1.0000 0.05520  0.37470  0.51830  Biso   1.000  O
  O209     1.0000 0.06740  0.17170  0.46642  Biso   1.000  O
  O210     1.0000 0.60451  0.27235  0.66639  Biso   1.000  O
  O211     1.0000 0.57060  0.19581  0.59908  Biso   1.000  O
  O212     1.0000 0.54304  0.25457  0.91045  Biso   1.000  O
  O213     1.0000 0.59259  0.15810  0.90845  Biso   1.000  O
  O214     1.0000 0.57961  0.05224  0.81826  Biso   1.000  O
  O215     1.0000 0.52193  0.04195  0.72745  Biso   1.000  O
  O216     1.0000 0.44910  0.28947  0.71397  Biso   1.000  O
  O217     1.0000 0.51853  0.34021  0.78095  Biso   1.000  O
  O218     1.0000 0.62742  0.16924  0.78392  Biso   1.000  O
  O219     1.0000 0.55520  0.12530  0.48170  Biso   1.000  O
  O220     1.0000 0.56740  0.32830  0.53358  Biso   1.000  O
  O221     1.0000 0.83361  0.39549  0.77235  Biso   1.000  O
  O222     1.0000 0.90092  0.42940  0.69581  Biso   1.000  O
  O223     1.0000 0.58955  0.45696  0.75457  Biso   1.000  O
  O224     1.0000 0.59155  0.40741  0.65810  Biso   1.000  O
  O225     1.0000 0.68174  0.42039  0.55224  Biso   1.000  O
  O226     1.0000 0.77255  0.47807  0.54195  Biso   1.000  O
  O227     1.0000 0.78603  0.55090  0.78947  Biso   1.000  O
  O228     1.0000 0.71905  0.48147  0.84021  Biso   1.000  O
  O229     1.0000 0.71608  0.37258  0.66924  Biso   1.000  O
  O230     1.0000 0.01830  0.44480  0.62530  Biso   1.000  O
  O231     1.0000 0.96642  0.43260  0.82830  Biso   1.000  O
  O232     1.0000 0.16639  0.89549  0.72765  Biso   1.000  O
  O233     1.0000 0.09908  0.92940  0.80419  Biso   1.000  O
  O234     1.0000 0.41045  0.95696  0.74543  Biso   1.000  O
  O235     1.0000 0.40845  0.90741  0.84190  Biso   1.000  O
  O236     1.0000 0.31826  0.92039  0.94776  Biso   1.000  O
  O237     1.0000 0.22745  0.97807  0.95805  Biso   1.000  O
  O238     1.0000 0.21397  0.05090  0.71053  Biso   1.000  O
  O239     1.0000 0.28095  0.98147  0.65979  Biso   1.000  O
  O240     1.0000 0.28392  0.87258  0.83076  Biso   1.000  O
  O241     1.0000 0.98170  0.94480  0.87470  Biso   1.000  O
  O242     1.0000 0.03358  0.93260  0.67170  Biso   1.000  O
  O243     1.0000 0.33361  0.10451  0.22765  Biso   1.000  O
  O244     1.0000 0.40092  0.07060  0.30419  Biso   1.000  O
  O245     1.0000 0.08955  0.04304  0.24543  Biso   1.000  O
  O246     1.0000 0.09155  0.09259  0.34190  Biso   1.000  O
  O247     1.0000 0.18174  0.07961  0.44776  Biso   1.000  O
  O248     1.0000 0.27255  0.02193  0.45805  Biso   1.000  O
  O249     1.0000 0.28603  0.94910  0.21053  Biso   1.000  O
  O250     1.0000 0.21905  0.01853  0.15979  Biso   1.000  O
  O251     1.0000 0.21608  0.12742  0.33076  Biso   1.000  O
  O252     1.0000 0.51830  0.05520  0.37470  Biso   1.000  O
  O253     1.0000 0.46642  0.06740  0.17170  Biso   1.000  O
  O254     1.0000 0.66639  0.60451  0.27235  Biso   1.000  O
  O255     1.0000 0.59908  0.57060  0.19581  Biso   1.000  O
  O256     1.0000 0.91045  0.54304  0.25457  Biso   1.000  O
  O257     1.0000 0.90845  0.59259  0.15810  Biso   1.000  O
  O258     1.0000 0.81826  0.57961  0.05224  Biso   1.000  O
  O259     1.0000 0.72745  0.52193  0.04195  Biso   1.000  O
  O260     1.0000 0.71397  0.44910  0.28947  Biso   1.000  O
  O261     1.0000 0.78095  0.51853  0.34021  Biso   1.000  O
  O262     1.0000 0.78392  0.62742  0.16924  Biso   1.000  O
  O263     1.0000 0.48170  0.55520  0.12530  Biso   1.000  O
  O264     1.0000 0.53358  0.56740  0.32830  Biso   1.000  O
