data_image0
_cell_length_a       32.2214
_cell_length_b       32.2214
_cell_length_c       35.9941
_cell_angle_alpha    63.4107
_cell_angle_beta     63.4107
_cell_angle_gamma    60

_symmetry_space_group_name_H-M    P 1
_symmetry_int_tables_number       1

loop_
  _symmetry_equiv_pos_as_xyz
  'x, y, z'

loop_
  _atom_site_label
  _atom_site_occupancy
  _atom_site_fract_x
  _atom_site_fract_y
  _atom_site_fract_z
  _atom_site_thermal_displace_type
  _atom_site_B_iso_or_equiv
  _atom_site_type_symbol
  Mg1      1.0000 0.54218  0.08577  0.70912  Biso   1.000  Mg
  Mg2      1.0000 0.08577  0.66293  0.70912  Biso   1.000  Mg
  Mg3      1.0000 0.66293  0.54218  0.70912  Biso   1.000  Mg
  Mg4      1.0000 0.95782  0.83707  0.79088  Biso   1.000  Mg
  Mg5      1.0000 0.41423  0.95782  0.79088  Biso   1.000  Mg
  Mg6      1.0000 0.83707  0.41423  0.79088  Biso   1.000  Mg
  Mg7      1.0000 0.45782  0.91423  0.29088  Biso   1.000  Mg
  Mg8      1.0000 0.91423  0.33707  0.29088  Biso   1.000  Mg
  Mg9      1.0000 0.33707  0.45782  0.29088  Biso   1.000  Mg
  Mg10     1.0000 0.04218  0.16293  0.20912  Biso   1.000  Mg
  Mg11     1.0000 0.58577  0.04218  0.20912  Biso   1.000  Mg
  Mg12     1.0000 0.16293  0.58577  0.20912  Biso   1.000  Mg
  In1      1.0000 0.44076  0.05317  0.79884  Biso   1.000  In
  In2      1.0000 0.05317  0.70723  0.79884  Biso   1.000  In
  In3      1.0000 0.70723  0.44076  0.79884  Biso   1.000  In
  In4      1.0000 0.05924  0.79277  0.70115  Biso   1.000  In
  In5      1.0000 0.44684  0.05924  0.70115  Biso   1.000  In
  In6      1.0000 0.79277  0.44683  0.70116  Biso   1.000  In
  In7      1.0000 0.55924  0.94683  0.20116  Biso   1.000  In
  In8      1.0000 0.94684  0.29277  0.20115  Biso   1.000  In
  In9      1.0000 0.29277  0.55924  0.20115  Biso   1.000  In
  In10     1.0000 0.94076  0.20723  0.29884  Biso   1.000  In
  In11     1.0000 0.55316  0.94076  0.29885  Biso   1.000  In
  In12     1.0000 0.20723  0.55316  0.29885  Biso   1.000  In
  H1       1.0000 0.64950  0.74670  0.81580  Biso   1.000  H
  H2       1.0000 0.70740  0.86030  0.76900  Biso   1.000  H
  H3       1.0000 0.59280  0.81640  0.84820  Biso   1.000  H
  H4       1.0000 0.65210  0.94260  0.75100  Biso   1.000  H
  H5       1.0000 0.53820  0.89840  0.83140  Biso   1.000  H
  H6       1.0000 0.30450  0.70780  0.14130  Biso   1.000  H
  H7       1.0000 0.39290  0.63930  0.21690  Biso   1.000  H
  H8       1.0000 0.34130  0.76650  0.10230  Biso   1.000  H
  H9       1.0000 0.43090  0.69630  0.17730  Biso   1.000  H
  H10      1.0000 0.43940  0.85210  0.22770  Biso   1.000  H
  H11      1.0000 0.54180  0.88940  0.11850  Biso   1.000  H
  H12      1.0000 0.42900  0.77160  0.16050  Biso   1.000  H
  H13      1.0000 0.41890  0.82300  0.19200  Biso   1.000  H
  H14      1.0000 0.52010  0.86300  0.08250  Biso   1.000  H
  H15      1.0000 0.41460  0.93820  0.00660  Biso   1.000  H
  H16      1.0000 0.46560  0.87610  0.05190  Biso   1.000  H
  H17      1.0000 0.40220  0.79520  0.05370  Biso   1.000  H
  H18      1.0000 0.43970  0.81930  0.98020  Biso   1.000  H
  H19      1.0000 0.43870  0.86700  0.90970  Biso   1.000  H
  H20      1.0000 0.41210  0.98660  0.93730  Biso   1.000  H
  H21      1.0000 0.74670  0.78800  0.81580  Biso   1.000  H
  H22      1.0000 0.86030  0.66330  0.76900  Biso   1.000  H
  H23      1.0000 0.81640  0.74260  0.84820  Biso   1.000  H
  H24      1.0000 0.94260  0.65430  0.75100  Biso   1.000  H
  H25      1.0000 0.89840  0.73200  0.83140  Biso   1.000  H
  H26      1.0000 0.70780  0.84640  0.14130  Biso   1.000  H
  H27      1.0000 0.63930  0.75090  0.21690  Biso   1.000  H
  H28      1.0000 0.76650  0.78990  0.10230  Biso   1.000  H
  H29      1.0000 0.69630  0.69550  0.17730  Biso   1.000  H
  H30      1.0000 0.85210  0.48080  0.22770  Biso   1.000  H
  H31      1.0000 0.88940  0.45030  0.11850  Biso   1.000  H
  H32      1.0000 0.77160  0.63890  0.16050  Biso   1.000  H
  H33      1.0000 0.82300  0.56610  0.19200  Biso   1.000  H
  H34      1.0000 0.86300  0.53440  0.08250  Biso   1.000  H
  H35      1.0000 0.93820  0.64060  0.00660  Biso   1.000  H
  H36      1.0000 0.87610  0.60640  0.05190  Biso   1.000  H
  H37      1.0000 0.79520  0.74890  0.05370  Biso   1.000  H
  H38      1.0000 0.81930  0.76080  0.98020  Biso   1.000  H
  H39      1.0000 0.86700  0.78460  0.90970  Biso   1.000  H
  H40      1.0000 0.98660  0.66400  0.93730  Biso   1.000  H
  H41      1.0000 0.78800  0.64950  0.81580  Biso   1.000  H
  H42      1.0000 0.66330  0.70740  0.76900  Biso   1.000  H
  H43      1.0000 0.74260  0.59280  0.84820  Biso   1.000  H
  H44      1.0000 0.65430  0.65210  0.75100  Biso   1.000  H
  H45      1.0000 0.73200  0.53820  0.83140  Biso   1.000  H
  H46      1.0000 0.84640  0.30450  0.14130  Biso   1.000  H
  H47      1.0000 0.75090  0.39290  0.21690  Biso   1.000  H
  H48      1.0000 0.78990  0.34130  0.10230  Biso   1.000  H
  H49      1.0000 0.69550  0.43090  0.17730  Biso   1.000  H
  H50      1.0000 0.48080  0.43940  0.22770  Biso   1.000  H
  H51      1.0000 0.45030  0.54180  0.11850  Biso   1.000  H
  H52      1.0000 0.63890  0.42900  0.16050  Biso   1.000  H
  H53      1.0000 0.56610  0.41890  0.19200  Biso   1.000  H
  H54      1.0000 0.53440  0.52010  0.08250  Biso   1.000  H
  H55      1.0000 0.64060  0.41460  0.00660  Biso   1.000  H
  H56      1.0000 0.60640  0.46560  0.05190  Biso   1.000  H
  H57      1.0000 0.74890  0.40220  0.05370  Biso   1.000  H
  H58      1.0000 0.76080  0.43970  0.98020  Biso   1.000  H
  H59      1.0000 0.78460  0.43870  0.90970  Biso   1.000  H
  H60      1.0000 0.66400  0.41210  0.93730  Biso   1.000  H
  H61      1.0000 0.85050  0.71200  0.68420  Biso   1.000  H
  H62      1.0000 0.79260  0.83670  0.73100  Biso   1.000  H
  H63      1.0000 0.90720  0.75740  0.65180  Biso   1.000  H
  H64      1.0000 0.84790  0.84570  0.74900  Biso   1.000  H
  H65      1.0000 0.96180  0.76800  0.66860  Biso   1.000  H
  H66      1.0000 0.19550  0.65360  0.35870  Biso   1.000  H
  H67      1.0000 0.10710  0.74910  0.28310  Biso   1.000  H
  H68      1.0000 0.15870  0.71010  0.39770  Biso   1.000  H
  H69      1.0000 0.06910  0.80450  0.32270  Biso   1.000  H
  H70      1.0000 0.06060  0.01920  0.27230  Biso   1.000  H
  H71      1.0000 0.95820  0.04970  0.38150  Biso   1.000  H
  H72      1.0000 0.07100  0.86110  0.33950  Biso   1.000  H
  H73      1.0000 0.08110  0.93390  0.30800  Biso   1.000  H
  H74      1.0000 0.97990  0.96560  0.41750  Biso   1.000  H
  H75      1.0000 0.08540  0.85940  0.49340  Biso   1.000  H
  H76      1.0000 0.03440  0.89360  0.44810  Biso   1.000  H
  H77      1.0000 0.09780  0.75110  0.44630  Biso   1.000  H
  H78      1.0000 0.06030  0.73920  0.51980  Biso   1.000  H
  H79      1.0000 0.06130  0.71540  0.59030  Biso   1.000  H
  H80      1.0000 0.08790  0.83600  0.56270  Biso   1.000  H
  H81      1.0000 0.75330  0.85050  0.68420  Biso   1.000  H
  H82      1.0000 0.63970  0.79260  0.73100  Biso   1.000  H
  H83      1.0000 0.68360  0.90720  0.65180  Biso   1.000  H
  H84      1.0000 0.55740  0.84790  0.74900  Biso   1.000  H
  H85      1.0000 0.60160  0.96180  0.66860  Biso   1.000  H
  H86      1.0000 0.79220  0.19550  0.35870  Biso   1.000  H
  H87      1.0000 0.86070  0.10710  0.28310  Biso   1.000  H
  H88      1.0000 0.73350  0.15870  0.39770  Biso   1.000  H
  H89      1.0000 0.80370  0.06910  0.32270  Biso   1.000  H
  H90      1.0000 0.64790  0.06060  0.27230  Biso   1.000  H
  H91      1.0000 0.61060  0.95820  0.38150  Biso   1.000  H
  H92      1.0000 0.72840  0.07100  0.33950  Biso   1.000  H
  H93      1.0000 0.67700  0.08110  0.30800  Biso   1.000  H
  H94      1.0000 0.63700  0.97990  0.41750  Biso   1.000  H
  H95      1.0000 0.56180  0.08540  0.49340  Biso   1.000  H
  H96      1.0000 0.62390  0.03440  0.44810  Biso   1.000  H
  H97      1.0000 0.70480  0.09780  0.44630  Biso   1.000  H
  H98      1.0000 0.68070  0.06030  0.51980  Biso   1.000  H
  H99      1.0000 0.63300  0.06130  0.59030  Biso   1.000  H
  H100     1.0000 0.51340  0.08790  0.56270  Biso   1.000  H
  H101     1.0000 0.71200  0.75330  0.68420  Biso   1.000  H
  H102     1.0000 0.83670  0.63970  0.73100  Biso   1.000  H
  H103     1.0000 0.75740  0.68360  0.65180  Biso   1.000  H
  H104     1.0000 0.84570  0.55740  0.74900  Biso   1.000  H
  H105     1.0000 0.76800  0.60160  0.66860  Biso   1.000  H
  H106     1.0000 0.65360  0.79220  0.35870  Biso   1.000  H
  H107     1.0000 0.74910  0.86070  0.28310  Biso   1.000  H
  H108     1.0000 0.71010  0.73350  0.39770  Biso   1.000  H
  H109     1.0000 0.80450  0.80370  0.32270  Biso   1.000  H
  H110     1.0000 0.01920  0.64790  0.27230  Biso   1.000  H
  H111     1.0000 0.04970  0.61060  0.38150  Biso   1.000  H
  H112     1.0000 0.86110  0.72840  0.33950  Biso   1.000  H
  H113     1.0000 0.93390  0.67700  0.30800  Biso   1.000  H
  H114     1.0000 0.96560  0.63700  0.41750  Biso   1.000  H
  H115     1.0000 0.85940  0.56180  0.49340  Biso   1.000  H
  H116     1.0000 0.89360  0.62390  0.44810  Biso   1.000  H
  H117     1.0000 0.75110  0.70480  0.44630  Biso   1.000  H
  H118     1.0000 0.73920  0.68070  0.51980  Biso   1.000  H
  H119     1.0000 0.71540  0.63300  0.59030  Biso   1.000  H
  H120     1.0000 0.83600  0.51340  0.56270  Biso   1.000  H
  H121     1.0000 0.35050  0.25330  0.18420  Biso   1.000  H
  H122     1.0000 0.29260  0.13970  0.23100  Biso   1.000  H
  H123     1.0000 0.40720  0.18360  0.15180  Biso   1.000  H
  H124     1.0000 0.34790  0.05740  0.24900  Biso   1.000  H
  H125     1.0000 0.46180  0.10160  0.16860  Biso   1.000  H
  H126     1.0000 0.69550  0.29220  0.85870  Biso   1.000  H
  H127     1.0000 0.60710  0.36070  0.78310  Biso   1.000  H
  H128     1.0000 0.65870  0.23350  0.89770  Biso   1.000  H
  H129     1.0000 0.56910  0.30370  0.82270  Biso   1.000  H
  H130     1.0000 0.56060  0.14790  0.77230  Biso   1.000  H
  H131     1.0000 0.45820  0.11060  0.88150  Biso   1.000  H
  H132     1.0000 0.57100  0.22840  0.83950  Biso   1.000  H
  H133     1.0000 0.58110  0.17700  0.80800  Biso   1.000  H
  H134     1.0000 0.47990  0.13700  0.91750  Biso   1.000  H
  H135     1.0000 0.58540  0.06180  0.99340  Biso   1.000  H
  H136     1.0000 0.53440  0.12390  0.94810  Biso   1.000  H
  H137     1.0000 0.59780  0.20480  0.94630  Biso   1.000  H
  H138     1.0000 0.56030  0.18070  0.01980  Biso   1.000  H
  H139     1.0000 0.56130  0.13300  0.09030  Biso   1.000  H
  H140     1.0000 0.58790  0.01340  0.06270  Biso   1.000  H
  H141     1.0000 0.25330  0.21200  0.18420  Biso   1.000  H
  H142     1.0000 0.13970  0.33670  0.23100  Biso   1.000  H
  H143     1.0000 0.18360  0.25740  0.15180  Biso   1.000  H
  H144     1.0000 0.05740  0.34570  0.24900  Biso   1.000  H
  H145     1.0000 0.10160  0.26800  0.16860  Biso   1.000  H
  H146     1.0000 0.29220  0.15360  0.85870  Biso   1.000  H
  H147     1.0000 0.36070  0.24910  0.78310  Biso   1.000  H
  H148     1.0000 0.23350  0.21010  0.89770  Biso   1.000  H
  H149     1.0000 0.30370  0.30450  0.82270  Biso   1.000  H
  H150     1.0000 0.14790  0.51920  0.77230  Biso   1.000  H
  H151     1.0000 0.11060  0.54970  0.88150  Biso   1.000  H
  H152     1.0000 0.22840  0.36110  0.83950  Biso   1.000  H
  H153     1.0000 0.17700  0.43390  0.80800  Biso   1.000  H
  H154     1.0000 0.13700  0.46560  0.91750  Biso   1.000  H
  H155     1.0000 0.06180  0.35940  0.99340  Biso   1.000  H
  H156     1.0000 0.12390  0.39360  0.94810  Biso   1.000  H
  H157     1.0000 0.20480  0.25110  0.94630  Biso   1.000  H
  H158     1.0000 0.18070  0.23920  0.01980  Biso   1.000  H
  H159     1.0000 0.13300  0.21540  0.09030  Biso   1.000  H
  H160     1.0000 0.01340  0.33600  0.06270  Biso   1.000  H
  H161     1.0000 0.21200  0.35050  0.18420  Biso   1.000  H
  H162     1.0000 0.33670  0.29260  0.23100  Biso   1.000  H
  H163     1.0000 0.25740  0.40720  0.15180  Biso   1.000  H
  H164     1.0000 0.34570  0.34790  0.24900  Biso   1.000  H
  H165     1.0000 0.26800  0.46180  0.16860  Biso   1.000  H
  H166     1.0000 0.15360  0.69550  0.85870  Biso   1.000  H
  H167     1.0000 0.24910  0.60710  0.78310  Biso   1.000  H
  H168     1.0000 0.21010  0.65870  0.89770  Biso   1.000  H
  H169     1.0000 0.30450  0.56910  0.82270  Biso   1.000  H
  H170     1.0000 0.51920  0.56060  0.77230  Biso   1.000  H
  H171     1.0000 0.54970  0.45820  0.88150  Biso   1.000  H
  H172     1.0000 0.36110  0.57100  0.83950  Biso   1.000  H
  H173     1.0000 0.43390  0.58110  0.80800  Biso   1.000  H
  H174     1.0000 0.46560  0.47990  0.91750  Biso   1.000  H
  H175     1.0000 0.35940  0.58540  0.99340  Biso   1.000  H
  H176     1.0000 0.39360  0.53440  0.94810  Biso   1.000  H
  H177     1.0000 0.25110  0.59780  0.94630  Biso   1.000  H
  H178     1.0000 0.23920  0.56030  0.01980  Biso   1.000  H
  H179     1.0000 0.21540  0.56130  0.09030  Biso   1.000  H
  H180     1.0000 0.33600  0.58790  0.06270  Biso   1.000  H
  H181     1.0000 0.14950  0.28800  0.31580  Biso   1.000  H
  H182     1.0000 0.20740  0.16330  0.26900  Biso   1.000  H
  H183     1.0000 0.09280  0.24260  0.34820  Biso   1.000  H
  H184     1.0000 0.15210  0.15430  0.25100  Biso   1.000  H
  H185     1.0000 0.03820  0.23200  0.33140  Biso   1.000  H
  H186     1.0000 0.80450  0.34640  0.64130  Biso   1.000  H
  H187     1.0000 0.89290  0.25090  0.71690  Biso   1.000  H
  H188     1.0000 0.84130  0.28990  0.60230  Biso   1.000  H
  H189     1.0000 0.93090  0.19550  0.67730  Biso   1.000  H
  H190     1.0000 0.93940  0.98080  0.72770  Biso   1.000  H
  H191     1.0000 0.04180  0.95030  0.61850  Biso   1.000  H
  H192     1.0000 0.92900  0.13890  0.66050  Biso   1.000  H
  H193     1.0000 0.91890  0.06610  0.69200  Biso   1.000  H
  H194     1.0000 0.02010  0.03440  0.58250  Biso   1.000  H
  H195     1.0000 0.91460  0.14060  0.50660  Biso   1.000  H
  H196     1.0000 0.96560  0.10640  0.55190  Biso   1.000  H
  H197     1.0000 0.90220  0.24890  0.55370  Biso   1.000  H
  H198     1.0000 0.93970  0.26080  0.48020  Biso   1.000  H
  H199     1.0000 0.93870  0.28460  0.40970  Biso   1.000  H
  H200     1.0000 0.91210  0.16400  0.43730  Biso   1.000  H
  H201     1.0000 0.24670  0.14950  0.31580  Biso   1.000  H
  H202     1.0000 0.36030  0.20740  0.26900  Biso   1.000  H
  H203     1.0000 0.31640  0.09280  0.34820  Biso   1.000  H
  H204     1.0000 0.44260  0.15210  0.25100  Biso   1.000  H
  H205     1.0000 0.39840  0.03820  0.33140  Biso   1.000  H
  H206     1.0000 0.20780  0.80450  0.64130  Biso   1.000  H
  H207     1.0000 0.13930  0.89290  0.71690  Biso   1.000  H
  H208     1.0000 0.26650  0.84130  0.60230  Biso   1.000  H
  H209     1.0000 0.19630  0.93090  0.67730  Biso   1.000  H
  H210     1.0000 0.35210  0.93940  0.72770  Biso   1.000  H
  H211     1.0000 0.38940  0.04180  0.61850  Biso   1.000  H
  H212     1.0000 0.27160  0.92900  0.66050  Biso   1.000  H
  H213     1.0000 0.32300  0.91890  0.69200  Biso   1.000  H
  H214     1.0000 0.36300  0.02010  0.58250  Biso   1.000  H
  H215     1.0000 0.43820  0.91460  0.50660  Biso   1.000  H
  H216     1.0000 0.37610  0.96560  0.55190  Biso   1.000  H
  H217     1.0000 0.29520  0.90220  0.55370  Biso   1.000  H
  H218     1.0000 0.31930  0.93970  0.48020  Biso   1.000  H
  H219     1.0000 0.36700  0.93870  0.40970  Biso   1.000  H
  H220     1.0000 0.48660  0.91210  0.43730  Biso   1.000  H
  H221     1.0000 0.28800  0.24670  0.31580  Biso   1.000  H
  H222     1.0000 0.16330  0.36030  0.26900  Biso   1.000  H
  H223     1.0000 0.24260  0.31640  0.34820  Biso   1.000  H
  H224     1.0000 0.15430  0.44260  0.25100  Biso   1.000  H
  H225     1.0000 0.23200  0.39840  0.33140  Biso   1.000  H
  H226     1.0000 0.34640  0.20780  0.64130  Biso   1.000  H
  H227     1.0000 0.25090  0.13930  0.71690  Biso   1.000  H
  H228     1.0000 0.28990  0.26650  0.60230  Biso   1.000  H
  H229     1.0000 0.19550  0.19630  0.67730  Biso   1.000  H
  H230     1.0000 0.98080  0.35210  0.72770  Biso   1.000  H
  H231     1.0000 0.95030  0.38940  0.61850  Biso   1.000  H
  H232     1.0000 0.13890  0.27160  0.66050  Biso   1.000  H
  H233     1.0000 0.06610  0.32300  0.69200  Biso   1.000  H
  H234     1.0000 0.03440  0.36300  0.58250  Biso   1.000  H
  H235     1.0000 0.14060  0.43820  0.50660  Biso   1.000  H
  H236     1.0000 0.10640  0.37610  0.55190  Biso   1.000  H
  H237     1.0000 0.24890  0.29520  0.55370  Biso   1.000  H
  H238     1.0000 0.26080  0.31930  0.48020  Biso   1.000  H
  H239     1.0000 0.28460  0.36700  0.40970  Biso   1.000  H
  H240     1.0000 0.16400  0.48660  0.43730  Biso   1.000  H
  C1       1.0000 0.69283  0.77677  0.81511  Biso   1.000  C
  C2       1.0000 0.68172  0.73876  0.81541  Biso   1.000  C
  C3       1.0000 0.67311  0.86767  0.78139  Biso   1.000  C
  C4       1.0000 0.60521  0.84133  0.82864  Biso   1.000  C
  C5       1.0000 0.58900  0.92846  0.78901  Biso   1.000  C
  C6       1.0000 0.63996  0.91731  0.77056  Biso   1.000  C
  C7       1.0000 0.55260  0.98081  0.77608  Biso   1.000  C
  C8       1.0000 0.57233  0.89065  0.81832  Biso   1.000  C
  C9       1.0000 0.65587  0.82924  0.81010  Biso   1.000  C
  C10      1.0000 0.32944  0.70555  0.14928  Biso   1.000  C
  C11      1.0000 0.32227  0.62833  0.20889  Biso   1.000  C
  C12      1.0000 0.34428  0.66804  0.18336  Biso   1.000  C
  C13      1.0000 0.38219  0.66528  0.19353  Biso   1.000  C
  C14      1.0000 0.35185  0.74102  0.12585  Biso   1.000  C
  C15      1.0000 0.41100  0.77803  0.11100  Biso   1.000  C
  C16      1.0000 0.38779  0.73978  0.13593  Biso   1.000  C
  C17      1.0000 0.40462  0.69966  0.17034  Biso   1.000  C
  C18      1.0000 0.49034  0.87570  0.17646  Biso   1.000  C
  C19      1.0000 0.45516  0.85491  0.19842  Biso   1.000  C
  C20      1.0000 0.51604  0.87727  0.13308  Biso   1.000  C
  C21      1.0000 0.50084  0.89659  0.19989  Biso   1.000  C
  C22      1.0000 0.42967  0.78917  0.13179  Biso   1.000  C
  C23      1.0000 0.44275  0.83757  0.17685  Biso   1.000  C
  C24      1.0000 0.44999  0.82694  0.10983  Biso   1.000  C
  C25      1.0000 0.46573  0.84216  0.13311  Biso   1.000  C
  C26      1.0000 0.50330  0.86117  0.11160  Biso   1.000  C
  C27      1.0000 0.41939  0.92354  0.98713  Biso   1.000  C
  C28      1.0000 0.43123  0.84178  0.04551  Biso   1.000  C
  C29      1.0000 0.45138  0.85206  0.06696  Biso   1.000  C
  C30      1.0000 0.42233  0.96324  0.87082  Biso   1.000  C
  C31      1.0000 0.41331  0.80383  0.06807  Biso   1.000  C
  C32      1.0000 0.42803  0.87370  0.00081  Biso   1.000  C
  C33      1.0000 0.43447  0.85295  0.97159  Biso   1.000  C
  C34      1.0000 0.43326  0.88170  0.92935  Biso   1.000  C
  C35      1.0000 0.42398  0.93194  0.91669  Biso   1.000  C
  C36      1.0000 0.41762  0.95290  0.94564  Biso   1.000  C
  C37      1.0000 0.77677  0.71529  0.81511  Biso   1.000  C
  C38      1.0000 0.73876  0.76411  0.81541  Biso   1.000  C
  C39      1.0000 0.86767  0.67783  0.78139  Biso   1.000  C
  C40      1.0000 0.84133  0.72482  0.82864  Biso   1.000  C
  C41      1.0000 0.92846  0.69353  0.78901  Biso   1.000  C
  C42      1.0000 0.91731  0.67217  0.77056  Biso   1.000  C
  C43      1.0000 0.98081  0.69051  0.77608  Biso   1.000  C
  C44      1.0000 0.89065  0.71870  0.81832  Biso   1.000  C
  C45      1.0000 0.82924  0.70479  0.81010  Biso   1.000  C
  C46      1.0000 0.70555  0.81573  0.14928  Biso   1.000  C
  C47      1.0000 0.62833  0.84051  0.20889  Biso   1.000  C
  C48      1.0000 0.66804  0.80432  0.18336  Biso   1.000  C
  C49      1.0000 0.66528  0.75900  0.19353  Biso   1.000  C
  C50      1.0000 0.74102  0.78128  0.12585  Biso   1.000  C
  C51      1.0000 0.77803  0.69997  0.11100  Biso   1.000  C
  C52      1.0000 0.73978  0.73650  0.13593  Biso   1.000  C
  C53      1.0000 0.69966  0.72538  0.17034  Biso   1.000  C
  C54      1.0000 0.87570  0.45750  0.17646  Biso   1.000  C
  C55      1.0000 0.85491  0.49151  0.19842  Biso   1.000  C
  C56      1.0000 0.87727  0.47361  0.13308  Biso   1.000  C
  C57      1.0000 0.89659  0.40268  0.19989  Biso   1.000  C
  C58      1.0000 0.78917  0.64937  0.13179  Biso   1.000  C
  C59      1.0000 0.83757  0.54283  0.17685  Biso   1.000  C
  C60      1.0000 0.82694  0.61324  0.10983  Biso   1.000  C
  C61      1.0000 0.84216  0.55900  0.13311  Biso   1.000  C
  C62      1.0000 0.86117  0.52393  0.11160  Biso   1.000  C
  C63      1.0000 0.92354  0.66994  0.98713  Biso   1.000  C
  C64      1.0000 0.84178  0.68148  0.04551  Biso   1.000  C
  C65      1.0000 0.85206  0.62960  0.06696  Biso   1.000  C
  C66      1.0000 0.96324  0.74361  0.87082  Biso   1.000  C
  C67      1.0000 0.80383  0.71479  0.06807  Biso   1.000  C
  C68      1.0000 0.87370  0.69746  0.00081  Biso   1.000  C
  C69      1.0000 0.85295  0.74099  0.97159  Biso   1.000  C
  C70      1.0000 0.88170  0.75569  0.92935  Biso   1.000  C
  C71      1.0000 0.93194  0.72739  0.91669  Biso   1.000  C
  C72      1.0000 0.95290  0.68384  0.94564  Biso   1.000  C
  C73      1.0000 0.71529  0.69283  0.81511  Biso   1.000  C
  C74      1.0000 0.76411  0.68172  0.81541  Biso   1.000  C
  C75      1.0000 0.67783  0.67311  0.78139  Biso   1.000  C
  C76      1.0000 0.72482  0.60521  0.82864  Biso   1.000  C
  C77      1.0000 0.69353  0.58900  0.78901  Biso   1.000  C
  C78      1.0000 0.67217  0.63996  0.77056  Biso   1.000  C
  C79      1.0000 0.69051  0.55260  0.77608  Biso   1.000  C
  C80      1.0000 0.71870  0.57233  0.81832  Biso   1.000  C
  C81      1.0000 0.70479  0.65587  0.81010  Biso   1.000  C
  C82      1.0000 0.81573  0.32944  0.14928  Biso   1.000  C
  C83      1.0000 0.84051  0.32227  0.20889  Biso   1.000  C
  C84      1.0000 0.80432  0.34428  0.18336  Biso   1.000  C
  C85      1.0000 0.75900  0.38219  0.19353  Biso   1.000  C
  C86      1.0000 0.78128  0.35185  0.12585  Biso   1.000  C
  C87      1.0000 0.69997  0.41100  0.11100  Biso   1.000  C
  C88      1.0000 0.73650  0.38779  0.13593  Biso   1.000  C
  C89      1.0000 0.72538  0.40462  0.17034  Biso   1.000  C
  C90      1.0000 0.45750  0.49034  0.17646  Biso   1.000  C
  C91      1.0000 0.49151  0.45516  0.19842  Biso   1.000  C
  C92      1.0000 0.47361  0.51604  0.13308  Biso   1.000  C
  C93      1.0000 0.40268  0.50084  0.19989  Biso   1.000  C
  C94      1.0000 0.64937  0.42967  0.13179  Biso   1.000  C
  C95      1.0000 0.54283  0.44275  0.17685  Biso   1.000  C
  C96      1.0000 0.61324  0.44999  0.10983  Biso   1.000  C
  C97      1.0000 0.55900  0.46573  0.13311  Biso   1.000  C
  C98      1.0000 0.52393  0.50330  0.11160  Biso   1.000  C
  C99      1.0000 0.66994  0.41939  0.98713  Biso   1.000  C
  C100     1.0000 0.68148  0.43123  0.04551  Biso   1.000  C
  C101     1.0000 0.62960  0.45138  0.06696  Biso   1.000  C
  C102     1.0000 0.74361  0.42233  0.87082  Biso   1.000  C
  C103     1.0000 0.71479  0.41331  0.06807  Biso   1.000  C
  C104     1.0000 0.69746  0.42803  0.00081  Biso   1.000  C
  C105     1.0000 0.74099  0.43447  0.97159  Biso   1.000  C
  C106     1.0000 0.75569  0.43326  0.92935  Biso   1.000  C
  C107     1.0000 0.72739  0.42398  0.91669  Biso   1.000  C
  C108     1.0000 0.68384  0.41762  0.94564  Biso   1.000  C
  C109     1.0000 0.80717  0.78471  0.68489  Biso   1.000  C
  C110     1.0000 0.81828  0.73589  0.68459  Biso   1.000  C
  C111     1.0000 0.82689  0.82217  0.71861  Biso   1.000  C
  C112     1.0000 0.89479  0.77518  0.67136  Biso   1.000  C
  C113     1.0000 0.91100  0.80647  0.71099  Biso   1.000  C
  C114     1.0000 0.86004  0.82783  0.72944  Biso   1.000  C
  C115     1.0000 0.94740  0.80949  0.72392  Biso   1.000  C
  C116     1.0000 0.92767  0.78130  0.68168  Biso   1.000  C
  C117     1.0000 0.84413  0.79521  0.68990  Biso   1.000  C
  C118     1.0000 0.17056  0.68427  0.35072  Biso   1.000  C
  C119     1.0000 0.17773  0.65949  0.29111  Biso   1.000  C
  C120     1.0000 0.15572  0.69568  0.31664  Biso   1.000  C
  C121     1.0000 0.11781  0.74100  0.30647  Biso   1.000  C
  C122     1.0000 0.14815  0.71872  0.37415  Biso   1.000  C
  C123     1.0000 0.08900  0.80003  0.38900  Biso   1.000  C
  C124     1.0000 0.11221  0.76350  0.36407  Biso   1.000  C
  C125     1.0000 0.09538  0.77462  0.32966  Biso   1.000  C
  C126     1.0000 0.00966  0.04250  0.32354  Biso   1.000  C
  C127     1.0000 0.04484  0.00849  0.30158  Biso   1.000  C
  C128     1.0000 0.98396  0.02639  0.36692  Biso   1.000  C
  C129     1.0000 0.99916  0.09732  0.30011  Biso   1.000  C
  C130     1.0000 0.07033  0.85063  0.36821  Biso   1.000  C
  C131     1.0000 0.05725  0.95717  0.32315  Biso   1.000  C
  C132     1.0000 0.05001  0.88676  0.39017  Biso   1.000  C
  C133     1.0000 0.03427  0.94100  0.36689  Biso   1.000  C
  C134     1.0000 0.99670  0.97607  0.38840  Biso   1.000  C
  C135     1.0000 0.08061  0.83006  0.51287  Biso   1.000  C
  C136     1.0000 0.06877  0.81852  0.45449  Biso   1.000  C
  C137     1.0000 0.04862  0.87040  0.43304  Biso   1.000  C
  C138     1.0000 0.07767  0.75639  0.62918  Biso   1.000  C
  C139     1.0000 0.08669  0.78521  0.43193  Biso   1.000  C
  C140     1.0000 0.07197  0.80254  0.49919  Biso   1.000  C
  C141     1.0000 0.06553  0.75901  0.52841  Biso   1.000  C
  C142     1.0000 0.06674  0.74431  0.57065  Biso   1.000  C
  C143     1.0000 0.07602  0.77261  0.58331  Biso   1.000  C
  C144     1.0000 0.08238  0.81616  0.55436  Biso   1.000  C
  C145     1.0000 0.72323  0.80717  0.68489  Biso   1.000  C
  C146     1.0000 0.76124  0.81828  0.68459  Biso   1.000  C
  C147     1.0000 0.63233  0.82689  0.71861  Biso   1.000  C
  C148     1.0000 0.65867  0.89479  0.67136  Biso   1.000  C
  C149     1.0000 0.57154  0.91100  0.71099  Biso   1.000  C
  C150     1.0000 0.58269  0.86004  0.72944  Biso   1.000  C
  C151     1.0000 0.51919  0.94740  0.72392  Biso   1.000  C
  C152     1.0000 0.60935  0.92767  0.68168  Biso   1.000  C
  C153     1.0000 0.67076  0.84413  0.68990  Biso   1.000  C
  C154     1.0000 0.79445  0.17056  0.35072  Biso   1.000  C
  C155     1.0000 0.87167  0.17773  0.29111  Biso   1.000  C
  C156     1.0000 0.83196  0.15572  0.31664  Biso   1.000  C
  C157     1.0000 0.83472  0.11781  0.30647  Biso   1.000  C
  C158     1.0000 0.75898  0.14815  0.37415  Biso   1.000  C
  C159     1.0000 0.72197  0.08900  0.38900  Biso   1.000  C
  C160     1.0000 0.76022  0.11221  0.36407  Biso   1.000  C
  C161     1.0000 0.80034  0.09538  0.32966  Biso   1.000  C
  C162     1.0000 0.62430  0.00966  0.32354  Biso   1.000  C
  C163     1.0000 0.64509  0.04484  0.30158  Biso   1.000  C
  C164     1.0000 0.62273  0.98396  0.36692  Biso   1.000  C
  C165     1.0000 0.60341  0.99916  0.30011  Biso   1.000  C
  C166     1.0000 0.71083  0.07033  0.36821  Biso   1.000  C
  C167     1.0000 0.66243  0.05725  0.32315  Biso   1.000  C
  C168     1.0000 0.67306  0.05001  0.39017  Biso   1.000  C
  C169     1.0000 0.65784  0.03427  0.36689  Biso   1.000  C
  C170     1.0000 0.63883  0.99670  0.38840  Biso   1.000  C
  C171     1.0000 0.57646  0.08061  0.51287  Biso   1.000  C
  C172     1.0000 0.65822  0.06877  0.45449  Biso   1.000  C
  C173     1.0000 0.64794  0.04862  0.43304  Biso   1.000  C
  C174     1.0000 0.53676  0.07767  0.62918  Biso   1.000  C
  C175     1.0000 0.69617  0.08669  0.43193  Biso   1.000  C
  C176     1.0000 0.62630  0.07197  0.49919  Biso   1.000  C
  C177     1.0000 0.64705  0.06553  0.52841  Biso   1.000  C
  C178     1.0000 0.61830  0.06674  0.57065  Biso   1.000  C
  C179     1.0000 0.56806  0.07602  0.58331  Biso   1.000  C
  C180     1.0000 0.54710  0.08238  0.55436  Biso   1.000  C
  C181     1.0000 0.78471  0.72323  0.68489  Biso   1.000  C
  C182     1.0000 0.73589  0.76124  0.68459  Biso   1.000  C
  C183     1.0000 0.82217  0.63233  0.71861  Biso   1.000  C
  C184     1.0000 0.77518  0.65867  0.67136  Biso   1.000  C
  C185     1.0000 0.80647  0.57154  0.71099  Biso   1.000  C
  C186     1.0000 0.82783  0.58269  0.72944  Biso   1.000  C
  C187     1.0000 0.80949  0.51919  0.72392  Biso   1.000  C
  C188     1.0000 0.78130  0.60935  0.68168  Biso   1.000  C
  C189     1.0000 0.79521  0.67076  0.68990  Biso   1.000  C
  C190     1.0000 0.68427  0.79445  0.35072  Biso   1.000  C
  C191     1.0000 0.65949  0.87167  0.29111  Biso   1.000  C
  C192     1.0000 0.69568  0.83196  0.31664  Biso   1.000  C
  C193     1.0000 0.74100  0.83472  0.30647  Biso   1.000  C
  C194     1.0000 0.71872  0.75898  0.37415  Biso   1.000  C
  C195     1.0000 0.80003  0.72197  0.38900  Biso   1.000  C
  C196     1.0000 0.76350  0.76022  0.36407  Biso   1.000  C
  C197     1.0000 0.77462  0.80034  0.32966  Biso   1.000  C
  C198     1.0000 0.04250  0.62430  0.32354  Biso   1.000  C
  C199     1.0000 0.00849  0.64509  0.30158  Biso   1.000  C
  C200     1.0000 0.02639  0.62273  0.36692  Biso   1.000  C
  C201     1.0000 0.09732  0.60341  0.30011  Biso   1.000  C
  C202     1.0000 0.85063  0.71083  0.36821  Biso   1.000  C
  C203     1.0000 0.95717  0.66243  0.32315  Biso   1.000  C
  C204     1.0000 0.88676  0.67306  0.39017  Biso   1.000  C
  C205     1.0000 0.94100  0.65784  0.36689  Biso   1.000  C
  C206     1.0000 0.97607  0.63883  0.38840  Biso   1.000  C
  C207     1.0000 0.83006  0.57646  0.51287  Biso   1.000  C
  C208     1.0000 0.81852  0.65822  0.45449  Biso   1.000  C
  C209     1.0000 0.87040  0.64794  0.43304  Biso   1.000  C
  C210     1.0000 0.75639  0.53676  0.62918  Biso   1.000  C
  C211     1.0000 0.78521  0.69617  0.43193  Biso   1.000  C
  C212     1.0000 0.80254  0.62630  0.49919  Biso   1.000  C
  C213     1.0000 0.75901  0.64705  0.52841  Biso   1.000  C
  C214     1.0000 0.74431  0.61830  0.57065  Biso   1.000  C
  C215     1.0000 0.77261  0.56806  0.58331  Biso   1.000  C
  C216     1.0000 0.81616  0.54710  0.55436  Biso   1.000  C
  C217     1.0000 0.30717  0.22323  0.18489  Biso   1.000  C
  C218     1.0000 0.31828  0.26124  0.18459  Biso   1.000  C
  C219     1.0000 0.32689  0.13233  0.21861  Biso   1.000  C
  C220     1.0000 0.39479  0.15867  0.17136  Biso   1.000  C
  C221     1.0000 0.41100  0.07154  0.21099  Biso   1.000  C
  C222     1.0000 0.36004  0.08269  0.22944  Biso   1.000  C
  C223     1.0000 0.44740  0.01919  0.22392  Biso   1.000  C
  C224     1.0000 0.42767  0.10935  0.18168  Biso   1.000  C
  C225     1.0000 0.34413  0.17076  0.18990  Biso   1.000  C
  C226     1.0000 0.67056  0.29445  0.85072  Biso   1.000  C
  C227     1.0000 0.67773  0.37167  0.79111  Biso   1.000  C
  C228     1.0000 0.65572  0.33196  0.81664  Biso   1.000  C
  C229     1.0000 0.61781  0.33472  0.80647  Biso   1.000  C
  C230     1.0000 0.64815  0.25898  0.87415  Biso   1.000  C
  C231     1.0000 0.58900  0.22197  0.88900  Biso   1.000  C
  C232     1.0000 0.61221  0.26022  0.86407  Biso   1.000  C
  C233     1.0000 0.59538  0.30034  0.82966  Biso   1.000  C
  C234     1.0000 0.50966  0.12430  0.82354  Biso   1.000  C
  C235     1.0000 0.54484  0.14509  0.80158  Biso   1.000  C
  C236     1.0000 0.48396  0.12273  0.86692  Biso   1.000  C
  C237     1.0000 0.49916  0.10341  0.80011  Biso   1.000  C
  C238     1.0000 0.57033  0.21083  0.86821  Biso   1.000  C
  C239     1.0000 0.55725  0.16243  0.82315  Biso   1.000  C
  C240     1.0000 0.55001  0.17306  0.89017  Biso   1.000  C
  C241     1.0000 0.53427  0.15784  0.86689  Biso   1.000  C
  C242     1.0000 0.49670  0.13883  0.88840  Biso   1.000  C
  C243     1.0000 0.58061  0.07646  0.01287  Biso   1.000  C
  C244     1.0000 0.56877  0.15822  0.95449  Biso   1.000  C
  C245     1.0000 0.54862  0.14794  0.93304  Biso   1.000  C
  C246     1.0000 0.57767  0.03676  0.12918  Biso   1.000  C
  C247     1.0000 0.58669  0.19617  0.93193  Biso   1.000  C
  C248     1.0000 0.57197  0.12630  0.99919  Biso   1.000  C
  C249     1.0000 0.56553  0.14705  0.02841  Biso   1.000  C
  C250     1.0000 0.56674  0.11830  0.07065  Biso   1.000  C
  C251     1.0000 0.57602  0.06806  0.08331  Biso   1.000  C
  C252     1.0000 0.58238  0.04710  0.05436  Biso   1.000  C
  C253     1.0000 0.22323  0.28471  0.18489  Biso   1.000  C
  C254     1.0000 0.26124  0.23589  0.18459  Biso   1.000  C
  C255     1.0000 0.13233  0.32217  0.21861  Biso   1.000  C
  C256     1.0000 0.15867  0.27518  0.17136  Biso   1.000  C
  C257     1.0000 0.07154  0.30647  0.21099  Biso   1.000  C
  C258     1.0000 0.08269  0.32783  0.22944  Biso   1.000  C
  C259     1.0000 0.01919  0.30949  0.22392  Biso   1.000  C
  C260     1.0000 0.10935  0.28130  0.18168  Biso   1.000  C
  C261     1.0000 0.17076  0.29521  0.18990  Biso   1.000  C
  C262     1.0000 0.29445  0.18427  0.85072  Biso   1.000  C
  C263     1.0000 0.37167  0.15949  0.79111  Biso   1.000  C
  C264     1.0000 0.33196  0.19568  0.81664  Biso   1.000  C
  C265     1.0000 0.33472  0.24100  0.80647  Biso   1.000  C
  C266     1.0000 0.25898  0.21872  0.87415  Biso   1.000  C
  C267     1.0000 0.22197  0.30003  0.88900  Biso   1.000  C
  C268     1.0000 0.26022  0.26350  0.86407  Biso   1.000  C
  C269     1.0000 0.30034  0.27462  0.82966  Biso   1.000  C
  C270     1.0000 0.12430  0.54250  0.82354  Biso   1.000  C
  C271     1.0000 0.14509  0.50849  0.80158  Biso   1.000  C
  C272     1.0000 0.12273  0.52639  0.86692  Biso   1.000  C
  C273     1.0000 0.10341  0.59732  0.80011  Biso   1.000  C
  C274     1.0000 0.21083  0.35063  0.86821  Biso   1.000  C
  C275     1.0000 0.16243  0.45717  0.82315  Biso   1.000  C
  C276     1.0000 0.17306  0.38676  0.89017  Biso   1.000  C
  C277     1.0000 0.15784  0.44100  0.86689  Biso   1.000  C
  C278     1.0000 0.13883  0.47607  0.88840  Biso   1.000  C
  C279     1.0000 0.07646  0.33006  0.01287  Biso   1.000  C
  C280     1.0000 0.15822  0.31852  0.95449  Biso   1.000  C
  C281     1.0000 0.14794  0.37040  0.93304  Biso   1.000  C
  C282     1.0000 0.03676  0.25639  0.12918  Biso   1.000  C
  C283     1.0000 0.19617  0.28521  0.93193  Biso   1.000  C
  C284     1.0000 0.12630  0.30254  0.99919  Biso   1.000  C
  C285     1.0000 0.14705  0.25901  0.02841  Biso   1.000  C
  C286     1.0000 0.11830  0.24431  0.07065  Biso   1.000  C
  C287     1.0000 0.06806  0.27261  0.08331  Biso   1.000  C
  C288     1.0000 0.04710  0.31616  0.05436  Biso   1.000  C
  C289     1.0000 0.28471  0.30717  0.18489  Biso   1.000  C
  C290     1.0000 0.23589  0.31828  0.18459  Biso   1.000  C
  C291     1.0000 0.32217  0.32689  0.21861  Biso   1.000  C
  C292     1.0000 0.27518  0.39479  0.17136  Biso   1.000  C
  C293     1.0000 0.30647  0.41100  0.21099  Biso   1.000  C
  C294     1.0000 0.32783  0.36004  0.22944  Biso   1.000  C
  C295     1.0000 0.30949  0.44740  0.22392  Biso   1.000  C
  C296     1.0000 0.28130  0.42767  0.18168  Biso   1.000  C
  C297     1.0000 0.29521  0.34413  0.18990  Biso   1.000  C
  C298     1.0000 0.18427  0.67056  0.85072  Biso   1.000  C
  C299     1.0000 0.15949  0.67773  0.79111  Biso   1.000  C
  C300     1.0000 0.19568  0.65572  0.81664  Biso   1.000  C
  C301     1.0000 0.24100  0.61781  0.80647  Biso   1.000  C
  C302     1.0000 0.21872  0.64815  0.87415  Biso   1.000  C
  C303     1.0000 0.30003  0.58900  0.88900  Biso   1.000  C
  C304     1.0000 0.26350  0.61221  0.86407  Biso   1.000  C
  C305     1.0000 0.27462  0.59538  0.82966  Biso   1.000  C
  C306     1.0000 0.54250  0.50966  0.82354  Biso   1.000  C
  C307     1.0000 0.50849  0.54484  0.80158  Biso   1.000  C
  C308     1.0000 0.52639  0.48396  0.86692  Biso   1.000  C
  C309     1.0000 0.59732  0.49916  0.80011  Biso   1.000  C
  C310     1.0000 0.35063  0.57033  0.86821  Biso   1.000  C
  C311     1.0000 0.45717  0.55725  0.82315  Biso   1.000  C
  C312     1.0000 0.38676  0.55001  0.89017  Biso   1.000  C
  C313     1.0000 0.44100  0.53427  0.86689  Biso   1.000  C
  C314     1.0000 0.47607  0.49670  0.88840  Biso   1.000  C
  C315     1.0000 0.33006  0.58061  0.01287  Biso   1.000  C
  C316     1.0000 0.31852  0.56877  0.95449  Biso   1.000  C
  C317     1.0000 0.37040  0.54862  0.93304  Biso   1.000  C
  C318     1.0000 0.25639  0.57767  0.12918  Biso   1.000  C
  C319     1.0000 0.28521  0.58669  0.93193  Biso   1.000  C
  C320     1.0000 0.30254  0.57197  0.99919  Biso   1.000  C
  C321     1.0000 0.25901  0.56553  0.02841  Biso   1.000  C
  C322     1.0000 0.24431  0.56674  0.07065  Biso   1.000  C
  C323     1.0000 0.27261  0.57602  0.08331  Biso   1.000  C
  C324     1.0000 0.31616  0.58238  0.05436  Biso   1.000  C
  C325     1.0000 0.19283  0.21529  0.31511  Biso   1.000  C
  C326     1.0000 0.18172  0.26411  0.31541  Biso   1.000  C
  C327     1.0000 0.17311  0.17783  0.28139  Biso   1.000  C
  C328     1.0000 0.10521  0.22482  0.32864  Biso   1.000  C
  C329     1.0000 0.08900  0.19353  0.28901  Biso   1.000  C
  C330     1.0000 0.13996  0.17217  0.27056  Biso   1.000  C
  C331     1.0000 0.05260  0.19051  0.27608  Biso   1.000  C
  C332     1.0000 0.07233  0.21870  0.31832  Biso   1.000  C
  C333     1.0000 0.15587  0.20479  0.31010  Biso   1.000  C
  C334     1.0000 0.82944  0.31573  0.64928  Biso   1.000  C
  C335     1.0000 0.82227  0.34051  0.70889  Biso   1.000  C
  C336     1.0000 0.84428  0.30432  0.68336  Biso   1.000  C
  C337     1.0000 0.88219  0.25900  0.69353  Biso   1.000  C
  C338     1.0000 0.85185  0.28128  0.62585  Biso   1.000  C
  C339     1.0000 0.91100  0.19997  0.61100  Biso   1.000  C
  C340     1.0000 0.88779  0.23650  0.63593  Biso   1.000  C
  C341     1.0000 0.90462  0.22538  0.67034  Biso   1.000  C
  C342     1.0000 0.99034  0.95750  0.67646  Biso   1.000  C
  C343     1.0000 0.95516  0.99151  0.69842  Biso   1.000  C
  C344     1.0000 0.01604  0.97361  0.63308  Biso   1.000  C
  C345     1.0000 0.00084  0.90268  0.69989  Biso   1.000  C
  C346     1.0000 0.92967  0.14937  0.63179  Biso   1.000  C
  C347     1.0000 0.94275  0.04283  0.67685  Biso   1.000  C
  C348     1.0000 0.94999  0.11324  0.60983  Biso   1.000  C
  C349     1.0000 0.96573  0.05900  0.63311  Biso   1.000  C
  C350     1.0000 0.00330  0.02393  0.61160  Biso   1.000  C
  C351     1.0000 0.91939  0.16994  0.48713  Biso   1.000  C
  C352     1.0000 0.93123  0.18148  0.54551  Biso   1.000  C
  C353     1.0000 0.95138  0.12960  0.56696  Biso   1.000  C
  C354     1.0000 0.92233  0.24361  0.37082  Biso   1.000  C
  C355     1.0000 0.91331  0.21479  0.56807  Biso   1.000  C
  C356     1.0000 0.92803  0.19746  0.50081  Biso   1.000  C
  C357     1.0000 0.93447  0.24099  0.47159  Biso   1.000  C
  C358     1.0000 0.93326  0.25569  0.42935  Biso   1.000  C
  C359     1.0000 0.92398  0.22739  0.41669  Biso   1.000  C
  C360     1.0000 0.91762  0.18384  0.44564  Biso   1.000  C
  C361     1.0000 0.27677  0.19283  0.31511  Biso   1.000  C
  C362     1.0000 0.23876  0.18172  0.31541  Biso   1.000  C
  C363     1.0000 0.36767  0.17311  0.28139  Biso   1.000  C
  C364     1.0000 0.34133  0.10521  0.32864  Biso   1.000  C
  C365     1.0000 0.42846  0.08900  0.28901  Biso   1.000  C
  C366     1.0000 0.41731  0.13996  0.27056  Biso   1.000  C
  C367     1.0000 0.48081  0.05260  0.27608  Biso   1.000  C
  C368     1.0000 0.39065  0.07233  0.31832  Biso   1.000  C
  C369     1.0000 0.32924  0.15587  0.31010  Biso   1.000  C
  C370     1.0000 0.20555  0.82944  0.64928  Biso   1.000  C
  C371     1.0000 0.12833  0.82227  0.70889  Biso   1.000  C
  C372     1.0000 0.16804  0.84428  0.68336  Biso   1.000  C
  C373     1.0000 0.16528  0.88219  0.69353  Biso   1.000  C
  C374     1.0000 0.24102  0.85185  0.62585  Biso   1.000  C
  C375     1.0000 0.27803  0.91100  0.61100  Biso   1.000  C
  C376     1.0000 0.23978  0.88779  0.63593  Biso   1.000  C
  C377     1.0000 0.19966  0.90462  0.67034  Biso   1.000  C
  C378     1.0000 0.37570  0.99034  0.67646  Biso   1.000  C
  C379     1.0000 0.35491  0.95516  0.69842  Biso   1.000  C
  C380     1.0000 0.37727  0.01604  0.63308  Biso   1.000  C
  C381     1.0000 0.39659  0.00084  0.69989  Biso   1.000  C
  C382     1.0000 0.28917  0.92967  0.63179  Biso   1.000  C
  C383     1.0000 0.33757  0.94275  0.67685  Biso   1.000  C
  C384     1.0000 0.32694  0.94999  0.60983  Biso   1.000  C
  C385     1.0000 0.34216  0.96573  0.63311  Biso   1.000  C
  C386     1.0000 0.36117  0.00330  0.61160  Biso   1.000  C
  C387     1.0000 0.42354  0.91939  0.48713  Biso   1.000  C
  C388     1.0000 0.34178  0.93123  0.54551  Biso   1.000  C
  C389     1.0000 0.35206  0.95138  0.56696  Biso   1.000  C
  C390     1.0000 0.46324  0.92233  0.37082  Biso   1.000  C
  C391     1.0000 0.30383  0.91331  0.56807  Biso   1.000  C
  C392     1.0000 0.37370  0.92803  0.50081  Biso   1.000  C
  C393     1.0000 0.35295  0.93447  0.47159  Biso   1.000  C
  C394     1.0000 0.38170  0.93326  0.42935  Biso   1.000  C
  C395     1.0000 0.43194  0.92398  0.41669  Biso   1.000  C
  C396     1.0000 0.45290  0.91762  0.44564  Biso   1.000  C
  C397     1.0000 0.21529  0.27677  0.31511  Biso   1.000  C
  C398     1.0000 0.26411  0.23876  0.31541  Biso   1.000  C
  C399     1.0000 0.17783  0.36767  0.28139  Biso   1.000  C
  C400     1.0000 0.22482  0.34133  0.32864  Biso   1.000  C
  C401     1.0000 0.19353  0.42846  0.28901  Biso   1.000  C
  C402     1.0000 0.17217  0.41731  0.27056  Biso   1.000  C
  C403     1.0000 0.19051  0.48081  0.27608  Biso   1.000  C
  C404     1.0000 0.21870  0.39065  0.31832  Biso   1.000  C
  C405     1.0000 0.20479  0.32924  0.31010  Biso   1.000  C
  C406     1.0000 0.31573  0.20555  0.64928  Biso   1.000  C
  C407     1.0000 0.34051  0.12833  0.70889  Biso   1.000  C
  C408     1.0000 0.30432  0.16804  0.68336  Biso   1.000  C
  C409     1.0000 0.25900  0.16528  0.69353  Biso   1.000  C
  C410     1.0000 0.28128  0.24102  0.62585  Biso   1.000  C
  C411     1.0000 0.19997  0.27803  0.61100  Biso   1.000  C
  C412     1.0000 0.23650  0.23978  0.63593  Biso   1.000  C
  C413     1.0000 0.22538  0.19966  0.67034  Biso   1.000  C
  C414     1.0000 0.95750  0.37570  0.67646  Biso   1.000  C
  C415     1.0000 0.99151  0.35491  0.69842  Biso   1.000  C
  C416     1.0000 0.97361  0.37727  0.63308  Biso   1.000  C
  C417     1.0000 0.90268  0.39659  0.69989  Biso   1.000  C
  C418     1.0000 0.14937  0.28917  0.63179  Biso   1.000  C
  C419     1.0000 0.04283  0.33757  0.67685  Biso   1.000  C
  C420     1.0000 0.11324  0.32694  0.60983  Biso   1.000  C
  C421     1.0000 0.05900  0.34216  0.63311  Biso   1.000  C
  C422     1.0000 0.02393  0.36117  0.61160  Biso   1.000  C
  C423     1.0000 0.16994  0.42354  0.48713  Biso   1.000  C
  C424     1.0000 0.18148  0.34178  0.54551  Biso   1.000  C
  C425     1.0000 0.12960  0.35206  0.56696  Biso   1.000  C
  C426     1.0000 0.24361  0.46324  0.37082  Biso   1.000  C
  C427     1.0000 0.21479  0.30383  0.56807  Biso   1.000  C
  C428     1.0000 0.19746  0.37370  0.50081  Biso   1.000  C
  C429     1.0000 0.24099  0.35295  0.47159  Biso   1.000  C
  C430     1.0000 0.25569  0.38170  0.42935  Biso   1.000  C
  C431     1.0000 0.22739  0.43194  0.41669  Biso   1.000  C
  C432     1.0000 0.18384  0.45290  0.44564  Biso   1.000  C
  O1       1.0000 0.50742  0.98883  0.79960  Biso   1.000  O
  O2       1.0000 0.56846  0.01184  0.74359  Biso   1.000  O
  O3       1.0000 0.33078  0.59879  0.24375  Biso   1.000  O
  O4       1.0000 0.29536  0.62832  0.19065  Biso   1.000  O
  O5       1.0000 0.47728  0.89358  0.23802  Biso   1.000  O
  O6       1.0000 0.53449  0.91605  0.17679  Biso   1.000  O
  O7       1.0000 0.41362  0.00954  0.86218  Biso   1.000  O
  O8       1.0000 0.43007  0.94221  0.84538  Biso   1.000  O
  O9       1.0000 0.41079  0.03125  0.76996  Biso   1.000  O
  O10      1.0000 0.61430  0.08346  0.68920  Biso   1.000  O
  O11      1.0000 0.51841  0.16171  0.67468  Biso   1.000  O
  O12      1.0000 0.98883  0.70415  0.79960  Biso   1.000  O
  O13      1.0000 0.01184  0.67611  0.74359  Biso   1.000  O
  O14      1.0000 0.59879  0.82668  0.24375  Biso   1.000  O
  O15      1.0000 0.62832  0.88567  0.19065  Biso   1.000  O
  O16      1.0000 0.89358  0.39112  0.23802  Biso   1.000  O
  O17      1.0000 0.91605  0.37267  0.17679  Biso   1.000  O
  O18      1.0000 0.00954  0.71466  0.86218  Biso   1.000  O
  O19      1.0000 0.94221  0.78234  0.84538  Biso   1.000  O
  O20      1.0000 0.03125  0.78800  0.76996  Biso   1.000  O
  O21      1.0000 0.08346  0.61304  0.68920  Biso   1.000  O
  O22      1.0000 0.16171  0.64520  0.67468  Biso   1.000  O
  O23      1.0000 0.70415  0.50742  0.79960  Biso   1.000  O
  O24      1.0000 0.67611  0.56846  0.74359  Biso   1.000  O
  O25      1.0000 0.82668  0.33078  0.24375  Biso   1.000  O
  O26      1.0000 0.88567  0.29536  0.19065  Biso   1.000  O
  O27      1.0000 0.39112  0.47728  0.23802  Biso   1.000  O
  O28      1.0000 0.37267  0.53449  0.17679  Biso   1.000  O
  O29      1.0000 0.71466  0.41362  0.86218  Biso   1.000  O
  O30      1.0000 0.78234  0.43007  0.84538  Biso   1.000  O
  O31      1.0000 0.78800  0.41079  0.76996  Biso   1.000  O
  O32      1.0000 0.61304  0.61430  0.68920  Biso   1.000  O
  O33      1.0000 0.64520  0.51841  0.67468  Biso   1.000  O
  O34      1.0000 0.99258  0.79585  0.70040  Biso   1.000  O
  O35      1.0000 0.93154  0.82389  0.75641  Biso   1.000  O
  O36      1.0000 0.16922  0.67332  0.25625  Biso   1.000  O
  O37      1.0000 0.20464  0.61433  0.30935  Biso   1.000  O
  O38      1.0000 0.02272  0.10888  0.26198  Biso   1.000  O
  O39      1.0000 0.96551  0.12733  0.32321  Biso   1.000  O
  O40      1.0000 0.08638  0.78534  0.63782  Biso   1.000  O
  O41      1.0000 0.06993  0.71766  0.65462  Biso   1.000  O
  O42      1.0000 0.08921  0.71200  0.73004  Biso   1.000  O
  O43      1.0000 0.88570  0.88696  0.81080  Biso   1.000  O
  O44      1.0000 0.98159  0.85480  0.82532  Biso   1.000  O
  O45      1.0000 0.51117  0.99258  0.70040  Biso   1.000  O
  O46      1.0000 0.48816  0.93154  0.75641  Biso   1.000  O
  O47      1.0000 0.90121  0.16922  0.25625  Biso   1.000  O
  O48      1.0000 0.87168  0.20464  0.30935  Biso   1.000  O
  O49      1.0000 0.60642  0.02272  0.26198  Biso   1.000  O
  O50      1.0000 0.58395  0.96551  0.32321  Biso   1.000  O
  O51      1.0000 0.49046  0.08638  0.63782  Biso   1.000  O
  O52      1.0000 0.55779  0.06993  0.65462  Biso   1.000  O
  O53      1.0000 0.46875  0.08921  0.73004  Biso   1.000  O
  O54      1.0000 0.41654  0.88570  0.81080  Biso   1.000  O
  O55      1.0000 0.33829  0.98159  0.82532  Biso   1.000  O
  O56      1.0000 0.79585  0.51117  0.70040  Biso   1.000  O
  O57      1.0000 0.82389  0.48816  0.75641  Biso   1.000  O
  O58      1.0000 0.67332  0.90121  0.25625  Biso   1.000  O
  O59      1.0000 0.61433  0.87168  0.30935  Biso   1.000  O
  O60      1.0000 0.10888  0.60642  0.26198  Biso   1.000  O
  O61      1.0000 0.12733  0.58395  0.32321  Biso   1.000  O
  O62      1.0000 0.78534  0.49046  0.63782  Biso   1.000  O
  O63      1.0000 0.71766  0.55779  0.65462  Biso   1.000  O
  O64      1.0000 0.71200  0.46875  0.73004  Biso   1.000  O
  O65      1.0000 0.88696  0.41654  0.81080  Biso   1.000  O
  O66      1.0000 0.85480  0.33829  0.82532  Biso   1.000  O
  O67      1.0000 0.49258  0.01117  0.20040  Biso   1.000  O
  O68      1.0000 0.43154  0.98816  0.25641  Biso   1.000  O
  O69      1.0000 0.66922  0.40121  0.75625  Biso   1.000  O
  O70      1.0000 0.70464  0.37168  0.80935  Biso   1.000  O
  O71      1.0000 0.52272  0.10642  0.76198  Biso   1.000  O
  O72      1.0000 0.46551  0.08395  0.82321  Biso   1.000  O
  O73      1.0000 0.58638  0.99046  0.13782  Biso   1.000  O
  O74      1.0000 0.56993  0.05779  0.15462  Biso   1.000  O
  O75      1.0000 0.58921  0.96875  0.23004  Biso   1.000  O
  O76      1.0000 0.38570  0.91654  0.31080  Biso   1.000  O
  O77      1.0000 0.48159  0.83829  0.32532  Biso   1.000  O
  O78      1.0000 0.01117  0.29585  0.20040  Biso   1.000  O
  O79      1.0000 0.98816  0.32389  0.25641  Biso   1.000  O
  O80      1.0000 0.40121  0.17332  0.75625  Biso   1.000  O
  O81      1.0000 0.37168  0.11433  0.80935  Biso   1.000  O
  O82      1.0000 0.10642  0.60888  0.76198  Biso   1.000  O
  O83      1.0000 0.08395  0.62733  0.82321  Biso   1.000  O
  O84      1.0000 0.99046  0.28534  0.13782  Biso   1.000  O
  O85      1.0000 0.05779  0.21766  0.15462  Biso   1.000  O
  O86      1.0000 0.96875  0.21200  0.23004  Biso   1.000  O
  O87      1.0000 0.91654  0.38696  0.31080  Biso   1.000  O
  O88      1.0000 0.83829  0.35480  0.32532  Biso   1.000  O
  O89      1.0000 0.29585  0.49258  0.20040  Biso   1.000  O
  O90      1.0000 0.32389  0.43154  0.25641  Biso   1.000  O
  O91      1.0000 0.17332  0.66922  0.75625  Biso   1.000  O
  O92      1.0000 0.11433  0.70464  0.80935  Biso   1.000  O
  O93      1.0000 0.60888  0.52272  0.76198  Biso   1.000  O
  O94      1.0000 0.62733  0.46551  0.82321  Biso   1.000  O
  O95      1.0000 0.28534  0.58638  0.13782  Biso   1.000  O
  O96      1.0000 0.21766  0.56993  0.15462  Biso   1.000  O
  O97      1.0000 0.21200  0.58921  0.23004  Biso   1.000  O
  O98      1.0000 0.38696  0.38570  0.31080  Biso   1.000  O
  O99      1.0000 0.35480  0.48159  0.32532  Biso   1.000  O
  O100     1.0000 0.00742  0.20415  0.29960  Biso   1.000  O
  O101     1.0000 0.06846  0.17611  0.24359  Biso   1.000  O
  O102     1.0000 0.83078  0.32668  0.74375  Biso   1.000  O
  O103     1.0000 0.79536  0.38567  0.69065  Biso   1.000  O
  O104     1.0000 0.97728  0.89112  0.73802  Biso   1.000  O
  O105     1.0000 0.03449  0.87267  0.67679  Biso   1.000  O
  O106     1.0000 0.91362  0.21466  0.36218  Biso   1.000  O
  O107     1.0000 0.93007  0.28234  0.34538  Biso   1.000  O
  O108     1.0000 0.91079  0.28800  0.26996  Biso   1.000  O
  O109     1.0000 0.11430  0.11304  0.18920  Biso   1.000  O
  O110     1.0000 0.01841  0.14520  0.17468  Biso   1.000  O
  O111     1.0000 0.48883  0.00742  0.29960  Biso   1.000  O
  O112     1.0000 0.51184  0.06846  0.24359  Biso   1.000  O
  O113     1.0000 0.09879  0.83078  0.74375  Biso   1.000  O
  O114     1.0000 0.12832  0.79536  0.69065  Biso   1.000  O
  O115     1.0000 0.39358  0.97728  0.73802  Biso   1.000  O
  O116     1.0000 0.41605  0.03449  0.67679  Biso   1.000  O
  O117     1.0000 0.50954  0.91362  0.36218  Biso   1.000  O
  O118     1.0000 0.44221  0.93007  0.34538  Biso   1.000  O
  O119     1.0000 0.53125  0.91079  0.26996  Biso   1.000  O
  O120     1.0000 0.58346  0.11430  0.18920  Biso   1.000  O
  O121     1.0000 0.66171  0.01841  0.17468  Biso   1.000  O
  O122     1.0000 0.20415  0.48883  0.29960  Biso   1.000  O
  O123     1.0000 0.17611  0.51184  0.24359  Biso   1.000  O
  O124     1.0000 0.32668  0.09879  0.74375  Biso   1.000  O
  O125     1.0000 0.38567  0.12832  0.69065  Biso   1.000  O
  O126     1.0000 0.89112  0.39358  0.73802  Biso   1.000  O
  O127     1.0000 0.87267  0.41605  0.67679  Biso   1.000  O
  O128     1.0000 0.21466  0.50954  0.36218  Biso   1.000  O
  O129     1.0000 0.28234  0.44221  0.34538  Biso   1.000  O
  O130     1.0000 0.28800  0.53125  0.26996  Biso   1.000  O
  O131     1.0000 0.11304  0.58346  0.18920  Biso   1.000  O
  O132     1.0000 0.14520  0.66171  0.17468  Biso   1.000  O
