data_image0
_cell_length_a       21.883
_cell_length_b       21.883
_cell_length_c       40.184
_cell_angle_alpha    90
_cell_angle_beta     90
_cell_angle_gamma    90

_symmetry_space_group_name_H-M    P 1
_symmetry_int_tables_number       1

loop_
  _symmetry_equiv_pos_as_xyz
  'x, y, z'

loop_
  _atom_site_label
  _atom_site_occupancy
  _atom_site_fract_x
  _atom_site_fract_y
  _atom_site_fract_z
  _atom_site_thermal_displace_type
  _atom_site_B_iso_or_equiv
  _atom_site_type_symbol
  Zn1      1.0000 0.81815  0.98971  0.71423  Biso   1.000  Zn
  Zn2      1.0000 0.26248  0.43103  0.96485  Biso   1.000  Zn
  Zn3      1.0000 0.77967  0.34323  0.71025  Biso   1.000  Zn
  Zn4      1.0000 0.19345  0.51765  0.02536  Biso   1.000  Zn
  Zn5      1.0000 0.74044  0.91381  0.77389  Biso   1.000  Zn
  Zn6      1.0000 0.19075  0.92763  0.98954  Biso   1.000  Zn
  Zn7      1.0000 0.62981  0.46669  0.96705  Biso   1.000  Zn
  Zn8      1.0000 0.20024  0.96973  0.74438  Biso   1.000  Zn
  Zn9      1.0000 0.65560  0.39563  0.74446  Biso   1.000  Zn
  Zn10     1.0000 0.74917  0.42299  0.01151  Biso   1.000  Zn
  Zn11     1.0000 0.68185  0.01029  0.21423  Biso   1.000  Zn
  Zn12     1.0000 0.23752  0.56897  0.46485  Biso   1.000  Zn
  Zn13     1.0000 0.72033  0.65677  0.21025  Biso   1.000  Zn
  Zn14     1.0000 0.30655  0.48235  0.52536  Biso   1.000  Zn
  Zn15     1.0000 0.75956  0.08619  0.27389  Biso   1.000  Zn
  Zn16     1.0000 0.30925  0.07237  0.48954  Biso   1.000  Zn
  Zn17     1.0000 0.87019  0.53331  0.46705  Biso   1.000  Zn
  Zn18     1.0000 0.29976  0.03027  0.24438  Biso   1.000  Zn
  Zn19     1.0000 0.84440  0.60437  0.24446  Biso   1.000  Zn
  Zn20     1.0000 0.75083  0.57701  0.51151  Biso   1.000  Zn
  Zn21     1.0000 0.18185  0.48971  0.78577  Biso   1.000  Zn
  Zn22     1.0000 0.73752  0.93103  0.53515  Biso   1.000  Zn
  Zn23     1.0000 0.22033  0.84323  0.78975  Biso   1.000  Zn
  Zn24     1.0000 0.80655  0.01765  0.47464  Biso   1.000  Zn
  Zn25     1.0000 0.25956  0.41381  0.72611  Biso   1.000  Zn
  Zn26     1.0000 0.80925  0.42763  0.51046  Biso   1.000  Zn
  Zn27     1.0000 0.37019  0.96669  0.53295  Biso   1.000  Zn
  Zn28     1.0000 0.79976  0.46973  0.75562  Biso   1.000  Zn
  Zn29     1.0000 0.34440  0.89563  0.75554  Biso   1.000  Zn
  Zn30     1.0000 0.25083  0.92299  0.48849  Biso   1.000  Zn
  Zn31     1.0000 0.31815  0.51029  0.28577  Biso   1.000  Zn
  Zn32     1.0000 0.76248  0.06897  0.03515  Biso   1.000  Zn
  Zn33     1.0000 0.27967  0.15677  0.28975  Biso   1.000  Zn
  Zn34     1.0000 0.69345  0.98235  0.97464  Biso   1.000  Zn
  Zn35     1.0000 0.24044  0.58619  0.22611  Biso   1.000  Zn
  Zn36     1.0000 0.69075  0.57237  0.01046  Biso   1.000  Zn
  Zn37     1.0000 0.12981  0.03331  0.03295  Biso   1.000  Zn
  Zn38     1.0000 0.70024  0.53027  0.25562  Biso   1.000  Zn
  Zn39     1.0000 0.15560  0.10437  0.25554  Biso   1.000  Zn
  Zn40     1.0000 0.24917  0.07701  0.98849  Biso   1.000  Zn
  H1       1.0000 0.26260  0.40820  0.85280  Biso   1.000  H
  H2       1.0000 0.37180  0.28600  0.89670  Biso   1.000  H
  H3       1.0000 0.35070  0.28960  0.79640  Biso   1.000  H
  H4       1.0000 0.46440  0.24870  0.87630  Biso   1.000  H
  H5       1.0000 0.41650  0.19870  0.88680  Biso   1.000  H
  H6       1.0000 0.56070  0.12090  0.88090  Biso   1.000  H
  H7       1.0000 0.50880  0.13720  0.90660  Biso   1.000  H
  H8       1.0000 0.54470  0.21930  0.83250  Biso   1.000  H
  H9       1.0000 0.49420  0.19060  0.80950  Biso   1.000  H
  H10      1.0000 0.61190  0.12220  0.93090  Biso   1.000  H
  H11      1.0000 0.70510  0.23520  0.99170  Biso   1.000  H
  H12      1.0000 0.59300  0.30240  0.92180  Biso   1.000  H
  H13      1.0000 0.63150  0.05760  0.79680  Biso   1.000  H
  H14      1.0000 0.73590  0.16160  0.73670  Biso   1.000  H
  H15      1.0000 0.59370  0.23430  0.78460  Biso   1.000  H
  H16      1.0000 0.38900  0.00990  0.83270  Biso   1.000  H
  H17      1.0000 0.47780  0.07330  0.84460  Biso   1.000  H
  H18      1.0000 0.42100  0.11270  0.83370  Biso   1.000  H
  H19      1.0000 0.36230  0.05010  0.92950  Biso   1.000  H
  H20      1.0000 0.26900  0.91670  0.88700  Biso   1.000  H
  H21      1.0000 0.71450  0.50370  0.88040  Biso   1.000  H
  H22      1.0000 0.80080  0.63460  0.92810  Biso   1.000  H
  H23      1.0000 0.84720  0.59720  0.83340  Biso   1.000  H
  H24      1.0000 0.85220  0.73420  0.91030  Biso   1.000  H
  H25      1.0000 0.89370  0.68090  0.92380  Biso   1.000  H
  H26      1.0000 0.89560  0.81310  0.87390  Biso   1.000  H
  H27      1.0000 0.91260  0.76130  0.84840  Biso   1.000  H
  H28      1.0000 0.88920  0.86160  0.82140  Biso   1.000  H
  H29      1.0000 0.99300  0.94820  0.75460  Biso   1.000  H
  H30      1.0000 0.07230  0.85510  0.83030  Biso   1.000  H
  H31      1.0000 0.02730  0.72560  0.87620  Biso   1.000  H
  H32      1.0000 0.97870  0.67600  0.86590  Biso   1.000  H
  H33      1.0000 0.06040  0.62370  0.85540  Biso   1.000  H
  H34      1.0000 0.17350  0.50330  0.89510  Biso   1.000  H
  H35      1.0000 0.06880  0.60710  0.95430  Biso   1.000  H
  H36      1.0000 0.83830  0.88360  0.95820  Biso   1.000  H
  H37      1.0000 0.99990  0.80670  0.91900  Biso   1.000  H
  H38      1.0000 0.98070  0.75290  0.94290  Biso   1.000  H
  H39      1.0000 0.01900  0.85530  0.96440  Biso   1.000  H
  H40      1.0000 0.94580  0.99660  0.01240  Biso   1.000  H
  H41      1.0000 0.23740  0.59180  0.35280  Biso   1.000  H
  H42      1.0000 0.12820  0.71400  0.39670  Biso   1.000  H
  H43      1.0000 0.14930  0.71040  0.29640  Biso   1.000  H
  H44      1.0000 0.03560  0.75130  0.37630  Biso   1.000  H
  H45      1.0000 0.08350  0.80130  0.38680  Biso   1.000  H
  H46      1.0000 0.93930  0.87910  0.38090  Biso   1.000  H
  H47      1.0000 0.99120  0.86280  0.40660  Biso   1.000  H
  H48      1.0000 0.95530  0.78070  0.33250  Biso   1.000  H
  H49      1.0000 0.00580  0.80940  0.30950  Biso   1.000  H
  H50      1.0000 0.88810  0.87780  0.43090  Biso   1.000  H
  H51      1.0000 0.79490  0.76480  0.49170  Biso   1.000  H
  H52      1.0000 0.90700  0.69760  0.42180  Biso   1.000  H
  H53      1.0000 0.86850  0.94240  0.29680  Biso   1.000  H
  H54      1.0000 0.76410  0.83840  0.23670  Biso   1.000  H
  H55      1.0000 0.90630  0.76570  0.28460  Biso   1.000  H
  H56      1.0000 0.11100  0.99010  0.33270  Biso   1.000  H
  H57      1.0000 0.02220  0.92670  0.34460  Biso   1.000  H
  H58      1.0000 0.07900  0.88730  0.33370  Biso   1.000  H
  H59      1.0000 0.13770  0.94990  0.42950  Biso   1.000  H
  H60      1.0000 0.23100  0.08330  0.38700  Biso   1.000  H
  H61      1.0000 0.78550  0.49630  0.38040  Biso   1.000  H
  H62      1.0000 0.69920  0.36540  0.42810  Biso   1.000  H
  H63      1.0000 0.65280  0.40280  0.33340  Biso   1.000  H
  H64      1.0000 0.64780  0.26580  0.41030  Biso   1.000  H
  H65      1.0000 0.60630  0.31910  0.42380  Biso   1.000  H
  H66      1.0000 0.60440  0.18690  0.37390  Biso   1.000  H
  H67      1.0000 0.58740  0.23870  0.34840  Biso   1.000  H
  H68      1.0000 0.61080  0.13840  0.32140  Biso   1.000  H
  H69      1.0000 0.50700  0.05180  0.25460  Biso   1.000  H
  H70      1.0000 0.42770  0.14490  0.33030  Biso   1.000  H
  H71      1.0000 0.47270  0.27440  0.37620  Biso   1.000  H
  H72      1.0000 0.52130  0.32400  0.36590  Biso   1.000  H
  H73      1.0000 0.43960  0.37630  0.35540  Biso   1.000  H
  H74      1.0000 0.32650  0.49670  0.39510  Biso   1.000  H
  H75      1.0000 0.43120  0.39290  0.45430  Biso   1.000  H
  H76      1.0000 0.66170  0.11640  0.45820  Biso   1.000  H
  H77      1.0000 0.50010  0.19330  0.41900  Biso   1.000  H
  H78      1.0000 0.51930  0.24710  0.44290  Biso   1.000  H
  H79      1.0000 0.48100  0.14470  0.46440  Biso   1.000  H
  H80      1.0000 0.55420  0.00340  0.51240  Biso   1.000  H
  H81      1.0000 0.73740  0.90820  0.64720  Biso   1.000  H
  H82      1.0000 0.62820  0.78600  0.60330  Biso   1.000  H
  H83      1.0000 0.64930  0.78960  0.70360  Biso   1.000  H
  H84      1.0000 0.53560  0.74870  0.62370  Biso   1.000  H
  H85      1.0000 0.58350  0.69870  0.61320  Biso   1.000  H
  H86      1.0000 0.43930  0.62090  0.61910  Biso   1.000  H
  H87      1.0000 0.49120  0.63720  0.59340  Biso   1.000  H
  H88      1.0000 0.45530  0.71930  0.66750  Biso   1.000  H
  H89      1.0000 0.50580  0.69060  0.69050  Biso   1.000  H
  H90      1.0000 0.38810  0.62220  0.56910  Biso   1.000  H
  H91      1.0000 0.29490  0.73520  0.50830  Biso   1.000  H
  H92      1.0000 0.40700  0.80240  0.57820  Biso   1.000  H
  H93      1.0000 0.36850  0.55760  0.70320  Biso   1.000  H
  H94      1.0000 0.26410  0.66160  0.76330  Biso   1.000  H
  H95      1.0000 0.40630  0.73430  0.71540  Biso   1.000  H
  H96      1.0000 0.61100  0.50990  0.66730  Biso   1.000  H
  H97      1.0000 0.52220  0.57330  0.65540  Biso   1.000  H
  H98      1.0000 0.57900  0.61270  0.66630  Biso   1.000  H
  H99      1.0000 0.63770  0.55010  0.57050  Biso   1.000  H
  H100     1.0000 0.73100  0.41670  0.61300  Biso   1.000  H
  H101     1.0000 0.28550  0.00370  0.61960  Biso   1.000  H
  H102     1.0000 0.19920  0.13460  0.57190  Biso   1.000  H
  H103     1.0000 0.15280  0.09720  0.66660  Biso   1.000  H
  H104     1.0000 0.14780  0.23420  0.58970  Biso   1.000  H
  H105     1.0000 0.10630  0.18090  0.57620  Biso   1.000  H
  H106     1.0000 0.10440  0.31310  0.62610  Biso   1.000  H
  H107     1.0000 0.08740  0.26130  0.65160  Biso   1.000  H
  H108     1.0000 0.11080  0.36160  0.67860  Biso   1.000  H
  H109     1.0000 0.00700  0.44820  0.74540  Biso   1.000  H
  H110     1.0000 0.92770  0.35510  0.66970  Biso   1.000  H
  H111     1.0000 0.97270  0.22560  0.62380  Biso   1.000  H
  H112     1.0000 0.02130  0.17600  0.63410  Biso   1.000  H
  H113     1.0000 0.93960  0.12370  0.64460  Biso   1.000  H
  H114     1.0000 0.82650  0.00330  0.60490  Biso   1.000  H
  H115     1.0000 0.93120  0.10710  0.54570  Biso   1.000  H
  H116     1.0000 0.16170  0.38360  0.54180  Biso   1.000  H
  H117     1.0000 0.00010  0.30670  0.58100  Biso   1.000  H
  H118     1.0000 0.01930  0.25290  0.55710  Biso   1.000  H
  H119     1.0000 0.98100  0.35530  0.53560  Biso   1.000  H
  H120     1.0000 0.05420  0.49660  0.48760  Biso   1.000  H
  H121     1.0000 0.76260  0.09180  0.14720  Biso   1.000  H
  H122     1.0000 0.87180  0.21400  0.10330  Biso   1.000  H
  H123     1.0000 0.85070  0.21040  0.20360  Biso   1.000  H
  H124     1.0000 0.96440  0.25130  0.12370  Biso   1.000  H
  H125     1.0000 0.91650  0.30130  0.11320  Biso   1.000  H
  H126     1.0000 0.06070  0.37910  0.11910  Biso   1.000  H
  H127     1.0000 0.00880  0.36280  0.09340  Biso   1.000  H
  H128     1.0000 0.04470  0.28070  0.16750  Biso   1.000  H
  H129     1.0000 0.99420  0.30940  0.19050  Biso   1.000  H
  H130     1.0000 0.11190  0.37780  0.06910  Biso   1.000  H
  H131     1.0000 0.20510  0.26480  0.00830  Biso   1.000  H
  H132     1.0000 0.09300  0.19760  0.07820  Biso   1.000  H
  H133     1.0000 0.13150  0.44240  0.20320  Biso   1.000  H
  H134     1.0000 0.23590  0.33840  0.26330  Biso   1.000  H
  H135     1.0000 0.09370  0.26570  0.21540  Biso   1.000  H
  H136     1.0000 0.88900  0.49010  0.16730  Biso   1.000  H
  H137     1.0000 0.97780  0.42670  0.15540  Biso   1.000  H
  H138     1.0000 0.92100  0.38730  0.16630  Biso   1.000  H
  H139     1.0000 0.86230  0.44990  0.07050  Biso   1.000  H
  H140     1.0000 0.76900  0.58330  0.11300  Biso   1.000  H
  H141     1.0000 0.21450  0.99630  0.11960  Biso   1.000  H
  H142     1.0000 0.30080  0.86540  0.07190  Biso   1.000  H
  H143     1.0000 0.34720  0.90280  0.16660  Biso   1.000  H
  H144     1.0000 0.35220  0.76580  0.08970  Biso   1.000  H
  H145     1.0000 0.39370  0.81910  0.07620  Biso   1.000  H
  H146     1.0000 0.39560  0.68690  0.12610  Biso   1.000  H
  H147     1.0000 0.41260  0.73870  0.15160  Biso   1.000  H
  H148     1.0000 0.38920  0.63840  0.17860  Biso   1.000  H
  H149     1.0000 0.49300  0.55180  0.24540  Biso   1.000  H
  H150     1.0000 0.57230  0.64490  0.16970  Biso   1.000  H
  H151     1.0000 0.52730  0.77440  0.12380  Biso   1.000  H
  H152     1.0000 0.47870  0.82400  0.13410  Biso   1.000  H
  H153     1.0000 0.56040  0.87630  0.14460  Biso   1.000  H
  H154     1.0000 0.67350  0.99670  0.10490  Biso   1.000  H
  H155     1.0000 0.56880  0.89290  0.04570  Biso   1.000  H
  H156     1.0000 0.33830  0.61640  0.04180  Biso   1.000  H
  H157     1.0000 0.49990  0.69330  0.08100  Biso   1.000  H
  H158     1.0000 0.48070  0.74710  0.05710  Biso   1.000  H
  H159     1.0000 0.51900  0.64470  0.03560  Biso   1.000  H
  H160     1.0000 0.44580  0.50340  0.98760  Biso   1.000  H
  C1       1.0000 0.87740  0.92690  0.76924  Biso   1.000  C
  C2       1.0000 0.72720  0.04510  0.75717  Biso   1.000  C
  C3       1.0000 0.27650  0.38160  0.78970  Biso   1.000  C
  C4       1.0000 0.30190  0.35240  0.81967  Biso   1.000  C
  C5       1.0000 0.28990  0.37580  0.85101  Biso   1.000  C
  C6       1.0000 0.31570  0.35390  0.87888  Biso   1.000  C
  C7       1.0000 0.35520  0.30240  0.87739  Biso   1.000  C
  C8       1.0000 0.36870  0.27660  0.84605  Biso   1.000  C
  C9       1.0000 0.34120  0.30480  0.81734  Biso   1.000  C
  C10      1.0000 0.44180  0.21320  0.86863  Biso   1.000  C
  C11      1.0000 0.48600  0.16340  0.85803  Biso   1.000  C
  C12      1.0000 0.53070  0.15150  0.88710  Biso   1.000  C
  C13      1.0000 0.52180  0.18230  0.82778  Biso   1.000  C
  C14      1.0000 0.59840  0.21120  0.92049  Biso   1.000  C
  C15      1.0000 0.62240  0.16180  0.93703  Biso   1.000  C
  C16      1.0000 0.66360  0.17260  0.96375  Biso   1.000  C
  C17      1.0000 0.67780  0.22930  0.97430  Biso   1.000  C
  C18      1.0000 0.65080  0.27830  0.95868  Biso   1.000  C
  C19      1.0000 0.61120  0.26890  0.93200  Biso   1.000  C
  C20      1.0000 0.66430  0.34230  0.97049  Biso   1.000  C
  C21      1.0000 0.60750  0.14630  0.79526  Biso   1.000  C
  C22      1.0000 0.64110  0.09520  0.78730  Biso   1.000  C
  C23      1.0000 0.68950  0.10000  0.76503  Biso   1.000  C
  C24      1.0000 0.70270  0.15710  0.75098  Biso   1.000  C
  C25      1.0000 0.66650  0.20600  0.75842  Biso   1.000  C
  C26      1.0000 0.61850  0.20070  0.78018  Biso   1.000  C
  C27      1.0000 0.68060  0.26650  0.74450  Biso   1.000  C
  C28      1.0000 0.31210  0.92230  0.82370  Biso   1.000  C
  C29      1.0000 0.32610  0.95950  0.85507  Biso   1.000  C
  C30      1.0000 0.36830  0.00400  0.85262  Biso   1.000  C
  C31      1.0000 0.38120  0.04170  0.88012  Biso   1.000  C
  C32      1.0000 0.45040  0.10580  0.85137  Biso   1.000  C
  C33      1.0000 0.35270  0.02770  0.91047  Biso   1.000  C
  C34      1.0000 0.31110  0.98140  0.91213  Biso   1.000  C
  C35      1.0000 0.29760  0.94790  0.88540  Biso   1.000  C
  C36      1.0000 0.27910  0.97180  0.94521  Biso   1.000  C
  C37      1.0000 0.10720  0.92250  0.77963  Biso   1.000  C
  C38      1.0000 0.77370  0.50340  0.82144  Biso   1.000  C
  C39      1.0000 0.78040  0.54270  0.85211  Biso   1.000  C
  C40      1.0000 0.74520  0.53310  0.88065  Biso   1.000  C
  C41      1.0000 0.75490  0.56500  0.90778  Biso   1.000  C
  C42      1.0000 0.71890  0.55090  0.93869  Biso   1.000  C
  C43      1.0000 0.05170  0.94880  0.00102  Biso   1.000  C
  C44      1.0000 0.79530  0.61230  0.90865  Biso   1.000  C
  C45      1.0000 0.82840  0.62720  0.88022  Biso   1.000  C
  C46      1.0000 0.82290  0.59020  0.85196  Biso   1.000  C
  C47      1.0000 0.88540  0.70680  0.90468  Biso   1.000  C
  C48      1.0000 0.94260  0.74320  0.89520  Biso   1.000  C
  C49      1.0000 0.92740  0.78470  0.86719  Biso   1.000  C
  C50      1.0000 0.97950  0.85050  0.82979  Biso   1.000  C
  C51      1.0000 0.92780  0.87150  0.81343  Biso   1.000  C
  C52      1.0000 0.93360  0.90620  0.78615  Biso   1.000  C
  C53      1.0000 0.99020  0.92400  0.77359  Biso   1.000  C
  C54      1.0000 0.04400  0.90390  0.79068  Biso   1.000  C
  C55      1.0000 0.03780  0.86790  0.81873  Biso   1.000  C
  C56      1.0000 0.99290  0.70170  0.88405  Biso   1.000  C
  C57      1.0000 0.05480  0.62090  0.90552  Biso   1.000  C
  C58      1.0000 0.07560  0.60390  0.87420  Biso   1.000  C
  C59      1.0000 0.11780  0.55880  0.87062  Biso   1.000  C
  C60      1.0000 0.13770  0.54050  0.83676  Biso   1.000  C
  C61      1.0000 0.14440  0.53390  0.89766  Biso   1.000  C
  C62      1.0000 0.12810  0.55440  0.93029  Biso   1.000  C
  C63      1.0000 0.08210  0.59560  0.93325  Biso   1.000  C
  C64      1.0000 0.15740  0.52750  0.95923  Biso   1.000  C
  C65      1.0000 0.69180  0.11720  0.98068  Biso   1.000  C
  C66      1.0000 0.30360  0.37560  0.91570  Biso   1.000  C
  C67      1.0000 0.82380  0.97910  0.99720  Biso   1.000  C
  C68      1.0000 0.88030  0.94530  0.98866  Biso   1.000  C
  C69      1.0000 0.87610  0.89470  0.96694  Biso   1.000  C
  C70      1.0000 0.92690  0.86230  0.95864  Biso   1.000  C
  C71      1.0000 0.96650  0.78020  0.92557  Biso   1.000  C
  C72      1.0000 0.98480  0.87810  0.97036  Biso   1.000  C
  C73      1.0000 0.99060  0.92860  0.99103  Biso   1.000  C
  C74      1.0000 0.94080  0.96190  0.99937  Biso   1.000  C
  C75      1.0000 0.18880  0.78310  0.96850  Biso   1.000  C
  C76      1.0000 0.16160  0.81080  0.90780  Biso   1.000  C
  C77      1.0000 0.20350  0.69540  0.00150  Biso   1.000  C
  C78      1.0000 0.14430  0.78210  0.93890  Biso   1.000  C
  C79      1.0000 0.28960  0.75700  0.96680  Biso   1.000  C
  C80      1.0000 0.62260  0.07310  0.26924  Biso   1.000  C
  C81      1.0000 0.77280  0.95490  0.25717  Biso   1.000  C
  C82      1.0000 0.22350  0.61840  0.28970  Biso   1.000  C
  C83      1.0000 0.19810  0.64760  0.31967  Biso   1.000  C
  C84      1.0000 0.21010  0.62420  0.35101  Biso   1.000  C
  C85      1.0000 0.18430  0.64610  0.37888  Biso   1.000  C
  C86      1.0000 0.14480  0.69760  0.37739  Biso   1.000  C
  C87      1.0000 0.13130  0.72340  0.34605  Biso   1.000  C
  C88      1.0000 0.15880  0.69520  0.31734  Biso   1.000  C
  C89      1.0000 0.05820  0.78680  0.36863  Biso   1.000  C
  C90      1.0000 0.01400  0.83660  0.35803  Biso   1.000  C
  C91      1.0000 0.96930  0.84850  0.38710  Biso   1.000  C
  C92      1.0000 0.97820  0.81770  0.32778  Biso   1.000  C
  C93      1.0000 0.90160  0.78880  0.42049  Biso   1.000  C
  C94      1.0000 0.87760  0.83820  0.43703  Biso   1.000  C
  C95      1.0000 0.83640  0.82740  0.46375  Biso   1.000  C
  C96      1.0000 0.82220  0.77070  0.47430  Biso   1.000  C
  C97      1.0000 0.84920  0.72170  0.45868  Biso   1.000  C
  C98      1.0000 0.88880  0.73110  0.43200  Biso   1.000  C
  C99      1.0000 0.83570  0.65770  0.47049  Biso   1.000  C
  C100     1.0000 0.89250  0.85370  0.29526  Biso   1.000  C
  C101     1.0000 0.85890  0.90480  0.28730  Biso   1.000  C
  C102     1.0000 0.81050  0.90000  0.26503  Biso   1.000  C
  C103     1.0000 0.79730  0.84290  0.25098  Biso   1.000  C
  C104     1.0000 0.83350  0.79400  0.25842  Biso   1.000  C
  C105     1.0000 0.88150  0.79930  0.28018  Biso   1.000  C
  C106     1.0000 0.81940  0.73350  0.24450  Biso   1.000  C
  C107     1.0000 0.18790  0.07770  0.32370  Biso   1.000  C
  C108     1.0000 0.17390  0.04050  0.35507  Biso   1.000  C
  C109     1.0000 0.13170  0.99600  0.35262  Biso   1.000  C
  C110     1.0000 0.11880  0.95830  0.38012  Biso   1.000  C
  C111     1.0000 0.04960  0.89420  0.35137  Biso   1.000  C
  C112     1.0000 0.14730  0.97230  0.41047  Biso   1.000  C
  C113     1.0000 0.18890  0.01860  0.41213  Biso   1.000  C
  C114     1.0000 0.20240  0.05210  0.38540  Biso   1.000  C
  C115     1.0000 0.22090  0.02820  0.44521  Biso   1.000  C
  C116     1.0000 0.39280  0.07750  0.27963  Biso   1.000  C
  C117     1.0000 0.72630  0.49660  0.32144  Biso   1.000  C
  C118     1.0000 0.71960  0.45730  0.35211  Biso   1.000  C
  C119     1.0000 0.75480  0.46690  0.38065  Biso   1.000  C
  C120     1.0000 0.74510  0.43500  0.40778  Biso   1.000  C
  C121     1.0000 0.78110  0.44910  0.43869  Biso   1.000  C
  C122     1.0000 0.44830  0.05120  0.50102  Biso   1.000  C
  C123     1.0000 0.70470  0.38770  0.40865  Biso   1.000  C
  C124     1.0000 0.67160  0.37280  0.38022  Biso   1.000  C
  C125     1.0000 0.67710  0.40980  0.35196  Biso   1.000  C
  C126     1.0000 0.61460  0.29320  0.40468  Biso   1.000  C
  C127     1.0000 0.55740  0.25680  0.39520  Biso   1.000  C
  C128     1.0000 0.57260  0.21530  0.36719  Biso   1.000  C
  C129     1.0000 0.52050  0.14950  0.32979  Biso   1.000  C
  C130     1.0000 0.57220  0.12850  0.31343  Biso   1.000  C
  C131     1.0000 0.56640  0.09380  0.28615  Biso   1.000  C
  C132     1.0000 0.50980  0.07600  0.27359  Biso   1.000  C
  C133     1.0000 0.45600  0.09610  0.29068  Biso   1.000  C
  C134     1.0000 0.46220  0.13210  0.31873  Biso   1.000  C
  C135     1.0000 0.50710  0.29830  0.38405  Biso   1.000  C
  C136     1.0000 0.44520  0.37910  0.40552  Biso   1.000  C
  C137     1.0000 0.42440  0.39610  0.37420  Biso   1.000  C
  C138     1.0000 0.38220  0.44120  0.37062  Biso   1.000  C
  C139     1.0000 0.36230  0.45950  0.33676  Biso   1.000  C
  C140     1.0000 0.35560  0.46610  0.39766  Biso   1.000  C
  C141     1.0000 0.37190  0.44560  0.43029  Biso   1.000  C
  C142     1.0000 0.41790  0.40440  0.43325  Biso   1.000  C
  C143     1.0000 0.34260  0.47250  0.45923  Biso   1.000  C
  C144     1.0000 0.80820  0.88280  0.48068  Biso   1.000  C
  C145     1.0000 0.19640  0.62440  0.41570  Biso   1.000  C
  C146     1.0000 0.67620  0.02090  0.49720  Biso   1.000  C
  C147     1.0000 0.61970  0.05470  0.48866  Biso   1.000  C
  C148     1.0000 0.62390  0.10530  0.46694  Biso   1.000  C
  C149     1.0000 0.57310  0.13770  0.45864  Biso   1.000  C
  C150     1.0000 0.53350  0.21980  0.42557  Biso   1.000  C
  C151     1.0000 0.51520  0.12190  0.47036  Biso   1.000  C
  C152     1.0000 0.50940  0.07140  0.49103  Biso   1.000  C
  C153     1.0000 0.55920  0.03810  0.49937  Biso   1.000  C
  C154     1.0000 0.31120  0.21690  0.46850  Biso   1.000  C
  C155     1.0000 0.33840  0.18920  0.40780  Biso   1.000  C
  C156     1.0000 0.29650  0.30460  0.50150  Biso   1.000  C
  C157     1.0000 0.35570  0.21790  0.43890  Biso   1.000  C
  C158     1.0000 0.21040  0.24300  0.46680  Biso   1.000  C
  C159     1.0000 0.12260  0.42690  0.73076  Biso   1.000  C
  C160     1.0000 0.27280  0.54510  0.74283  Biso   1.000  C
  C161     1.0000 0.72350  0.88160  0.71030  Biso   1.000  C
  C162     1.0000 0.69810  0.85240  0.68033  Biso   1.000  C
  C163     1.0000 0.71010  0.87580  0.64899  Biso   1.000  C
  C164     1.0000 0.68430  0.85390  0.62112  Biso   1.000  C
  C165     1.0000 0.64480  0.80240  0.62261  Biso   1.000  C
  C166     1.0000 0.63130  0.77660  0.65395  Biso   1.000  C
  C167     1.0000 0.65880  0.80480  0.68266  Biso   1.000  C
  C168     1.0000 0.55820  0.71320  0.63137  Biso   1.000  C
  C169     1.0000 0.51400  0.66340  0.64197  Biso   1.000  C
  C170     1.0000 0.46930  0.65150  0.61290  Biso   1.000  C
  C171     1.0000 0.47820  0.68230  0.67222  Biso   1.000  C
  C172     1.0000 0.40160  0.71120  0.57951  Biso   1.000  C
  C173     1.0000 0.37760  0.66180  0.56297  Biso   1.000  C
  C174     1.0000 0.33640  0.67260  0.53625  Biso   1.000  C
  C175     1.0000 0.32220  0.72930  0.52570  Biso   1.000  C
  C176     1.0000 0.34920  0.77830  0.54132  Biso   1.000  C
  C177     1.0000 0.38880  0.76890  0.56800  Biso   1.000  C
  C178     1.0000 0.33570  0.84230  0.52951  Biso   1.000  C
  C179     1.0000 0.39250  0.64630  0.70474  Biso   1.000  C
  C180     1.0000 0.35890  0.59520  0.71270  Biso   1.000  C
  C181     1.0000 0.31050  0.60000  0.73497  Biso   1.000  C
  C182     1.0000 0.29730  0.65710  0.74902  Biso   1.000  C
  C183     1.0000 0.33350  0.70600  0.74158  Biso   1.000  C
  C184     1.0000 0.38150  0.70070  0.71982  Biso   1.000  C
  C185     1.0000 0.31940  0.76650  0.75550  Biso   1.000  C
  C186     1.0000 0.68790  0.42230  0.67630  Biso   1.000  C
  C187     1.0000 0.67390  0.45950  0.64493  Biso   1.000  C
  C188     1.0000 0.63170  0.50400  0.64738  Biso   1.000  C
  C189     1.0000 0.61880  0.54170  0.61988  Biso   1.000  C
  C190     1.0000 0.54960  0.60580  0.64863  Biso   1.000  C
  C191     1.0000 0.64730  0.52770  0.58953  Biso   1.000  C
  C192     1.0000 0.68890  0.48140  0.58787  Biso   1.000  C
  C193     1.0000 0.70240  0.44790  0.61460  Biso   1.000  C
  C194     1.0000 0.72090  0.47180  0.55479  Biso   1.000  C
  C195     1.0000 0.89280  0.42250  0.72037  Biso   1.000  C
  C196     1.0000 0.22630  0.00340  0.67856  Biso   1.000  C
  C197     1.0000 0.21960  0.04270  0.64789  Biso   1.000  C
  C198     1.0000 0.25480  0.03310  0.61935  Biso   1.000  C
  C199     1.0000 0.24510  0.06500  0.59222  Biso   1.000  C
  C200     1.0000 0.28110  0.05090  0.56131  Biso   1.000  C
  C201     1.0000 0.94830  0.44880  0.49898  Biso   1.000  C
  C202     1.0000 0.20470  0.11230  0.59135  Biso   1.000  C
  C203     1.0000 0.17160  0.12720  0.61978  Biso   1.000  C
  C204     1.0000 0.17710  0.09020  0.64804  Biso   1.000  C
  C205     1.0000 0.11460  0.20680  0.59532  Biso   1.000  C
  C206     1.0000 0.05740  0.24320  0.60480  Biso   1.000  C
  C207     1.0000 0.07260  0.28470  0.63281  Biso   1.000  C
  C208     1.0000 0.02050  0.35050  0.67021  Biso   1.000  C
  C209     1.0000 0.07220  0.37150  0.68657  Biso   1.000  C
  C210     1.0000 0.06640  0.40620  0.71385  Biso   1.000  C
  C211     1.0000 0.00980  0.42400  0.72641  Biso   1.000  C
  C212     1.0000 0.95600  0.40390  0.70932  Biso   1.000  C
  C213     1.0000 0.96220  0.36790  0.68127  Biso   1.000  C
  C214     1.0000 0.00710  0.20170  0.61595  Biso   1.000  C
  C215     1.0000 0.94520  0.12090  0.59448  Biso   1.000  C
  C216     1.0000 0.92440  0.10390  0.62580  Biso   1.000  C
  C217     1.0000 0.88220  0.05880  0.62938  Biso   1.000  C
  C218     1.0000 0.86230  0.04050  0.66324  Biso   1.000  C
  C219     1.0000 0.85560  0.03390  0.60234  Biso   1.000  C
  C220     1.0000 0.87190  0.05440  0.56971  Biso   1.000  C
  C221     1.0000 0.91790  0.09560  0.56675  Biso   1.000  C
  C222     1.0000 0.84260  0.02750  0.54077  Biso   1.000  C
  C223     1.0000 0.30820  0.61720  0.51932  Biso   1.000  C
  C224     1.0000 0.69640  0.87560  0.58430  Biso   1.000  C
  C225     1.0000 0.17620  0.47910  0.50280  Biso   1.000  C
  C226     1.0000 0.11970  0.44530  0.51134  Biso   1.000  C
  C227     1.0000 0.12390  0.39470  0.53306  Biso   1.000  C
  C228     1.0000 0.07310  0.36230  0.54136  Biso   1.000  C
  C229     1.0000 0.03350  0.28020  0.57443  Biso   1.000  C
  C230     1.0000 0.01520  0.37810  0.52964  Biso   1.000  C
  C231     1.0000 0.00940  0.42860  0.50897  Biso   1.000  C
  C232     1.0000 0.05920  0.46190  0.50063  Biso   1.000  C
  C233     1.0000 0.81120  0.28310  0.53150  Biso   1.000  C
  C234     1.0000 0.83840  0.31080  0.59220  Biso   1.000  C
  C235     1.0000 0.79650  0.19540  0.49850  Biso   1.000  C
  C236     1.0000 0.85570  0.28210  0.56110  Biso   1.000  C
  C237     1.0000 0.71040  0.25700  0.53320  Biso   1.000  C
  C238     1.0000 0.37740  0.57310  0.23076  Biso   1.000  C
  C239     1.0000 0.22720  0.45490  0.24283  Biso   1.000  C
  C240     1.0000 0.77650  0.11840  0.21030  Biso   1.000  C
  C241     1.0000 0.80190  0.14760  0.18033  Biso   1.000  C
  C242     1.0000 0.78990  0.12420  0.14899  Biso   1.000  C
  C243     1.0000 0.81570  0.14610  0.12112  Biso   1.000  C
  C244     1.0000 0.85520  0.19760  0.12261  Biso   1.000  C
  C245     1.0000 0.86870  0.22340  0.15395  Biso   1.000  C
  C246     1.0000 0.84120  0.19520  0.18266  Biso   1.000  C
  C247     1.0000 0.94180  0.28680  0.13137  Biso   1.000  C
  C248     1.0000 0.98600  0.33660  0.14197  Biso   1.000  C
  C249     1.0000 0.03070  0.34850  0.11290  Biso   1.000  C
  C250     1.0000 0.02180  0.31770  0.17222  Biso   1.000  C
  C251     1.0000 0.09840  0.28880  0.07951  Biso   1.000  C
  C252     1.0000 0.12240  0.33820  0.06297  Biso   1.000  C
  C253     1.0000 0.16360  0.32740  0.03625  Biso   1.000  C
  C254     1.0000 0.17780  0.27070  0.02570  Biso   1.000  C
  C255     1.0000 0.15080  0.22170  0.04132  Biso   1.000  C
  C256     1.0000 0.11120  0.23110  0.06800  Biso   1.000  C
  C257     1.0000 0.16430  0.15770  0.02951  Biso   1.000  C
  C258     1.0000 0.10750  0.35370  0.20474  Biso   1.000  C
  C259     1.0000 0.14110  0.40480  0.21270  Biso   1.000  C
  C260     1.0000 0.18950  0.40000  0.23497  Biso   1.000  C
  C261     1.0000 0.20270  0.34290  0.24902  Biso   1.000  C
  C262     1.0000 0.16650  0.29400  0.24158  Biso   1.000  C
  C263     1.0000 0.11850  0.29930  0.21982  Biso   1.000  C
  C264     1.0000 0.18060  0.23350  0.25550  Biso   1.000  C
  C265     1.0000 0.81210  0.57770  0.17630  Biso   1.000  C
  C266     1.0000 0.82610  0.54050  0.14493  Biso   1.000  C
  C267     1.0000 0.86830  0.49600  0.14738  Biso   1.000  C
  C268     1.0000 0.88120  0.45830  0.11988  Biso   1.000  C
  C269     1.0000 0.95040  0.39420  0.14863  Biso   1.000  C
  C270     1.0000 0.85270  0.47230  0.08953  Biso   1.000  C
  C271     1.0000 0.81110  0.51860  0.08787  Biso   1.000  C
  C272     1.0000 0.79760  0.55210  0.11460  Biso   1.000  C
  C273     1.0000 0.77910  0.52820  0.05479  Biso   1.000  C
  C274     1.0000 0.60720  0.57750  0.22037  Biso   1.000  C
  C275     1.0000 0.27370  0.99660  0.17856  Biso   1.000  C
  C276     1.0000 0.28040  0.95730  0.14789  Biso   1.000  C
  C277     1.0000 0.24520  0.96690  0.11935  Biso   1.000  C
  C278     1.0000 0.25490  0.93500  0.09222  Biso   1.000  C
  C279     1.0000 0.21890  0.94910  0.06131  Biso   1.000  C
  C280     1.0000 0.55170  0.55120  0.99898  Biso   1.000  C
  C281     1.0000 0.29530  0.88770  0.09135  Biso   1.000  C
  C282     1.0000 0.32840  0.87280  0.11978  Biso   1.000  C
  C283     1.0000 0.32290  0.90980  0.14804  Biso   1.000  C
  C284     1.0000 0.38540  0.79320  0.09532  Biso   1.000  C
  C285     1.0000 0.44260  0.75680  0.10480  Biso   1.000  C
  C286     1.0000 0.42740  0.71530  0.13281  Biso   1.000  C
  C287     1.0000 0.47950  0.64950  0.17021  Biso   1.000  C
  C288     1.0000 0.42780  0.62850  0.18657  Biso   1.000  C
  C289     1.0000 0.43360  0.59380  0.21385  Biso   1.000  C
  C290     1.0000 0.49020  0.57600  0.22641  Biso   1.000  C
  C291     1.0000 0.54400  0.59610  0.20932  Biso   1.000  C
  C292     1.0000 0.53780  0.63210  0.18127  Biso   1.000  C
  C293     1.0000 0.49290  0.79830  0.11595  Biso   1.000  C
  C294     1.0000 0.55480  0.87910  0.09448  Biso   1.000  C
  C295     1.0000 0.57560  0.89610  0.12580  Biso   1.000  C
  C296     1.0000 0.61780  0.94120  0.12938  Biso   1.000  C
  C297     1.0000 0.63770  0.95950  0.16324  Biso   1.000  C
  C298     1.0000 0.64440  0.96610  0.10234  Biso   1.000  C
  C299     1.0000 0.62810  0.94560  0.06971  Biso   1.000  C
  C300     1.0000 0.58210  0.90440  0.06675  Biso   1.000  C
  C301     1.0000 0.65740  0.97250  0.04077  Biso   1.000  C
  C302     1.0000 0.19180  0.38280  0.01932  Biso   1.000  C
  C303     1.0000 0.80360  0.12440  0.08430  Biso   1.000  C
  C304     1.0000 0.32380  0.52090  0.00280  Biso   1.000  C
  C305     1.0000 0.38030  0.55470  0.01134  Biso   1.000  C
  C306     1.0000 0.37610  0.60530  0.03306  Biso   1.000  C
  C307     1.0000 0.42690  0.63770  0.04136  Biso   1.000  C
  C308     1.0000 0.46650  0.71980  0.07443  Biso   1.000  C
  C309     1.0000 0.48480  0.62190  0.02964  Biso   1.000  C
  C310     1.0000 0.49060  0.57140  0.00897  Biso   1.000  C
  C311     1.0000 0.44080  0.53810  0.00063  Biso   1.000  C
  C312     1.0000 0.68880  0.71690  0.03150  Biso   1.000  C
  C313     1.0000 0.66160  0.68920  0.09220  Biso   1.000  C
  C314     1.0000 0.70350  0.80460  0.99850  Biso   1.000  C
  C315     1.0000 0.64430  0.71790  0.06110  Biso   1.000  C
  C316     1.0000 0.78960  0.74300  0.03320  Biso   1.000  C
  N1       1.0000 0.22450  0.74320  0.97830  Biso   1.000  N
  N2       1.0000 0.27550  0.25680  0.47830  Biso   1.000  N
  N3       1.0000 0.77550  0.24320  0.52170  Biso   1.000  N
  N4       1.0000 0.72450  0.75680  0.02170  Biso   1.000  N
  O1       1.0000 0.88238  0.95803  0.74247  Biso   1.000  O
  O2       1.0000 0.82709  0.90909  0.78011  Biso   1.000  O
  O3       1.0000 0.71310  0.99716  0.77139  Biso   1.000  O
  O4       1.0000 0.76854  0.05194  0.73560  Biso   1.000  O
  O5       1.0000 0.23850  0.42000  0.79203  Biso   1.000  O
  O6       1.0000 0.29370  0.36378  0.76090  Biso   1.000  O
  O7       1.0000 0.40437  0.22944  0.84102  Biso   1.000  O
  O8       1.0000 0.56177  0.13551  0.81911  Biso   1.000  O
  O9       1.0000 0.55998  0.20839  0.89388  Biso   1.000  O
  O10      1.0000 0.64519  0.30957  0.75207  Biso   1.000  O
  O11      1.0000 0.72541  0.27059  0.72447  Biso   1.000  O
  O12      1.0000 0.62917  0.38243  0.95769  Biso   1.000  O
  O13      1.0000 0.70360  0.35061  0.99027  Biso   1.000  O
  O14      1.0000 0.75133  0.39587  0.75185  Biso   1.000  O
  O15      1.0000 0.34488  0.93310  0.79889  Biso   1.000  O
  O16      1.0000 0.27232  0.88380  0.82518  Biso   1.000  O
  O17      1.0000 0.15105  0.90470  0.79774  Biso   1.000  O
  O18      1.0000 0.11306  0.95150  0.75348  Biso   1.000  O
  O19      1.0000 0.80750  0.51510  0.79697  Biso   1.000  O
  O20      1.0000 0.73350  0.46530  0.82204  Biso   1.000  O
  O21      1.0000 0.05541  0.99468  0.01998  Biso   1.000  O
  O22      1.0000 0.09870  0.91874  0.99086  Biso   1.000  O
  O23      1.0000 0.67812  0.51156  0.93475  Biso   1.000  O
  O24      1.0000 0.72922  0.57844  0.96550  Biso   1.000  O
  O25      1.0000 0.17991  0.02158  0.99237  Biso   1.000  O
  O26      1.0000 0.80400  0.42550  0.96867  Biso   1.000  O
  O27      1.0000 0.29733  0.00386  0.96980  Biso   1.000  O
  O28      1.0000 0.19660  0.83537  0.98640  Biso   1.000  O
  O29      1.0000 0.70430  0.88400  0.81359  Biso   1.000  O
  O30      1.0000 0.63890  0.44200  0.78383  Biso   1.000  O
  O31      1.0000 0.22700  0.03140  0.77848  Biso   1.000  O
  O32      1.0000 0.81460  0.28660  0.67036  Biso   1.000  O
  O33      1.0000 0.23615  0.93413  0.94667  Biso   1.000  O
  O34      1.0000 0.87013  0.67160  0.87745  Biso   1.000  O
  O35      1.0000 0.42017  0.08959  0.88056  Biso   1.000  O
  O36      1.0000 0.97958  0.81641  0.85845  Biso   1.000  O
  O37      1.0000 0.11860  0.56780  0.81121  Biso   1.000  O
  O38      1.0000 0.17118  0.49563  0.83378  Biso   1.000  O
  O39      1.0000 0.14398  0.54775  0.98752  Biso   1.000  O
  O40      1.0000 0.19430  0.48670  0.95496  Biso   1.000  O
  O41      1.0000 0.15960  0.56730  0.06108  Biso   1.000  O
  O42      1.0000 0.67724  0.06657  0.96849  Biso   1.000  O
  O43      1.0000 0.72663  0.12739  0.00396  Biso   1.000  O
  O44      1.0000 0.77721  0.96170  0.98439  Biso   1.000  O
  O45      1.0000 0.83043  0.02401  0.01606  Biso   1.000  O
  O46      1.0000 0.26760  0.41980  0.91621  Biso   1.000  O
  O47      1.0000 0.32580  0.35800  0.93865  Biso   1.000  O
  O48      1.0000 0.91493  0.81573  0.93707  Biso   1.000  O
  O49      1.0000 0.01107  0.66491  0.91124  Biso   1.000  O
  O50      1.0000 0.61762  0.04197  0.24247  Biso   1.000  O
  O51      1.0000 0.67291  0.09091  0.28011  Biso   1.000  O
  O52      1.0000 0.78690  0.00284  0.27139  Biso   1.000  O
  O53      1.0000 0.73146  0.94806  0.23560  Biso   1.000  O
  O54      1.0000 0.26150  0.58000  0.29203  Biso   1.000  O
  O55      1.0000 0.20630  0.63622  0.26090  Biso   1.000  O
  O56      1.0000 0.09563  0.77056  0.34102  Biso   1.000  O
  O57      1.0000 0.93823  0.86449  0.31911  Biso   1.000  O
  O58      1.0000 0.94002  0.79161  0.39388  Biso   1.000  O
  O59      1.0000 0.85481  0.69043  0.25207  Biso   1.000  O
  O60      1.0000 0.77459  0.72941  0.22447  Biso   1.000  O
  O61      1.0000 0.87083  0.61757  0.45769  Biso   1.000  O
  O62      1.0000 0.79640  0.64939  0.49027  Biso   1.000  O
  O63      1.0000 0.74867  0.60413  0.25185  Biso   1.000  O
  O64      1.0000 0.15512  0.06690  0.29889  Biso   1.000  O
  O65      1.0000 0.22768  0.11620  0.32518  Biso   1.000  O
  O66      1.0000 0.34895  0.09530  0.29774  Biso   1.000  O
  O67      1.0000 0.38694  0.04850  0.25348  Biso   1.000  O
  O68      1.0000 0.69250  0.48490  0.29697  Biso   1.000  O
  O69      1.0000 0.76650  0.53470  0.32204  Biso   1.000  O
  O70      1.0000 0.44459  0.00532  0.51998  Biso   1.000  O
  O71      1.0000 0.40130  0.08126  0.49086  Biso   1.000  O
  O72      1.0000 0.82188  0.48844  0.43475  Biso   1.000  O
  O73      1.0000 0.77078  0.42156  0.46550  Biso   1.000  O
  O74      1.0000 0.32009  0.97842  0.49237  Biso   1.000  O
  O75      1.0000 0.69600  0.57450  0.46867  Biso   1.000  O
  O76      1.0000 0.20267  0.99614  0.46980  Biso   1.000  O
  O77      1.0000 0.30340  0.16463  0.48640  Biso   1.000  O
  O78      1.0000 0.79570  0.11600  0.31359  Biso   1.000  O
  O79      1.0000 0.86110  0.55800  0.28383  Biso   1.000  O
  O80      1.0000 0.27300  0.96860  0.27848  Biso   1.000  O
  O81      1.0000 0.68540  0.71340  0.17036  Biso   1.000  O
  O82      1.0000 0.26385  0.06587  0.44667  Biso   1.000  O
  O83      1.0000 0.62987  0.32840  0.37745  Biso   1.000  O
  O84      1.0000 0.07983  0.91041  0.38056  Biso   1.000  O
  O85      1.0000 0.52042  0.18359  0.35845  Biso   1.000  O
  O86      1.0000 0.38140  0.43220  0.31121  Biso   1.000  O
  O87      1.0000 0.32882  0.50437  0.33378  Biso   1.000  O
  O88      1.0000 0.35602  0.45225  0.48752  Biso   1.000  O
  O89      1.0000 0.30570  0.51330  0.45496  Biso   1.000  O
  O90      1.0000 0.34040  0.43270  0.56108  Biso   1.000  O
  O91      1.0000 0.82276  0.93343  0.46849  Biso   1.000  O
  O92      1.0000 0.77337  0.87261  0.50396  Biso   1.000  O
  O93      1.0000 0.72279  0.03830  0.48439  Biso   1.000  O
  O94      1.0000 0.66957  0.97599  0.51606  Biso   1.000  O
  O95      1.0000 0.23240  0.58020  0.41621  Biso   1.000  O
  O96      1.0000 0.17420  0.64200  0.43865  Biso   1.000  O
  O97      1.0000 0.58507  0.18427  0.43707  Biso   1.000  O
  O98      1.0000 0.48893  0.33509  0.41124  Biso   1.000  O
  O99      1.0000 0.11762  0.45803  0.75753  Biso   1.000  O
  O100     1.0000 0.17291  0.40909  0.71989  Biso   1.000  O
  O101     1.0000 0.28690  0.49716  0.72861  Biso   1.000  O
  O102     1.0000 0.23146  0.55194  0.76440  Biso   1.000  O
  O103     1.0000 0.76150  0.92000  0.70797  Biso   1.000  O
  O104     1.0000 0.70630  0.86378  0.73910  Biso   1.000  O
  O105     1.0000 0.59563  0.72944  0.65898  Biso   1.000  O
  O106     1.0000 0.43823  0.63551  0.68089  Biso   1.000  O
  O107     1.0000 0.44002  0.70839  0.60612  Biso   1.000  O
  O108     1.0000 0.35481  0.80957  0.74793  Biso   1.000  O
  O109     1.0000 0.27459  0.77059  0.77553  Biso   1.000  O
  O110     1.0000 0.37083  0.88243  0.54231  Biso   1.000  O
  O111     1.0000 0.29640  0.85061  0.50973  Biso   1.000  O
  O112     1.0000 0.24867  0.89587  0.74815  Biso   1.000  O
  O113     1.0000 0.65512  0.43310  0.70111  Biso   1.000  O
  O114     1.0000 0.72768  0.38380  0.67482  Biso   1.000  O
  O115     1.0000 0.84895  0.40470  0.70226  Biso   1.000  O
  O116     1.0000 0.88694  0.45150  0.74652  Biso   1.000  O
  O117     1.0000 0.19250  0.01510  0.70303  Biso   1.000  O
  O118     1.0000 0.26650  0.96530  0.67796  Biso   1.000  O
  O119     1.0000 0.94459  0.49468  0.48002  Biso   1.000  O
  O120     1.0000 0.90130  0.41874  0.50914  Biso   1.000  O
  O121     1.0000 0.32188  0.01156  0.56525  Biso   1.000  O
  O122     1.0000 0.27078  0.07844  0.53450  Biso   1.000  O
  O123     1.0000 0.82009  0.52158  0.50763  Biso   1.000  O
  O124     1.0000 0.19600  0.92550  0.53133  Biso   1.000  O
  O125     1.0000 0.70267  0.50386  0.53020  Biso   1.000  O
  O126     1.0000 0.80340  0.33537  0.51360  Biso   1.000  O
  O127     1.0000 0.29570  0.38400  0.68641  Biso   1.000  O
  O128     1.0000 0.36110  0.94200  0.71617  Biso   1.000  O
  O129     1.0000 0.77300  0.53140  0.72152  Biso   1.000  O
  O130     1.0000 0.18540  0.78660  0.82964  Biso   1.000  O
  O131     1.0000 0.76385  0.43413  0.55333  Biso   1.000  O
  O132     1.0000 0.12987  0.17160  0.62255  Biso   1.000  O
  O133     1.0000 0.57983  0.58959  0.61944  Biso   1.000  O
  O134     1.0000 0.02042  0.31641  0.64155  Biso   1.000  O
  O135     1.0000 0.88140  0.06780  0.68879  Biso   1.000  O
  O136     1.0000 0.82882  0.99563  0.66622  Biso   1.000  O
  O137     1.0000 0.85602  0.04775  0.51248  Biso   1.000  O
  O138     1.0000 0.80570  0.98670  0.54504  Biso   1.000  O
  O139     1.0000 0.84040  0.06730  0.43892  Biso   1.000  O
  O140     1.0000 0.32276  0.56657  0.53151  Biso   1.000  O
  O141     1.0000 0.27337  0.62739  0.49604  Biso   1.000  O
  O142     1.0000 0.22279  0.46170  0.51561  Biso   1.000  O
  O143     1.0000 0.16957  0.52401  0.48394  Biso   1.000  O
  O144     1.0000 0.73240  0.91980  0.58379  Biso   1.000  O
  O145     1.0000 0.67420  0.85800  0.56135  Biso   1.000  O
  O146     1.0000 0.08507  0.31573  0.56293  Biso   1.000  O
  O147     1.0000 0.98893  0.16491  0.58876  Biso   1.000  O
  O148     1.0000 0.38238  0.54197  0.25753  Biso   1.000  O
  O149     1.0000 0.32709  0.59091  0.21989  Biso   1.000  O
  O150     1.0000 0.21310  0.50284  0.22861  Biso   1.000  O
  O151     1.0000 0.26854  0.44806  0.26440  Biso   1.000  O
  O152     1.0000 0.73850  0.08000  0.20797  Biso   1.000  O
  O153     1.0000 0.79370  0.13622  0.23910  Biso   1.000  O
  O154     1.0000 0.90437  0.27056  0.15898  Biso   1.000  O
  O155     1.0000 0.06177  0.36449  0.18089  Biso   1.000  O
  O156     1.0000 0.05998  0.29161  0.10612  Biso   1.000  O
  O157     1.0000 0.14519  0.19043  0.24793  Biso   1.000  O
  O158     1.0000 0.22541  0.22941  0.27553  Biso   1.000  O
  O159     1.0000 0.12917  0.11757  0.04231  Biso   1.000  O
  O160     1.0000 0.20360  0.14939  0.00973  Biso   1.000  O
  O161     1.0000 0.25133  0.10413  0.24815  Biso   1.000  O
  O162     1.0000 0.84488  0.56690  0.20111  Biso   1.000  O
  O163     1.0000 0.77232  0.61620  0.17482  Biso   1.000  O
  O164     1.0000 0.65105  0.59530  0.20226  Biso   1.000  O
  O165     1.0000 0.61306  0.54850  0.24652  Biso   1.000  O
  O166     1.0000 0.30750  0.98490  0.20303  Biso   1.000  O
  O167     1.0000 0.23350  0.03470  0.17796  Biso   1.000  O
  O168     1.0000 0.55541  0.50532  0.98002  Biso   1.000  O
  O169     1.0000 0.59870  0.58126  0.00914  Biso   1.000  O
  O170     1.0000 0.17812  0.98844  0.06525  Biso   1.000  O
  O171     1.0000 0.22922  0.92156  0.03450  Biso   1.000  O
  O172     1.0000 0.67991  0.47842  0.00763  Biso   1.000  O
  O173     1.0000 0.30400  0.07450  0.03133  Biso   1.000  O
  O174     1.0000 0.79733  0.49614  0.03020  Biso   1.000  O
  O175     1.0000 0.69660  0.66463  0.01360  Biso   1.000  O
  O176     1.0000 0.20430  0.61600  0.18641  Biso   1.000  O
  O177     1.0000 0.13890  0.05800  0.21617  Biso   1.000  O
  O178     1.0000 0.72700  0.46860  0.22152  Biso   1.000  O
  O179     1.0000 0.31460  0.21340  0.32964  Biso   1.000  O
  O180     1.0000 0.73615  0.56587  0.05333  Biso   1.000  O
  O181     1.0000 0.37013  0.82840  0.12255  Biso   1.000  O
  O182     1.0000 0.92017  0.41041  0.11944  Biso   1.000  O
  O183     1.0000 0.47958  0.68359  0.14155  Biso   1.000  O
  O184     1.0000 0.61860  0.93220  0.18879  Biso   1.000  O
  O185     1.0000 0.67118  0.00437  0.16622  Biso   1.000  O
  O186     1.0000 0.64398  0.95225  0.01248  Biso   1.000  O
  O187     1.0000 0.69430  0.01330  0.04504  Biso   1.000  O
  O188     1.0000 0.65960  0.93270  0.93892  Biso   1.000  O
  O189     1.0000 0.17724  0.43343  0.03151  Biso   1.000  O
  O190     1.0000 0.22663  0.37261  0.99604  Biso   1.000  O
  O191     1.0000 0.27721  0.53830  0.01561  Biso   1.000  O
  O192     1.0000 0.33043  0.47599  0.98394  Biso   1.000  O
  O193     1.0000 0.76760  0.08020  0.08379  Biso   1.000  O
  O194     1.0000 0.82580  0.14200  0.06135  Biso   1.000  O
  O195     1.0000 0.41493  0.68427  0.06293  Biso   1.000  O
  O196     1.0000 0.51107  0.83509  0.08876  Biso   1.000  O
