data_image0
_cell_length_a       18.902
_cell_length_b       30.464
_cell_length_c       31.004
_cell_angle_alpha    90
_cell_angle_beta     90
_cell_angle_gamma    90

_symmetry_space_group_name_H-M    P 1
_symmetry_int_tables_number       1

loop_
  _symmetry_equiv_pos_as_xyz
  'x, y, z'

loop_
  _atom_site_label
  _atom_site_occupancy
  _atom_site_fract_x
  _atom_site_fract_y
  _atom_site_fract_z
  _atom_site_thermal_displace_type
  _atom_site_B_iso_or_equiv
  _atom_site_type_symbol
  Zn1      1.0000 0.77172  0.03115  0.52280  Biso   1.000  Zn
  Zn2      1.0000 0.84944  0.94588  0.50661  Biso   1.000  Zn
  Zn3      1.0000 0.24479  0.00016  0.96021  Biso   1.000  Zn
  Zn4      1.0000 0.34739  0.79933  0.73712  Biso   1.000  Zn
  Zn5      1.0000 0.32512  0.00388  0.04468  Biso   1.000  Zn
  Zn6      1.0000 0.25318  0.79423  0.64294  Biso   1.000  Zn
  Zn7      1.0000 0.30068  0.70856  0.28500  Biso   1.000  Zn
  Zn8      1.0000 0.32870  0.74406  0.18045  Biso   1.000  Zn
  Zn9      1.0000 0.33359  0.70570  0.67847  Biso   1.000  Zn
  Zn10     1.0000 0.27172  0.96885  0.47720  Biso   1.000  Zn
  Zn11     1.0000 0.34944  0.05412  0.49339  Biso   1.000  Zn
  Zn12     1.0000 0.74479  0.99984  0.03979  Biso   1.000  Zn
  Zn13     1.0000 0.84739  0.20067  0.26288  Biso   1.000  Zn
  Zn14     1.0000 0.82512  0.99612  0.95532  Biso   1.000  Zn
  Zn15     1.0000 0.75318  0.20577  0.35706  Biso   1.000  Zn
  Zn16     1.0000 0.80068  0.29144  0.71500  Biso   1.000  Zn
  Zn17     1.0000 0.82870  0.25594  0.81955  Biso   1.000  Zn
  Zn18     1.0000 0.83359  0.29430  0.32153  Biso   1.000  Zn
  Zn19     1.0000 0.77172  0.53115  0.97720  Biso   1.000  Zn
  Zn20     1.0000 0.84944  0.44588  0.99339  Biso   1.000  Zn
  Zn21     1.0000 0.24479  0.50016  0.53979  Biso   1.000  Zn
  Zn22     1.0000 0.34739  0.29933  0.76288  Biso   1.000  Zn
  Zn23     1.0000 0.32512  0.50388  0.45532  Biso   1.000  Zn
  Zn24     1.0000 0.25318  0.29423  0.85706  Biso   1.000  Zn
  Zn25     1.0000 0.30068  0.20856  0.21500  Biso   1.000  Zn
  Zn26     1.0000 0.32870  0.24406  0.31955  Biso   1.000  Zn
  Zn27     1.0000 0.33359  0.20570  0.82153  Biso   1.000  Zn
  Zn28     1.0000 0.27172  0.46885  0.02280  Biso   1.000  Zn
  Zn29     1.0000 0.34944  0.55412  0.00661  Biso   1.000  Zn
  Zn30     1.0000 0.74479  0.49984  0.46021  Biso   1.000  Zn
  Zn31     1.0000 0.84739  0.70067  0.23712  Biso   1.000  Zn
  Zn32     1.0000 0.82512  0.49612  0.54468  Biso   1.000  Zn
  Zn33     1.0000 0.75318  0.70577  0.14294  Biso   1.000  Zn
  Zn34     1.0000 0.80068  0.79144  0.78500  Biso   1.000  Zn
  Zn35     1.0000 0.82870  0.75594  0.68045  Biso   1.000  Zn
  Zn36     1.0000 0.83359  0.79430  0.17847  Biso   1.000  Zn
  H1       1.0000 0.42380  0.99950  0.87860  Biso   1.000  H
  H2       1.0000 0.63830  0.00130  0.87370  Biso   1.000  H
  H3       1.0000 0.53700  0.98730  0.98830  Biso   1.000  H
  H4       1.0000 0.62250  0.02770  0.81020  Biso   1.000  H
  H5       1.0000 0.60730  0.97840  0.79820  Biso   1.000  H
  H6       1.0000 0.66240  0.04250  0.73280  Biso   1.000  H
  H7       1.0000 0.61640  0.02350  0.69470  Biso   1.000  H
  H8       1.0000 0.46610  0.98870  0.75570  Biso   1.000  H
  H9       1.0000 0.52510  0.95970  0.73380  Biso   1.000  H
  H10      1.0000 0.43170  0.02460  0.62310  Biso   1.000  H
  H11      1.0000 0.30860  0.91940  0.60390  Biso   1.000  H
  H12      1.0000 0.42090  0.92770  0.71320  Biso   1.000  H
  H13      1.0000 0.72420  0.90960  0.74730  Biso   1.000  H
  H14      1.0000 0.82140  0.89280  0.63570  Biso   1.000  H
  H15      1.0000 0.70950  0.00140  0.65630  Biso   1.000  H
  H16      1.0000 0.56490  0.99280  0.48510  Biso   1.000  H
  H17      1.0000 0.44760  0.88880  0.44450  Biso   1.000  H
  H18      1.0000 0.65310  0.87290  0.46810  Biso   1.000  H
  H19      1.0000 0.63140  0.80100  0.43400  Biso   1.000  H
  H20      1.0000 0.60520  0.80080  0.48220  Biso   1.000  H
  H21      1.0000 0.64980  0.71610  0.43390  Biso   1.000  H
  H22      1.0000 0.59000  0.68750  0.45560  Biso   1.000  H
  H23      1.0000 0.45900  0.77160  0.46990  Biso   1.000  H
  H24      1.0000 0.50950  0.75190  0.50530  Biso   1.000  H
  H25      1.0000 0.39900  0.63490  0.46840  Biso   1.000  H
  H26      1.0000 0.26410  0.64650  0.56610  Biso   1.000  H
  H27      1.0000 0.38480  0.75040  0.52770  Biso   1.000  H
  H28      1.0000 0.47090  0.14570  0.76060  Biso   1.000  H
  H29      1.0000 0.56880  0.26170  0.74390  Biso   1.000  H
  H30      1.0000 0.68440  0.15070  0.77160  Biso   1.000  H
  H31      1.0000 0.52370  0.07550  0.72190  Biso   1.000  H
  H32      1.0000 0.49000  0.06800  0.76780  Biso   1.000  H
  H33      1.0000 0.67690  0.64360  0.47690  Biso   1.000  H
  H34      1.0000 0.81550  0.62820  0.57640  Biso   1.000  H
  H35      1.0000 0.71010  0.74190  0.56020  Biso   1.000  H
  H36      1.0000 0.55970  0.73500  0.20830  Biso   1.000  H
  H37      1.0000 0.68050  0.73910  0.31370  Biso   1.000  H
  H38      1.0000 0.46870  0.75440  0.32480  Biso   1.000  H
  H39      1.0000 0.49650  0.77320  0.39330  Biso   1.000  H
  H40      1.0000 0.50420  0.72180  0.39630  Biso   1.000  H
  H41      1.0000 0.43720  0.58770  0.62710  Biso   1.000  H
  H42      1.0000 0.40400  0.60700  0.66930  Biso   1.000  H
  H43      1.0000 0.36370  0.61140  0.62530  Biso   1.000  H
  H44      1.0000 0.49500  0.72640  0.59690  Biso   1.000  H
  H45      1.0000 0.55030  0.70460  0.56570  Biso   1.000  H
  H46      1.0000 0.60690  0.74390  0.61750  Biso   1.000  H
  H47      1.0000 0.57000  0.71590  0.65340  Biso   1.000  H
  H48      1.0000 0.62510  0.69390  0.62240  Biso   1.000  H
  H49      1.0000 0.89850  0.75710  0.52290  Biso   1.000  H
  H50      1.0000 0.95220  0.75450  0.48410  Biso   1.000  H
  H51      1.0000 0.80510  0.80780  0.53680  Biso   1.000  H
  H52      1.0000 0.82150  0.85030  0.56340  Biso   1.000  H
  H53      1.0000 0.76940  0.85240  0.52400  Biso   1.000  H
  H54      1.0000 0.27650  0.05680  0.12750  Biso   1.000  H
  H55      1.0000 0.32160  0.09900  0.11830  Biso   1.000  H
  H56      1.0000 0.32460  0.07670  0.16380  Biso   1.000  H
  H57      1.0000 0.55090  0.04840  0.12590  Biso   1.000  H
  H58      1.0000 0.50640  0.01850  0.09420  Biso   1.000  H
  H59      1.0000 0.57220  0.06870  0.05350  Biso   1.000  H
  H60      1.0000 0.53830  0.10770  0.07930  Biso   1.000  H
  H61      1.0000 0.49150  0.07930  0.04830  Biso   1.000  H
  H62      1.0000 0.52040  0.10740  0.15030  Biso   1.000  H
  H63      1.0000 0.44400  0.12760  0.15530  Biso   1.000  H
  H64      1.0000 0.47880  0.09650  0.22140  Biso   1.000  H
  H65      1.0000 0.49050  0.05110  0.19860  Biso   1.000  H
  H66      1.0000 0.41390  0.07030  0.20310  Biso   1.000  H
  H67      1.0000 0.00490  0.84840  0.47890  Biso   1.000  H
  H68      1.0000 0.00820  0.79810  0.46790  Biso   1.000  H
  H69      1.0000 0.54870  0.59050  0.60760  Biso   1.000  H
  H70      1.0000 0.60590  0.62540  0.59190  Biso   1.000  H
  H71      1.0000 0.55240  0.59190  0.53730  Biso   1.000  H
  H72      1.0000 0.48050  0.61070  0.55430  Biso   1.000  H
  H73      1.0000 0.53980  0.64270  0.53820  Biso   1.000  H
  H74      1.0000 0.83960  0.72370  0.46720  Biso   1.000  H
  H75      1.0000 0.80720  0.77080  0.47170  Biso   1.000  H
  H76      1.0000 0.86200  0.76090  0.43500  Biso   1.000  H
  H77      1.0000 0.99150  0.82210  0.40110  Biso   1.000  H
  H78      1.0000 0.91160  0.82100  0.41460  Biso   1.000  H
  H79      1.0000 0.95390  0.86520  0.41650  Biso   1.000  H
  H80      1.0000 0.92380  0.00050  0.12140  Biso   1.000  H
  H81      1.0000 0.13830  0.99870  0.12630  Biso   1.000  H
  H82      1.0000 0.03700  0.01270  0.01170  Biso   1.000  H
  H83      1.0000 0.12250  0.97230  0.18980  Biso   1.000  H
  H84      1.0000 0.10730  0.02160  0.20180  Biso   1.000  H
  H85      1.0000 0.16240  0.95750  0.26720  Biso   1.000  H
  H86      1.0000 0.11640  0.97650  0.30530  Biso   1.000  H
  H87      1.0000 0.96610  0.01130  0.24430  Biso   1.000  H
  H88      1.0000 0.02510  0.04030  0.26620  Biso   1.000  H
  H89      1.0000 0.93170  0.97540  0.37690  Biso   1.000  H
  H90      1.0000 0.80860  0.08060  0.39610  Biso   1.000  H
  H91      1.0000 0.92090  0.07230  0.28680  Biso   1.000  H
  H92      1.0000 0.22420  0.09040  0.25270  Biso   1.000  H
  H93      1.0000 0.32140  0.10720  0.36430  Biso   1.000  H
  H94      1.0000 0.20950  0.99860  0.34370  Biso   1.000  H
  H95      1.0000 0.06490  0.00720  0.51490  Biso   1.000  H
  H96      1.0000 0.94760  0.11120  0.55550  Biso   1.000  H
  H97      1.0000 0.15310  0.12710  0.53190  Biso   1.000  H
  H98      1.0000 0.13140  0.19900  0.56600  Biso   1.000  H
  H99      1.0000 0.10520  0.19920  0.51780  Biso   1.000  H
  H100     1.0000 0.14980  0.28390  0.56610  Biso   1.000  H
  H101     1.0000 0.09000  0.31250  0.54440  Biso   1.000  H
  H102     1.0000 0.95900  0.22840  0.53010  Biso   1.000  H
  H103     1.0000 0.00950  0.24810  0.49470  Biso   1.000  H
  H104     1.0000 0.89900  0.36510  0.53160  Biso   1.000  H
  H105     1.0000 0.76410  0.35350  0.43390  Biso   1.000  H
  H106     1.0000 0.88480  0.24960  0.47230  Biso   1.000  H
  H107     1.0000 0.97090  0.85430  0.23940  Biso   1.000  H
  H108     1.0000 0.06880  0.73830  0.25610  Biso   1.000  H
  H109     1.0000 0.18440  0.84930  0.22840  Biso   1.000  H
  H110     1.0000 0.02370  0.92450  0.27810  Biso   1.000  H
  H111     1.0000 0.99000  0.93200  0.23220  Biso   1.000  H
  H112     1.0000 0.17690  0.35640  0.52310  Biso   1.000  H
  H113     1.0000 0.31550  0.37180  0.42360  Biso   1.000  H
  H114     1.0000 0.21010  0.25810  0.43980  Biso   1.000  H
  H115     1.0000 0.05970  0.26500  0.79170  Biso   1.000  H
  H116     1.0000 0.18050  0.26090  0.68630  Biso   1.000  H
  H117     1.0000 0.96870  0.24560  0.67520  Biso   1.000  H
  H118     1.0000 0.99650  0.22680  0.60670  Biso   1.000  H
  H119     1.0000 0.00420  0.27820  0.60370  Biso   1.000  H
  H120     1.0000 0.93720  0.41230  0.37290  Biso   1.000  H
  H121     1.0000 0.90400  0.39300  0.33070  Biso   1.000  H
  H122     1.0000 0.86370  0.38860  0.37470  Biso   1.000  H
  H123     1.0000 0.99500  0.27360  0.40310  Biso   1.000  H
  H124     1.0000 0.05030  0.29540  0.43430  Biso   1.000  H
  H125     1.0000 0.10690  0.25610  0.38250  Biso   1.000  H
  H126     1.0000 0.07000  0.28410  0.34660  Biso   1.000  H
  H127     1.0000 0.12510  0.30610  0.37760  Biso   1.000  H
  H128     1.0000 0.39850  0.24290  0.47710  Biso   1.000  H
  H129     1.0000 0.45220  0.24550  0.51590  Biso   1.000  H
  H130     1.0000 0.30510  0.19220  0.46320  Biso   1.000  H
  H131     1.0000 0.32150  0.14970  0.43660  Biso   1.000  H
  H132     1.0000 0.26940  0.14760  0.47600  Biso   1.000  H
  H133     1.0000 0.77650  0.94320  0.87250  Biso   1.000  H
  H134     1.0000 0.82160  0.90100  0.88170  Biso   1.000  H
  H135     1.0000 0.82460  0.92330  0.83620  Biso   1.000  H
  H136     1.0000 0.05090  0.95160  0.87410  Biso   1.000  H
  H137     1.0000 0.00640  0.98150  0.90580  Biso   1.000  H
  H138     1.0000 0.07220  0.93130  0.94650  Biso   1.000  H
  H139     1.0000 0.03830  0.89230  0.92070  Biso   1.000  H
  H140     1.0000 0.99150  0.92070  0.95170  Biso   1.000  H
  H141     1.0000 0.02040  0.89260  0.84970  Biso   1.000  H
  H142     1.0000 0.94400  0.87240  0.84470  Biso   1.000  H
  H143     1.0000 0.97880  0.90350  0.77860  Biso   1.000  H
  H144     1.0000 0.99050  0.94890  0.80140  Biso   1.000  H
  H145     1.0000 0.91390  0.92970  0.79690  Biso   1.000  H
  H146     1.0000 0.50490  0.15160  0.52110  Biso   1.000  H
  H147     1.0000 0.50820  0.20190  0.53210  Biso   1.000  H
  H148     1.0000 0.04870  0.40950  0.39240  Biso   1.000  H
  H149     1.0000 0.10590  0.37460  0.40810  Biso   1.000  H
  H150     1.0000 0.05240  0.40810  0.46270  Biso   1.000  H
  H151     1.0000 0.98050  0.38930  0.44570  Biso   1.000  H
  H152     1.0000 0.03980  0.35730  0.46180  Biso   1.000  H
  H153     1.0000 0.33960  0.27630  0.53280  Biso   1.000  H
  H154     1.0000 0.30720  0.22920  0.52830  Biso   1.000  H
  H155     1.0000 0.36200  0.23910  0.56500  Biso   1.000  H
  H156     1.0000 0.49150  0.17790  0.59890  Biso   1.000  H
  H157     1.0000 0.41160  0.17900  0.58540  Biso   1.000  H
  H158     1.0000 0.45390  0.13480  0.58350  Biso   1.000  H
  H159     1.0000 0.42380  0.49950  0.62140  Biso   1.000  H
  H160     1.0000 0.63830  0.50130  0.62630  Biso   1.000  H
  H161     1.0000 0.53700  0.48730  0.51170  Biso   1.000  H
  H162     1.0000 0.62250  0.52770  0.68980  Biso   1.000  H
  H163     1.0000 0.60730  0.47840  0.70180  Biso   1.000  H
  H164     1.0000 0.66240  0.54250  0.76720  Biso   1.000  H
  H165     1.0000 0.61640  0.52350  0.80530  Biso   1.000  H
  H166     1.0000 0.46610  0.48870  0.74430  Biso   1.000  H
  H167     1.0000 0.52510  0.45970  0.76620  Biso   1.000  H
  H168     1.0000 0.43170  0.52460  0.87690  Biso   1.000  H
  H169     1.0000 0.30860  0.41940  0.89610  Biso   1.000  H
  H170     1.0000 0.42090  0.42770  0.78680  Biso   1.000  H
  H171     1.0000 0.72420  0.40960  0.75270  Biso   1.000  H
  H172     1.0000 0.82140  0.39280  0.86430  Biso   1.000  H
  H173     1.0000 0.70950  0.50140  0.84370  Biso   1.000  H
  H174     1.0000 0.56490  0.49280  0.01490  Biso   1.000  H
  H175     1.0000 0.44760  0.38880  0.05550  Biso   1.000  H
  H176     1.0000 0.65310  0.37290  0.03190  Biso   1.000  H
  H177     1.0000 0.63140  0.30100  0.06600  Biso   1.000  H
  H178     1.0000 0.60520  0.30080  0.01780  Biso   1.000  H
  H179     1.0000 0.64980  0.21610  0.06610  Biso   1.000  H
  H180     1.0000 0.59000  0.18750  0.04440  Biso   1.000  H
  H181     1.0000 0.45900  0.27160  0.03010  Biso   1.000  H
  H182     1.0000 0.50950  0.25190  0.99470  Biso   1.000  H
  H183     1.0000 0.39900  0.13490  0.03160  Biso   1.000  H
  H184     1.0000 0.26410  0.14650  0.93390  Biso   1.000  H
  H185     1.0000 0.38480  0.25040  0.97230  Biso   1.000  H
  H186     1.0000 0.47090  0.64570  0.73940  Biso   1.000  H
  H187     1.0000 0.56880  0.76170  0.75610  Biso   1.000  H
  H188     1.0000 0.68440  0.65070  0.72840  Biso   1.000  H
  H189     1.0000 0.52370  0.57550  0.77810  Biso   1.000  H
  H190     1.0000 0.49000  0.56800  0.73220  Biso   1.000  H
  H191     1.0000 0.67690  0.14360  0.02310  Biso   1.000  H
  H192     1.0000 0.81550  0.12820  0.92360  Biso   1.000  H
  H193     1.0000 0.71010  0.24190  0.93980  Biso   1.000  H
  H194     1.0000 0.55970  0.23500  0.29170  Biso   1.000  H
  H195     1.0000 0.68050  0.23910  0.18630  Biso   1.000  H
  H196     1.0000 0.46870  0.25440  0.17520  Biso   1.000  H
  H197     1.0000 0.49650  0.27320  0.10670  Biso   1.000  H
  H198     1.0000 0.50420  0.22180  0.10370  Biso   1.000  H
  H199     1.0000 0.43720  0.08770  0.87290  Biso   1.000  H
  H200     1.0000 0.40400  0.10700  0.83070  Biso   1.000  H
  H201     1.0000 0.36370  0.11140  0.87470  Biso   1.000  H
  H202     1.0000 0.49500  0.22640  0.90310  Biso   1.000  H
  H203     1.0000 0.55030  0.20460  0.93430  Biso   1.000  H
  H204     1.0000 0.60690  0.24390  0.88250  Biso   1.000  H
  H205     1.0000 0.57000  0.21590  0.84660  Biso   1.000  H
  H206     1.0000 0.62510  0.19390  0.87760  Biso   1.000  H
  H207     1.0000 0.89850  0.25710  0.97710  Biso   1.000  H
  H208     1.0000 0.95220  0.25450  0.01590  Biso   1.000  H
  H209     1.0000 0.80510  0.30780  0.96320  Biso   1.000  H
  H210     1.0000 0.82150  0.35030  0.93660  Biso   1.000  H
  H211     1.0000 0.76940  0.35240  0.97600  Biso   1.000  H
  H212     1.0000 0.27650  0.55680  0.37250  Biso   1.000  H
  H213     1.0000 0.32160  0.59900  0.38170  Biso   1.000  H
  H214     1.0000 0.32460  0.57670  0.33620  Biso   1.000  H
  H215     1.0000 0.55090  0.54840  0.37410  Biso   1.000  H
  H216     1.0000 0.50640  0.51850  0.40580  Biso   1.000  H
  H217     1.0000 0.57220  0.56870  0.44650  Biso   1.000  H
  H218     1.0000 0.53830  0.60770  0.42070  Biso   1.000  H
  H219     1.0000 0.49150  0.57930  0.45170  Biso   1.000  H
  H220     1.0000 0.52040  0.60740  0.34970  Biso   1.000  H
  H221     1.0000 0.44400  0.62760  0.34470  Biso   1.000  H
  H222     1.0000 0.47880  0.59650  0.27860  Biso   1.000  H
  H223     1.0000 0.49050  0.55110  0.30140  Biso   1.000  H
  H224     1.0000 0.41390  0.57030  0.29690  Biso   1.000  H
  H225     1.0000 0.00490  0.34840  0.02110  Biso   1.000  H
  H226     1.0000 0.00820  0.29810  0.03210  Biso   1.000  H
  H227     1.0000 0.54870  0.09050  0.89240  Biso   1.000  H
  H228     1.0000 0.60590  0.12540  0.90810  Biso   1.000  H
  H229     1.0000 0.55240  0.09190  0.96270  Biso   1.000  H
  H230     1.0000 0.48050  0.11070  0.94570  Biso   1.000  H
  H231     1.0000 0.53980  0.14270  0.96180  Biso   1.000  H
  H232     1.0000 0.83960  0.22370  0.03280  Biso   1.000  H
  H233     1.0000 0.80720  0.27080  0.02830  Biso   1.000  H
  H234     1.0000 0.86200  0.26090  0.06500  Biso   1.000  H
  H235     1.0000 0.99150  0.32210  0.09890  Biso   1.000  H
  H236     1.0000 0.91160  0.32100  0.08540  Biso   1.000  H
  H237     1.0000 0.95390  0.36520  0.08350  Biso   1.000  H
  H238     1.0000 0.92380  0.50050  0.37860  Biso   1.000  H
  H239     1.0000 0.13830  0.49870  0.37370  Biso   1.000  H
  H240     1.0000 0.03700  0.51270  0.48830  Biso   1.000  H
  H241     1.0000 0.12250  0.47230  0.31020  Biso   1.000  H
  H242     1.0000 0.10730  0.52160  0.29820  Biso   1.000  H
  H243     1.0000 0.16240  0.45750  0.23280  Biso   1.000  H
  H244     1.0000 0.11640  0.47650  0.19470  Biso   1.000  H
  H245     1.0000 0.96610  0.51130  0.25570  Biso   1.000  H
  H246     1.0000 0.02510  0.54030  0.23380  Biso   1.000  H
  H247     1.0000 0.93170  0.47540  0.12310  Biso   1.000  H
  H248     1.0000 0.80860  0.58060  0.10390  Biso   1.000  H
  H249     1.0000 0.92090  0.57230  0.21320  Biso   1.000  H
  H250     1.0000 0.22420  0.59040  0.24730  Biso   1.000  H
  H251     1.0000 0.32140  0.60720  0.13570  Biso   1.000  H
  H252     1.0000 0.20950  0.49860  0.15630  Biso   1.000  H
  H253     1.0000 0.06490  0.50720  0.98510  Biso   1.000  H
  H254     1.0000 0.94760  0.61120  0.94450  Biso   1.000  H
  H255     1.0000 0.15310  0.62710  0.96810  Biso   1.000  H
  H256     1.0000 0.13140  0.69900  0.93400  Biso   1.000  H
  H257     1.0000 0.10520  0.69920  0.98220  Biso   1.000  H
  H258     1.0000 0.14980  0.78390  0.93390  Biso   1.000  H
  H259     1.0000 0.09000  0.81250  0.95560  Biso   1.000  H
  H260     1.0000 0.95900  0.72840  0.96990  Biso   1.000  H
  H261     1.0000 0.00950  0.74810  0.00530  Biso   1.000  H
  H262     1.0000 0.89900  0.86510  0.96840  Biso   1.000  H
  H263     1.0000 0.76410  0.85350  0.06610  Biso   1.000  H
  H264     1.0000 0.88480  0.74960  0.02770  Biso   1.000  H
  H265     1.0000 0.97090  0.35430  0.26060  Biso   1.000  H
  H266     1.0000 0.06880  0.23830  0.24390  Biso   1.000  H
  H267     1.0000 0.18440  0.34930  0.27160  Biso   1.000  H
  H268     1.0000 0.02370  0.42450  0.22190  Biso   1.000  H
  H269     1.0000 0.99000  0.43200  0.26780  Biso   1.000  H
  H270     1.0000 0.17690  0.85640  0.97690  Biso   1.000  H
  H271     1.0000 0.31550  0.87180  0.07640  Biso   1.000  H
  H272     1.0000 0.21010  0.75810  0.06020  Biso   1.000  H
  H273     1.0000 0.05970  0.76500  0.70830  Biso   1.000  H
  H274     1.0000 0.18050  0.76090  0.81370  Biso   1.000  H
  H275     1.0000 0.96870  0.74560  0.82480  Biso   1.000  H
  H276     1.0000 0.99650  0.72680  0.89330  Biso   1.000  H
  H277     1.0000 0.00420  0.77820  0.89630  Biso   1.000  H
  H278     1.0000 0.93720  0.91230  0.12710  Biso   1.000  H
  H279     1.0000 0.90400  0.89300  0.16930  Biso   1.000  H
  H280     1.0000 0.86370  0.88860  0.12530  Biso   1.000  H
  H281     1.0000 0.99500  0.77360  0.09690  Biso   1.000  H
  H282     1.0000 0.05030  0.79540  0.06570  Biso   1.000  H
  H283     1.0000 0.10690  0.75610  0.11750  Biso   1.000  H
  H284     1.0000 0.07000  0.78410  0.15340  Biso   1.000  H
  H285     1.0000 0.12510  0.80610  0.12240  Biso   1.000  H
  H286     1.0000 0.39850  0.74290  0.02290  Biso   1.000  H
  H287     1.0000 0.45220  0.74550  0.98410  Biso   1.000  H
  H288     1.0000 0.30510  0.69220  0.03680  Biso   1.000  H
  H289     1.0000 0.32150  0.64970  0.06340  Biso   1.000  H
  H290     1.0000 0.26940  0.64760  0.02400  Biso   1.000  H
  H291     1.0000 0.77650  0.44320  0.62750  Biso   1.000  H
  H292     1.0000 0.82160  0.40100  0.61830  Biso   1.000  H
  H293     1.0000 0.82460  0.42330  0.66380  Biso   1.000  H
  H294     1.0000 0.05090  0.45160  0.62590  Biso   1.000  H
  H295     1.0000 0.00640  0.48150  0.59420  Biso   1.000  H
  H296     1.0000 0.07220  0.43130  0.55350  Biso   1.000  H
  H297     1.0000 0.03830  0.39230  0.57930  Biso   1.000  H
  H298     1.0000 0.99150  0.42070  0.54830  Biso   1.000  H
  H299     1.0000 0.02040  0.39260  0.65030  Biso   1.000  H
  H300     1.0000 0.94400  0.37240  0.65530  Biso   1.000  H
  H301     1.0000 0.97880  0.40350  0.72140  Biso   1.000  H
  H302     1.0000 0.99050  0.44890  0.69860  Biso   1.000  H
  H303     1.0000 0.91390  0.42970  0.70310  Biso   1.000  H
  H304     1.0000 0.50490  0.65160  0.97890  Biso   1.000  H
  H305     1.0000 0.50820  0.70190  0.96790  Biso   1.000  H
  H306     1.0000 0.04870  0.90950  0.10760  Biso   1.000  H
  H307     1.0000 0.10590  0.87460  0.09190  Biso   1.000  H
  H308     1.0000 0.05240  0.90810  0.03730  Biso   1.000  H
  H309     1.0000 0.98050  0.88930  0.05430  Biso   1.000  H
  H310     1.0000 0.03980  0.85730  0.03820  Biso   1.000  H
  H311     1.0000 0.33960  0.77630  0.96720  Biso   1.000  H
  H312     1.0000 0.30720  0.72920  0.97170  Biso   1.000  H
  H313     1.0000 0.36200  0.73910  0.93500  Biso   1.000  H
  H314     1.0000 0.49150  0.67790  0.90110  Biso   1.000  H
  H315     1.0000 0.41160  0.67900  0.91460  Biso   1.000  H
  H316     1.0000 0.45390  0.63480  0.91650  Biso   1.000  H
  C1       1.0000 0.40240  0.99220  0.96180  Biso   1.000  C
  C2       1.0000 0.76490  0.58280  0.51140  Biso   1.000  C
  C3       1.0000 0.67000  0.98740  0.95610  Biso   1.000  C
  C4       1.0000 0.46980  0.99300  0.93670  Biso   1.000  C
  C5       1.0000 0.46710  0.99730  0.89270  Biso   1.000  C
  C6       1.0000 0.52990  0.99850  0.86980  Biso   1.000  C
  C7       1.0000 0.59710  0.99710  0.88960  Biso   1.000  C
  C8       1.0000 0.59950  0.98920  0.93370  Biso   1.000  C
  C9       1.0000 0.53550  0.98940  0.95840  Biso   1.000  C
  C10      1.0000 0.58730  0.00770  0.79880  Biso   1.000  C
  C11      1.0000 0.56440  0.02200  0.75260  Biso   1.000  C
  C12      1.0000 0.62880  0.01990  0.72480  Biso   1.000  C
  C13      1.0000 0.50610  0.98920  0.73610  Biso   1.000  C
  C14      1.0000 0.43500  0.98060  0.67270  Biso   1.000  C
  C15      1.0000 0.41430  0.99760  0.63230  Biso   1.000  C
  C16      1.0000 0.36740  0.97390  0.60570  Biso   1.000  C
  C17      1.0000 0.34090  0.93480  0.62070  Biso   1.000  C
  C18      1.0000 0.36140  0.91780  0.66070  Biso   1.000  C
  C19      1.0000 0.40750  0.93950  0.68670  Biso   1.000  C
  C20      1.0000 0.33410  0.87520  0.67530  Biso   1.000  C
  C21      1.0000 0.70710  0.95620  0.70320  Biso   1.000  C
  C22      1.0000 0.73430  0.91860  0.71930  Biso   1.000  C
  C23      1.0000 0.77600  0.89500  0.69370  Biso   1.000  C
  C24      1.0000 0.79220  0.90960  0.65330  Biso   1.000  C
  C25      1.0000 0.76620  0.94880  0.63820  Biso   1.000  C
  C26      1.0000 0.72490  0.97370  0.66450  Biso   1.000  C
  C27      1.0000 0.80180  0.85030  0.70850  Biso   1.000  C
  C28      1.0000 0.78520  0.96520  0.59290  Biso   1.000  C
  C29      1.0000 0.42860  0.97290  0.46840  Biso   1.000  C
  C30      1.0000 0.34480  0.99440  0.56380  Biso   1.000  C
  C31      1.0000 0.69090  0.95570  0.49140  Biso   1.000  C
  C32      1.0000 0.62050  0.93630  0.47860  Biso   1.000  C
  C33      1.0000 0.56120  0.96330  0.47800  Biso   1.000  C
  C34      1.0000 0.49430  0.94480  0.46610  Biso   1.000  C
  C35      1.0000 0.49040  0.90060  0.45370  Biso   1.000  C
  C36      1.0000 0.55000  0.87460  0.45520  Biso   1.000  C
  C37      1.0000 0.61370  0.89110  0.46730  Biso   1.000  C
  C38      1.0000 0.59020  0.79790  0.45240  Biso   1.000  C
  C39      1.0000 0.55580  0.75380  0.44540  Biso   1.000  C
  C40      1.0000 0.61260  0.71610  0.45550  Biso   1.000  C
  C41      1.0000 0.49360  0.74890  0.47570  Biso   1.000  C
  C42      1.0000 0.40430  0.69340  0.49550  Biso   1.000  C
  C43      1.0000 0.37950  0.65190  0.49030  Biso   1.000  C
  C44      1.0000 0.32700  0.63320  0.51550  Biso   1.000  C
  C45      1.0000 0.29790  0.65850  0.54770  Biso   1.000  C
  C46      1.0000 0.31990  0.70360  0.55280  Biso   1.000  C
  C47      1.0000 0.37190  0.72100  0.52570  Biso   1.000  C
  C48      1.0000 0.30290  0.58740  0.51000  Biso   1.000  C
  C49      1.0000 0.29150  0.73130  0.58920  Biso   1.000  C
  C50      1.0000 0.43740  0.22790  0.75240  Biso   1.000  C
  C51      1.0000 0.51260  0.16170  0.75920  Biso   1.000  C
  C52      1.0000 0.50980  0.20600  0.75310  Biso   1.000  C
  C53      1.0000 0.57140  0.23200  0.75060  Biso   1.000  C
  C54      1.0000 0.63770  0.21130  0.75840  Biso   1.000  C
  C55      1.0000 0.70510  0.23710  0.76010  Biso   1.000  C
  C56      1.0000 0.64140  0.16430  0.76560  Biso   1.000  C
  C57      1.0000 0.57900  0.13980  0.76350  Biso   1.000  C
  C58      1.0000 0.53360  0.06680  0.75140  Biso   1.000  C
  C59      1.0000 0.69000  0.69780  0.51360  Biso   1.000  C
  C60      1.0000 0.70130  0.65540  0.50020  Biso   1.000  C
  C61      1.0000 0.75310  0.62980  0.52400  Biso   1.000  C
  C62      1.0000 0.78530  0.64610  0.56040  Biso   1.000  C
  C63      1.0000 0.77260  0.69070  0.57410  Biso   1.000  C
  C64      1.0000 0.72260  0.71400  0.55070  Biso   1.000  C
  C65      1.0000 0.80620  0.70770  0.61220  Biso   1.000  C
  C66      1.0000 0.43180  0.74540  0.24330  Biso   1.000  C
  C67      1.0000 0.56420  0.73870  0.23790  Biso   1.000  C
  C68      1.0000 0.62980  0.73870  0.25670  Biso   1.000  C
  C69      1.0000 0.69350  0.72880  0.23070  Biso   1.000  C
  C70      1.0000 0.63620  0.74120  0.30070  Biso   1.000  C
  C71      1.0000 0.57460  0.74710  0.32630  Biso   1.000  C
  C72      1.0000 0.50880  0.74950  0.30810  Biso   1.000  C
  C73      1.0000 0.52910  0.74950  0.39970  Biso   1.000  C
  C74      1.0000 0.19040  0.86720  0.56600  Biso   1.000  C
  C75      1.0000 0.13490  0.85530  0.59660  Biso   1.000  C
  C76      1.0000 0.95680  0.85210  0.57920  Biso   1.000  C
  C77      1.0000 0.01040  0.84540  0.61520  Biso   1.000  C
  C78      1.0000 0.11900  0.94410  0.59730  Biso   1.000  C
  C79      1.0000 0.40950  0.61120  0.63880  Biso   1.000  C
  C80      1.0000 0.44680  0.65510  0.63020  Biso   1.000  C
  C81      1.0000 0.05620  0.91580  0.58580  Biso   1.000  C
  C82      1.0000 0.53230  0.70460  0.59500  Biso   1.000  C
  C83      1.0000 0.58820  0.71550  0.62450  Biso   1.000  C
  C84      1.0000 0.90800  0.76730  0.49380  Biso   1.000  C
  C85      1.0000 0.87190  0.84880  0.50600  Biso   1.000  C
  C86      1.0000 0.81160  0.83900  0.53510  Biso   1.000  C
  C87      1.0000 0.50450  0.74440  0.26340  Biso   1.000  C
  C88      1.0000 0.38160  0.04290  0.11830  Biso   1.000  C
  C89      1.0000 0.32050  0.07150  0.13340  Biso   1.000  C
  C90      1.0000 0.51370  0.04830  0.10440  Biso   1.000  C
  C91      1.0000 0.53040  0.07870  0.06820  Biso   1.000  C
  C92      1.0000 0.47110  0.10060  0.15580  Biso   1.000  C
  C93      1.0000 0.46300  0.07750  0.19860  Biso   1.000  C
  C94      1.0000 0.97850  0.82400  0.46700  Biso   1.000  C
  C95      1.0000 0.55630  0.61730  0.59130  Biso   1.000  C
  C96      1.0000 0.53060  0.61550  0.55280  Biso   1.000  C
  C97      1.0000 0.84890  0.75460  0.46430  Biso   1.000  C
  C98      1.0000 0.95690  0.83400  0.42040  Biso   1.000  C
  C99      1.0000 0.90240  0.00780  0.03820  Biso   1.000  C
  C100     1.0000 0.26490  0.41720  0.48860  Biso   1.000  C
  C101     1.0000 0.17000  0.01260  0.04390  Biso   1.000  C
  C102     1.0000 0.96980  0.00700  0.06330  Biso   1.000  C
  C103     1.0000 0.96710  0.00270  0.10730  Biso   1.000  C
  C104     1.0000 0.02990  0.00150  0.13020  Biso   1.000  C
  C105     1.0000 0.09710  0.00290  0.11040  Biso   1.000  C
  C106     1.0000 0.09950  0.01080  0.06630  Biso   1.000  C
  C107     1.0000 0.03550  0.01060  0.04160  Biso   1.000  C
  C108     1.0000 0.08730  0.99230  0.20120  Biso   1.000  C
  C109     1.0000 0.06440  0.97800  0.24740  Biso   1.000  C
  C110     1.0000 0.12880  0.98010  0.27520  Biso   1.000  C
  C111     1.0000 0.00610  0.01080  0.26390  Biso   1.000  C
  C112     1.0000 0.93500  0.01940  0.32730  Biso   1.000  C
  C113     1.0000 0.91430  0.00240  0.36770  Biso   1.000  C
  C114     1.0000 0.86740  0.02610  0.39430  Biso   1.000  C
  C115     1.0000 0.84090  0.06520  0.37930  Biso   1.000  C
  C116     1.0000 0.86140  0.08220  0.33930  Biso   1.000  C
  C117     1.0000 0.90750  0.06050  0.31330  Biso   1.000  C
  C118     1.0000 0.83410  0.12480  0.32470  Biso   1.000  C
  C119     1.0000 0.20710  0.04380  0.29680  Biso   1.000  C
  C120     1.0000 0.23430  0.08140  0.28070  Biso   1.000  C
  C121     1.0000 0.27600  0.10500  0.30630  Biso   1.000  C
  C122     1.0000 0.29220  0.09040  0.34670  Biso   1.000  C
  C123     1.0000 0.26620  0.05120  0.36180  Biso   1.000  C
  C124     1.0000 0.22490  0.02630  0.33550  Biso   1.000  C
  C125     1.0000 0.30180  0.14970  0.29150  Biso   1.000  C
  C126     1.0000 0.28520  0.03480  0.40710  Biso   1.000  C
  C127     1.0000 0.92860  0.02710  0.53160  Biso   1.000  C
  C128     1.0000 0.84480  0.00560  0.43620  Biso   1.000  C
  C129     1.0000 0.19090  0.04430  0.50860  Biso   1.000  C
  C130     1.0000 0.12050  0.06370  0.52140  Biso   1.000  C
  C131     1.0000 0.06120  0.03670  0.52200  Biso   1.000  C
  C132     1.0000 0.99430  0.05520  0.53390  Biso   1.000  C
  C133     1.0000 0.99040  0.09940  0.54630  Biso   1.000  C
  C134     1.0000 0.05000  0.12540  0.54480  Biso   1.000  C
  C135     1.0000 0.11370  0.10890  0.53270  Biso   1.000  C
  C136     1.0000 0.09020  0.20210  0.54760  Biso   1.000  C
  C137     1.0000 0.05580  0.24620  0.55460  Biso   1.000  C
  C138     1.0000 0.11260  0.28390  0.54450  Biso   1.000  C
  C139     1.0000 0.99360  0.25110  0.52430  Biso   1.000  C
  C140     1.0000 0.90430  0.30660  0.50450  Biso   1.000  C
  C141     1.0000 0.87950  0.34810  0.50970  Biso   1.000  C
  C142     1.0000 0.82700  0.36680  0.48450  Biso   1.000  C
  C143     1.0000 0.79790  0.34150  0.45230  Biso   1.000  C
  C144     1.0000 0.81990  0.29640  0.44720  Biso   1.000  C
  C145     1.0000 0.87190  0.27900  0.47430  Biso   1.000  C
  C146     1.0000 0.80290  0.41260  0.49000  Biso   1.000  C
  C147     1.0000 0.79150  0.26870  0.41080  Biso   1.000  C
  C148     1.0000 0.93740  0.77210  0.24760  Biso   1.000  C
  C149     1.0000 0.01260  0.83830  0.24080  Biso   1.000  C
  C150     1.0000 0.00980  0.79400  0.24690  Biso   1.000  C
  C151     1.0000 0.07140  0.76800  0.24940  Biso   1.000  C
  C152     1.0000 0.13770  0.78870  0.24160  Biso   1.000  C
  C153     1.0000 0.20510  0.76290  0.23990  Biso   1.000  C
  C154     1.0000 0.14140  0.83570  0.23440  Biso   1.000  C
  C155     1.0000 0.07900  0.86020  0.23650  Biso   1.000  C
  C156     1.0000 0.03360  0.93320  0.24860  Biso   1.000  C
  C157     1.0000 0.19000  0.30220  0.48640  Biso   1.000  C
  C158     1.0000 0.20130  0.34460  0.49980  Biso   1.000  C
  C159     1.0000 0.25310  0.37020  0.47600  Biso   1.000  C
  C160     1.0000 0.28530  0.35390  0.43960  Biso   1.000  C
  C161     1.0000 0.27260  0.30930  0.42590  Biso   1.000  C
  C162     1.0000 0.22260  0.28600  0.44930  Biso   1.000  C
  C163     1.0000 0.30620  0.29230  0.38780  Biso   1.000  C
  C164     1.0000 0.93180  0.25460  0.75670  Biso   1.000  C
  C165     1.0000 0.06420  0.26130  0.76210  Biso   1.000  C
  C166     1.0000 0.12980  0.26130  0.74330  Biso   1.000  C
  C167     1.0000 0.19350  0.27120  0.76930  Biso   1.000  C
  C168     1.0000 0.13620  0.25880  0.69930  Biso   1.000  C
  C169     1.0000 0.07460  0.25290  0.67370  Biso   1.000  C
  C170     1.0000 0.00880  0.25050  0.69190  Biso   1.000  C
  C171     1.0000 0.02910  0.25050  0.60030  Biso   1.000  C
  C172     1.0000 0.69040  0.13280  0.43400  Biso   1.000  C
  C173     1.0000 0.63490  0.14470  0.40340  Biso   1.000  C
  C174     1.0000 0.45680  0.14790  0.42080  Biso   1.000  C
  C175     1.0000 0.51040  0.15460  0.38480  Biso   1.000  C
  C176     1.0000 0.61900  0.05590  0.40270  Biso   1.000  C
  C177     1.0000 0.90950  0.38880  0.36120  Biso   1.000  C
  C178     1.0000 0.94680  0.34490  0.36980  Biso   1.000  C
  C179     1.0000 0.55620  0.08420  0.41420  Biso   1.000  C
  C180     1.0000 0.03230  0.29540  0.40500  Biso   1.000  C
  C181     1.0000 0.08820  0.28450  0.37550  Biso   1.000  C
  C182     1.0000 0.40800  0.23270  0.50620  Biso   1.000  C
  C183     1.0000 0.37190  0.15120  0.49400  Biso   1.000  C
  C184     1.0000 0.31160  0.16100  0.46490  Biso   1.000  C
  C185     1.0000 0.00450  0.25560  0.73660  Biso   1.000  C
  C186     1.0000 0.88160  0.95710  0.88170  Biso   1.000  C
  C187     1.0000 0.82050  0.92850  0.86660  Biso   1.000  C
  C188     1.0000 0.01370  0.95170  0.89560  Biso   1.000  C
  C189     1.0000 0.03040  0.92130  0.93180  Biso   1.000  C
  C190     1.0000 0.97110  0.89940  0.84420  Biso   1.000  C
  C191     1.0000 0.96300  0.92250  0.80140  Biso   1.000  C
  C192     1.0000 0.47850  0.17600  0.53300  Biso   1.000  C
  C193     1.0000 0.05630  0.38270  0.40870  Biso   1.000  C
  C194     1.0000 0.03060  0.38450  0.44720  Biso   1.000  C
  C195     1.0000 0.34890  0.24540  0.53570  Biso   1.000  C
  C196     1.0000 0.45690  0.16600  0.57960  Biso   1.000  C
  C197     1.0000 0.40240  0.49220  0.53820  Biso   1.000  C
  C198     1.0000 0.76490  0.08280  0.98860  Biso   1.000  C
  C199     1.0000 0.67000  0.48740  0.54390  Biso   1.000  C
  C200     1.0000 0.46980  0.49300  0.56330  Biso   1.000  C
  C201     1.0000 0.46710  0.49730  0.60730  Biso   1.000  C
  C202     1.0000 0.52990  0.49850  0.63020  Biso   1.000  C
  C203     1.0000 0.59710  0.49710  0.61040  Biso   1.000  C
  C204     1.0000 0.59950  0.48920  0.56630  Biso   1.000  C
  C205     1.0000 0.53550  0.48940  0.54160  Biso   1.000  C
  C206     1.0000 0.58730  0.50770  0.70120  Biso   1.000  C
  C207     1.0000 0.56440  0.52200  0.74740  Biso   1.000  C
  C208     1.0000 0.62880  0.51990  0.77520  Biso   1.000  C
  C209     1.0000 0.50610  0.48920  0.76390  Biso   1.000  C
  C210     1.0000 0.43500  0.48060  0.82730  Biso   1.000  C
  C211     1.0000 0.41430  0.49760  0.86770  Biso   1.000  C
  C212     1.0000 0.36740  0.47390  0.89430  Biso   1.000  C
  C213     1.0000 0.34090  0.43480  0.87930  Biso   1.000  C
  C214     1.0000 0.36140  0.41780  0.83930  Biso   1.000  C
  C215     1.0000 0.40750  0.43950  0.81330  Biso   1.000  C
  C216     1.0000 0.33410  0.37520  0.82470  Biso   1.000  C
  C217     1.0000 0.70710  0.45620  0.79680  Biso   1.000  C
  C218     1.0000 0.73430  0.41860  0.78070  Biso   1.000  C
  C219     1.0000 0.77600  0.39500  0.80630  Biso   1.000  C
  C220     1.0000 0.79220  0.40960  0.84670  Biso   1.000  C
  C221     1.0000 0.76620  0.44880  0.86180  Biso   1.000  C
  C222     1.0000 0.72490  0.47370  0.83550  Biso   1.000  C
  C223     1.0000 0.80180  0.35030  0.79150  Biso   1.000  C
  C224     1.0000 0.78520  0.46520  0.90710  Biso   1.000  C
  C225     1.0000 0.42860  0.47290  0.03160  Biso   1.000  C
  C226     1.0000 0.34480  0.49440  0.93620  Biso   1.000  C
  C227     1.0000 0.69090  0.45570  0.00860  Biso   1.000  C
  C228     1.0000 0.62050  0.43630  0.02140  Biso   1.000  C
  C229     1.0000 0.56120  0.46330  0.02200  Biso   1.000  C
  C230     1.0000 0.49430  0.44480  0.03390  Biso   1.000  C
  C231     1.0000 0.49040  0.40060  0.04630  Biso   1.000  C
  C232     1.0000 0.55000  0.37460  0.04480  Biso   1.000  C
  C233     1.0000 0.61370  0.39110  0.03270  Biso   1.000  C
  C234     1.0000 0.59020  0.29790  0.04760  Biso   1.000  C
  C235     1.0000 0.55580  0.25380  0.05460  Biso   1.000  C
  C236     1.0000 0.61260  0.21610  0.04450  Biso   1.000  C
  C237     1.0000 0.49360  0.24890  0.02430  Biso   1.000  C
  C238     1.0000 0.40430  0.19340  0.00450  Biso   1.000  C
  C239     1.0000 0.37950  0.15190  0.00970  Biso   1.000  C
  C240     1.0000 0.32700  0.13320  0.98450  Biso   1.000  C
  C241     1.0000 0.29790  0.15850  0.95230  Biso   1.000  C
  C242     1.0000 0.31990  0.20360  0.94720  Biso   1.000  C
  C243     1.0000 0.37190  0.22100  0.97430  Biso   1.000  C
  C244     1.0000 0.30290  0.08740  0.99000  Biso   1.000  C
  C245     1.0000 0.29150  0.23130  0.91080  Biso   1.000  C
  C246     1.0000 0.43740  0.72790  0.74760  Biso   1.000  C
  C247     1.0000 0.51260  0.66170  0.74080  Biso   1.000  C
  C248     1.0000 0.50980  0.70600  0.74690  Biso   1.000  C
  C249     1.0000 0.57140  0.73200  0.74940  Biso   1.000  C
  C250     1.0000 0.63770  0.71130  0.74160  Biso   1.000  C
  C251     1.0000 0.70510  0.73710  0.73990  Biso   1.000  C
  C252     1.0000 0.64140  0.66430  0.73440  Biso   1.000  C
  C253     1.0000 0.57900  0.63980  0.73650  Biso   1.000  C
  C254     1.0000 0.53360  0.56680  0.74860  Biso   1.000  C
  C255     1.0000 0.69000  0.19780  0.98640  Biso   1.000  C
  C256     1.0000 0.70130  0.15540  0.99980  Biso   1.000  C
  C257     1.0000 0.75310  0.12980  0.97600  Biso   1.000  C
  C258     1.0000 0.78530  0.14610  0.93960  Biso   1.000  C
  C259     1.0000 0.77260  0.19070  0.92590  Biso   1.000  C
  C260     1.0000 0.72260  0.21400  0.94930  Biso   1.000  C
  C261     1.0000 0.80620  0.20770  0.88780  Biso   1.000  C
  C262     1.0000 0.43180  0.24540  0.25670  Biso   1.000  C
  C263     1.0000 0.56420  0.23870  0.26210  Biso   1.000  C
  C264     1.0000 0.62980  0.23870  0.24330  Biso   1.000  C
  C265     1.0000 0.69350  0.22880  0.26930  Biso   1.000  C
  C266     1.0000 0.63620  0.24120  0.19930  Biso   1.000  C
  C267     1.0000 0.57460  0.24710  0.17370  Biso   1.000  C
  C268     1.0000 0.50880  0.24950  0.19190  Biso   1.000  C
  C269     1.0000 0.52910  0.24950  0.10030  Biso   1.000  C
  C270     1.0000 0.19040  0.36720  0.93400  Biso   1.000  C
  C271     1.0000 0.13490  0.35530  0.90340  Biso   1.000  C
  C272     1.0000 0.95680  0.35210  0.92080  Biso   1.000  C
  C273     1.0000 0.01040  0.34540  0.88480  Biso   1.000  C
  C274     1.0000 0.11900  0.44410  0.90270  Biso   1.000  C
  C275     1.0000 0.40950  0.11120  0.86120  Biso   1.000  C
  C276     1.0000 0.44680  0.15510  0.86980  Biso   1.000  C
  C277     1.0000 0.05620  0.41580  0.91420  Biso   1.000  C
  C278     1.0000 0.53230  0.20460  0.90500  Biso   1.000  C
  C279     1.0000 0.58820  0.21550  0.87550  Biso   1.000  C
  C280     1.0000 0.90800  0.26730  0.00620  Biso   1.000  C
  C281     1.0000 0.87190  0.34880  0.99400  Biso   1.000  C
  C282     1.0000 0.81160  0.33900  0.96490  Biso   1.000  C
  C283     1.0000 0.50450  0.24440  0.23660  Biso   1.000  C
  C284     1.0000 0.38160  0.54290  0.38170  Biso   1.000  C
  C285     1.0000 0.32050  0.57150  0.36660  Biso   1.000  C
  C286     1.0000 0.51370  0.54830  0.39560  Biso   1.000  C
  C287     1.0000 0.53040  0.57870  0.43180  Biso   1.000  C
  C288     1.0000 0.47110  0.60060  0.34420  Biso   1.000  C
  C289     1.0000 0.46300  0.57750  0.30140  Biso   1.000  C
  C290     1.0000 0.97850  0.32400  0.03300  Biso   1.000  C
  C291     1.0000 0.55630  0.11730  0.90870  Biso   1.000  C
  C292     1.0000 0.53060  0.11550  0.94720  Biso   1.000  C
  C293     1.0000 0.84890  0.25460  0.03570  Biso   1.000  C
  C294     1.0000 0.95690  0.33400  0.07960  Biso   1.000  C
  C295     1.0000 0.90240  0.50780  0.46180  Biso   1.000  C
  C296     1.0000 0.26490  0.91720  0.01140  Biso   1.000  C
  C297     1.0000 0.17000  0.51260  0.45610  Biso   1.000  C
  C298     1.0000 0.96980  0.50700  0.43670  Biso   1.000  C
  C299     1.0000 0.96710  0.50270  0.39270  Biso   1.000  C
  C300     1.0000 0.02990  0.50150  0.36980  Biso   1.000  C
  C301     1.0000 0.09710  0.50290  0.38960  Biso   1.000  C
  C302     1.0000 0.09950  0.51080  0.43370  Biso   1.000  C
  C303     1.0000 0.03550  0.51060  0.45840  Biso   1.000  C
  C304     1.0000 0.08730  0.49230  0.29880  Biso   1.000  C
  C305     1.0000 0.06440  0.47800  0.25260  Biso   1.000  C
  C306     1.0000 0.12880  0.48010  0.22480  Biso   1.000  C
  C307     1.0000 0.00610  0.51080  0.23610  Biso   1.000  C
  C308     1.0000 0.93500  0.51940  0.17270  Biso   1.000  C
  C309     1.0000 0.91430  0.50240  0.13230  Biso   1.000  C
  C310     1.0000 0.86740  0.52610  0.10570  Biso   1.000  C
  C311     1.0000 0.84090  0.56520  0.12070  Biso   1.000  C
  C312     1.0000 0.86140  0.58220  0.16070  Biso   1.000  C
  C313     1.0000 0.90750  0.56050  0.18670  Biso   1.000  C
  C314     1.0000 0.83410  0.62480  0.17530  Biso   1.000  C
  C315     1.0000 0.20710  0.54380  0.20320  Biso   1.000  C
  C316     1.0000 0.23430  0.58140  0.21930  Biso   1.000  C
  C317     1.0000 0.27600  0.60500  0.19370  Biso   1.000  C
  C318     1.0000 0.29220  0.59040  0.15330  Biso   1.000  C
  C319     1.0000 0.26620  0.55120  0.13820  Biso   1.000  C
  C320     1.0000 0.22490  0.52630  0.16450  Biso   1.000  C
  C321     1.0000 0.30180  0.64970  0.20850  Biso   1.000  C
  C322     1.0000 0.28520  0.53480  0.09290  Biso   1.000  C
  C323     1.0000 0.92860  0.52710  0.96840  Biso   1.000  C
  C324     1.0000 0.84480  0.50560  0.06380  Biso   1.000  C
  C325     1.0000 0.19090  0.54430  0.99140  Biso   1.000  C
  C326     1.0000 0.12050  0.56370  0.97860  Biso   1.000  C
  C327     1.0000 0.06120  0.53670  0.97800  Biso   1.000  C
  C328     1.0000 0.99430  0.55520  0.96610  Biso   1.000  C
  C329     1.0000 0.99040  0.59940  0.95370  Biso   1.000  C
  C330     1.0000 0.05000  0.62540  0.95520  Biso   1.000  C
  C331     1.0000 0.11370  0.60890  0.96730  Biso   1.000  C
  C332     1.0000 0.09020  0.70210  0.95240  Biso   1.000  C
  C333     1.0000 0.05580  0.74620  0.94540  Biso   1.000  C
  C334     1.0000 0.11260  0.78390  0.95550  Biso   1.000  C
  C335     1.0000 0.99360  0.75110  0.97570  Biso   1.000  C
  C336     1.0000 0.90430  0.80660  0.99550  Biso   1.000  C
  C337     1.0000 0.87950  0.84810  0.99030  Biso   1.000  C
  C338     1.0000 0.82700  0.86680  0.01550  Biso   1.000  C
  C339     1.0000 0.79790  0.84150  0.04770  Biso   1.000  C
  C340     1.0000 0.81990  0.79640  0.05280  Biso   1.000  C
  C341     1.0000 0.87190  0.77900  0.02570  Biso   1.000  C
  C342     1.0000 0.80290  0.91260  0.01000  Biso   1.000  C
  C343     1.0000 0.79150  0.76870  0.08920  Biso   1.000  C
  C344     1.0000 0.93740  0.27210  0.25240  Biso   1.000  C
  C345     1.0000 0.01260  0.33830  0.25920  Biso   1.000  C
  C346     1.0000 0.00980  0.29400  0.25310  Biso   1.000  C
  C347     1.0000 0.07140  0.26800  0.25060  Biso   1.000  C
  C348     1.0000 0.13770  0.28870  0.25840  Biso   1.000  C
  C349     1.0000 0.20510  0.26290  0.26010  Biso   1.000  C
  C350     1.0000 0.14140  0.33570  0.26560  Biso   1.000  C
  C351     1.0000 0.07900  0.36020  0.26350  Biso   1.000  C
  C352     1.0000 0.03360  0.43320  0.25140  Biso   1.000  C
  C353     1.0000 0.19000  0.80220  0.01360  Biso   1.000  C
  C354     1.0000 0.20130  0.84460  0.00020  Biso   1.000  C
  C355     1.0000 0.25310  0.87020  0.02400  Biso   1.000  C
  C356     1.0000 0.28530  0.85390  0.06040  Biso   1.000  C
  C357     1.0000 0.27260  0.80930  0.07410  Biso   1.000  C
  C358     1.0000 0.22260  0.78600  0.05070  Biso   1.000  C
  C359     1.0000 0.30620  0.79230  0.11220  Biso   1.000  C
  C360     1.0000 0.93180  0.75460  0.74330  Biso   1.000  C
  C361     1.0000 0.06420  0.76130  0.73790  Biso   1.000  C
  C362     1.0000 0.12980  0.76130  0.75670  Biso   1.000  C
  C363     1.0000 0.19350  0.77120  0.73070  Biso   1.000  C
  C364     1.0000 0.13620  0.75880  0.80070  Biso   1.000  C
  C365     1.0000 0.07460  0.75290  0.82630  Biso   1.000  C
  C366     1.0000 0.00880  0.75050  0.80810  Biso   1.000  C
  C367     1.0000 0.02910  0.75050  0.89970  Biso   1.000  C
  C368     1.0000 0.69040  0.63280  0.06600  Biso   1.000  C
  C369     1.0000 0.63490  0.64470  0.09660  Biso   1.000  C
  C370     1.0000 0.45680  0.64790  0.07920  Biso   1.000  C
  C371     1.0000 0.51040  0.65460  0.11520  Biso   1.000  C
  C372     1.0000 0.61900  0.55590  0.09730  Biso   1.000  C
  C373     1.0000 0.90950  0.88880  0.13880  Biso   1.000  C
  C374     1.0000 0.94680  0.84490  0.13020  Biso   1.000  C
  C375     1.0000 0.55620  0.58420  0.08580  Biso   1.000  C
  C376     1.0000 0.03230  0.79540  0.09500  Biso   1.000  C
  C377     1.0000 0.08820  0.78450  0.12450  Biso   1.000  C
  C378     1.0000 0.40800  0.73270  0.99380  Biso   1.000  C
  C379     1.0000 0.37190  0.65120  0.00600  Biso   1.000  C
  C380     1.0000 0.31160  0.66100  0.03510  Biso   1.000  C
  C381     1.0000 0.00450  0.75560  0.76340  Biso   1.000  C
  C382     1.0000 0.88160  0.45710  0.61830  Biso   1.000  C
  C383     1.0000 0.82050  0.42850  0.63340  Biso   1.000  C
  C384     1.0000 0.01370  0.45170  0.60440  Biso   1.000  C
  C385     1.0000 0.03040  0.42130  0.56820  Biso   1.000  C
  C386     1.0000 0.97110  0.39940  0.65580  Biso   1.000  C
  C387     1.0000 0.96300  0.42250  0.69860  Biso   1.000  C
  C388     1.0000 0.47850  0.67600  0.96700  Biso   1.000  C
  C389     1.0000 0.05630  0.88270  0.09130  Biso   1.000  C
  C390     1.0000 0.03060  0.88450  0.05280  Biso   1.000  C
  C391     1.0000 0.34890  0.74540  0.96430  Biso   1.000  C
  C392     1.0000 0.45690  0.66600  0.92040  Biso   1.000  C
  N1       1.0000 0.44340  0.06870  0.12250  Biso   1.000  N
  N2       1.0000 0.07580  0.87010  0.60080  Biso   1.000  N
  N3       1.0000 0.50180  0.65850  0.60610  Biso   1.000  N
  N4       1.0000 0.91210  0.81640  0.49280  Biso   1.000  N
  N5       1.0000 0.94340  0.93130  0.87750  Biso   1.000  N
  N6       1.0000 0.57580  0.12990  0.39920  Biso   1.000  N
  N7       1.0000 0.00180  0.34150  0.39390  Biso   1.000  N
  N8       1.0000 0.41210  0.18360  0.50720  Biso   1.000  N
  N9       1.0000 0.44340  0.56870  0.37750  Biso   1.000  N
  N10      1.0000 0.07580  0.37010  0.89920  Biso   1.000  N
  N11      1.0000 0.50180  0.15850  0.89390  Biso   1.000  N
  N12      1.0000 0.91210  0.31640  0.00720  Biso   1.000  N
  N13      1.0000 0.94340  0.43130  0.62250  Biso   1.000  N
  N14      1.0000 0.57580  0.62990  0.10080  Biso   1.000  N
  N15      1.0000 0.00180  0.84150  0.10610  Biso   1.000  N
  N16      1.0000 0.41210  0.68360  0.99280  Biso   1.000  N
  O1       1.0000 0.40930  0.99433  0.00264  Biso   1.000  O
  O2       1.0000 0.34650  0.99129  0.94101  Biso   1.000  O
  O3       1.0000 0.38080  0.01090  0.09840  Biso   1.000  O
  O4       1.0000 0.72300  0.98908  0.93289  Biso   1.000  O
  O5       1.0000 0.19490  0.99740  0.90350  Biso   1.000  O
  O6       1.0000 0.66700  0.98727  0.99825  Biso   1.000  O
  O7       1.0000 0.80460  0.56150  0.53819  Biso   1.000  O
  O8       1.0000 0.89260  0.88773  0.49864  Biso   1.000  O
  O9       1.0000 0.73620  0.56667  0.47883  Biso   1.000  O
  O10      1.0000 0.72570  0.08888  0.53528  Biso   1.000  O
  O11      1.0000 0.35500  0.85922  0.71095  Biso   1.000  O
  O12      1.0000 0.41870  0.68850  0.64460  Biso   1.000  O
  O13      1.0000 0.28750  0.85626  0.65194  Biso   1.000  O
  O14      1.0000 0.26830  0.65950  0.69600  Biso   1.000  O
  O15      1.0000 0.26300  0.71217  0.61983  Biso   1.000  O
  O16      1.0000 0.29230  0.77120  0.58515  Biso   1.000  O
  O17      1.0000 0.15890  0.82030  0.61190  Biso   1.000  O
  O18      1.0000 0.38500  0.20510  0.76011  Biso   1.000  O
  O19      1.0000 0.43590  0.26840  0.74716  Biso   1.000  O
  O20      1.0000 0.27120  0.56730  0.53868  Biso   1.000  O
  O21      1.0000 0.32650  0.56835  0.47440  Biso   1.000  O
  O22      1.0000 0.38040  0.74595  0.26848  Biso   1.000  O
  O23      1.0000 0.42760  0.74768  0.20232  Biso   1.000  O
  O24      1.0000 0.75160  0.72248  0.25162  Biso   1.000  O
  O25      1.0000 0.68850  0.72479  0.18980  Biso   1.000  O
  O26      1.0000 0.84130  0.68440  0.63810  Biso   1.000  O
  O27      1.0000 0.80100  0.74920  0.61989  Biso   1.000  O
  O28      1.0000 0.80530  0.84470  0.75210  Biso   1.000  O
  O29      1.0000 0.81410  0.81996  0.68227  Biso   1.000  O
  O30      1.0000 0.75820  0.00116  0.58139  Biso   1.000  O
  O31      1.0000 0.82420  0.94004  0.57099  Biso   1.000  O
  O32      1.0000 0.68940  0.99605  0.50041  Biso   1.000  O
  O33      1.0000 0.74390  0.93079  0.49193  Biso   1.000  O
  O34      1.0000 0.37100  0.95237  0.45991  Biso   1.000  O
  O35      1.0000 0.43520  0.01317  0.47794  Biso   1.000  O
  O36      1.0000 0.31030  0.96608  0.53940  Biso   1.000  O
  O37      1.0000 0.36290  0.03159  0.55468  Biso   1.000  O
  O38      1.0000 0.58750  0.09600  0.77065  Biso   1.000  O
  O39      1.0000 0.46170  0.70603  0.46951  Biso   1.000  O
  O40      1.0000 0.64020  0.72592  0.49623  Biso   1.000  O
  O41      1.0000 0.53810  0.83158  0.44204  Biso   1.000  O
  O42      1.0000 0.58820  0.75117  0.37091  Biso   1.000  O
  O43      1.0000 0.65840  0.97580  0.73260  Biso   1.000  O
  O44      1.0000 0.48470  0.00531  0.69392  Biso   1.000  O
  O45      1.0000 0.52130  0.00868  0.82579  Biso   1.000  O
  O46      1.0000 0.75040  0.22708  0.78817  Biso   1.000  O
  O47      1.0000 0.71350  0.26540  0.73230  Biso   1.000  O
  O48      1.0000 0.34370  0.77021  0.67483  Biso   1.000  O
  O49      1.0000 0.90930  0.00567  0.99736  Biso   1.000  O
  O50      1.0000 0.84650  0.00871  0.05899  Biso   1.000  O
  O51      1.0000 0.88080  0.98910  0.90160  Biso   1.000  O
  O52      1.0000 0.22300  0.01092  0.06711  Biso   1.000  O
  O53      1.0000 0.69490  0.00260  0.09650  Biso   1.000  O
  O54      1.0000 0.16700  0.01273  0.00175  Biso   1.000  O
  O55      1.0000 0.30460  0.43850  0.46181  Biso   1.000  O
  O56      1.0000 0.39260  0.11227  0.50136  Biso   1.000  O
  O57      1.0000 0.23620  0.43333  0.52117  Biso   1.000  O
  O58      1.0000 0.22570  0.91112  0.46472  Biso   1.000  O
  O59      1.0000 0.85500  0.14078  0.28905  Biso   1.000  O
  O60      1.0000 0.91870  0.31150  0.35540  Biso   1.000  O
  O61      1.0000 0.78750  0.14374  0.34806  Biso   1.000  O
  O62      1.0000 0.76830  0.34050  0.30400  Biso   1.000  O
  O63      1.0000 0.76300  0.28783  0.38017  Biso   1.000  O
  O64      1.0000 0.79230  0.22880  0.41485  Biso   1.000  O
  O65      1.0000 0.65890  0.17970  0.38810  Biso   1.000  O
  O66      1.0000 0.88500  0.79490  0.23989  Biso   1.000  O
  O67      1.0000 0.93590  0.73160  0.25284  Biso   1.000  O
  O68      1.0000 0.77120  0.43270  0.46132  Biso   1.000  O
  O69      1.0000 0.82650  0.43165  0.52560  Biso   1.000  O
  O70      1.0000 0.88040  0.25405  0.73152  Biso   1.000  O
  O71      1.0000 0.92760  0.25232  0.79768  Biso   1.000  O
  O72      1.0000 0.25160  0.27752  0.74838  Biso   1.000  O
  O73      1.0000 0.18850  0.27521  0.81020  Biso   1.000  O
  O74      1.0000 0.34130  0.31560  0.36190  Biso   1.000  O
  O75      1.0000 0.30100  0.25080  0.38011  Biso   1.000  O
  O76      1.0000 0.30530  0.15530  0.24790  Biso   1.000  O
  O77      1.0000 0.31410  0.18004  0.31773  Biso   1.000  O
  O78      1.0000 0.25820  0.99884  0.41861  Biso   1.000  O
  O79      1.0000 0.32420  0.05996  0.42901  Biso   1.000  O
  O80      1.0000 0.18940  0.00395  0.49959  Biso   1.000  O
  O81      1.0000 0.24390  0.06921  0.50807  Biso   1.000  O
  O82      1.0000 0.87100  0.04763  0.54009  Biso   1.000  O
  O83      1.0000 0.93520  0.98683  0.52206  Biso   1.000  O
  O84      1.0000 0.81030  0.03392  0.46060  Biso   1.000  O
  O85      1.0000 0.86290  0.96841  0.44532  Biso   1.000  O
  O86      1.0000 0.08750  0.90400  0.22935  Biso   1.000  O
  O87      1.0000 0.96170  0.29397  0.53049  Biso   1.000  O
  O88      1.0000 0.14020  0.27408  0.50377  Biso   1.000  O
  O89      1.0000 0.03810  0.16842  0.55796  Biso   1.000  O
  O90      1.0000 0.08820  0.24883  0.62909  Biso   1.000  O
  O91      1.0000 0.15840  0.02420  0.26740  Biso   1.000  O
  O92      1.0000 0.98470  0.99469  0.30608  Biso   1.000  O
  O93      1.0000 0.02130  0.99132  0.17421  Biso   1.000  O
  O94      1.0000 0.25040  0.77292  0.21183  Biso   1.000  O
  O95      1.0000 0.21350  0.73460  0.26770  Biso   1.000  O
  O96      1.0000 0.84370  0.22979  0.32517  Biso   1.000  O
  O97      1.0000 0.40930  0.49433  0.49736  Biso   1.000  O
  O98      1.0000 0.34650  0.49129  0.55899  Biso   1.000  O
  O99      1.0000 0.38080  0.51090  0.40160  Biso   1.000  O
  O100     1.0000 0.72300  0.48908  0.56711  Biso   1.000  O
  O101     1.0000 0.19490  0.49740  0.59650  Biso   1.000  O
  O102     1.0000 0.66700  0.48727  0.50175  Biso   1.000  O
  O103     1.0000 0.80460  0.06150  0.96181  Biso   1.000  O
  O104     1.0000 0.89260  0.38773  0.00136  Biso   1.000  O
  O105     1.0000 0.73620  0.06667  0.02117  Biso   1.000  O
  O106     1.0000 0.72570  0.58888  0.96472  Biso   1.000  O
  O107     1.0000 0.35500  0.35922  0.78905  Biso   1.000  O
  O108     1.0000 0.41870  0.18850  0.85540  Biso   1.000  O
  O109     1.0000 0.28750  0.35626  0.84806  Biso   1.000  O
  O110     1.0000 0.26830  0.15950  0.80400  Biso   1.000  O
  O111     1.0000 0.26300  0.21217  0.88017  Biso   1.000  O
  O112     1.0000 0.29230  0.27120  0.91485  Biso   1.000  O
  O113     1.0000 0.15890  0.32030  0.88810  Biso   1.000  O
  O114     1.0000 0.38500  0.70510  0.73989  Biso   1.000  O
  O115     1.0000 0.43590  0.76840  0.75284  Biso   1.000  O
  O116     1.0000 0.27120  0.06730  0.96132  Biso   1.000  O
  O117     1.0000 0.32650  0.06835  0.02560  Biso   1.000  O
  O118     1.0000 0.38040  0.24595  0.23152  Biso   1.000  O
  O119     1.0000 0.42760  0.24768  0.29768  Biso   1.000  O
  O120     1.0000 0.75160  0.22248  0.24838  Biso   1.000  O
  O121     1.0000 0.68850  0.22479  0.31020  Biso   1.000  O
  O122     1.0000 0.84130  0.18440  0.86190  Biso   1.000  O
  O123     1.0000 0.80100  0.24920  0.88011  Biso   1.000  O
  O124     1.0000 0.80530  0.34470  0.74790  Biso   1.000  O
  O125     1.0000 0.81410  0.31996  0.81773  Biso   1.000  O
  O126     1.0000 0.75820  0.50116  0.91861  Biso   1.000  O
  O127     1.0000 0.82420  0.44004  0.92901  Biso   1.000  O
  O128     1.0000 0.68940  0.49605  0.99959  Biso   1.000  O
  O129     1.0000 0.74390  0.43079  0.00807  Biso   1.000  O
  O130     1.0000 0.37100  0.45237  0.04009  Biso   1.000  O
  O131     1.0000 0.43520  0.51317  0.02206  Biso   1.000  O
  O132     1.0000 0.31030  0.46608  0.96060  Biso   1.000  O
  O133     1.0000 0.36290  0.53159  0.94532  Biso   1.000  O
  O134     1.0000 0.58750  0.59600  0.72935  Biso   1.000  O
  O135     1.0000 0.46170  0.20603  0.03049  Biso   1.000  O
  O136     1.0000 0.64020  0.22592  0.00377  Biso   1.000  O
  O137     1.0000 0.53810  0.33158  0.05796  Biso   1.000  O
  O138     1.0000 0.58820  0.25117  0.12909  Biso   1.000  O
  O139     1.0000 0.65840  0.47580  0.76740  Biso   1.000  O
  O140     1.0000 0.48470  0.50531  0.80608  Biso   1.000  O
  O141     1.0000 0.52130  0.50868  0.67421  Biso   1.000  O
  O142     1.0000 0.75040  0.72708  0.71183  Biso   1.000  O
  O143     1.0000 0.71350  0.76540  0.76770  Biso   1.000  O
  O144     1.0000 0.34370  0.27021  0.82517  Biso   1.000  O
  O145     1.0000 0.90930  0.50567  0.50264  Biso   1.000  O
  O146     1.0000 0.84650  0.50871  0.44101  Biso   1.000  O
  O147     1.0000 0.88080  0.48910  0.59840  Biso   1.000  O
  O148     1.0000 0.22300  0.51092  0.43289  Biso   1.000  O
  O149     1.0000 0.69490  0.50260  0.40350  Biso   1.000  O
  O150     1.0000 0.16700  0.51273  0.49825  Biso   1.000  O
  O151     1.0000 0.30460  0.93850  0.03819  Biso   1.000  O
  O152     1.0000 0.39260  0.61227  0.99864  Biso   1.000  O
  O153     1.0000 0.23620  0.93333  0.97883  Biso   1.000  O
  O154     1.0000 0.22570  0.41112  0.03528  Biso   1.000  O
  O155     1.0000 0.85500  0.64078  0.21095  Biso   1.000  O
  O156     1.0000 0.91870  0.81150  0.14460  Biso   1.000  O
  O157     1.0000 0.78750  0.64374  0.15194  Biso   1.000  O
  O158     1.0000 0.76830  0.84050  0.19600  Biso   1.000  O
  O159     1.0000 0.76300  0.78783  0.11983  Biso   1.000  O
  O160     1.0000 0.79230  0.72880  0.08515  Biso   1.000  O
  O161     1.0000 0.65890  0.67970  0.11190  Biso   1.000  O
  O162     1.0000 0.88500  0.29490  0.26011  Biso   1.000  O
  O163     1.0000 0.93590  0.23160  0.24716  Biso   1.000  O
  O164     1.0000 0.77120  0.93270  0.03868  Biso   1.000  O
  O165     1.0000 0.82650  0.93165  0.97440  Biso   1.000  O
  O166     1.0000 0.88040  0.75405  0.76848  Biso   1.000  O
  O167     1.0000 0.92760  0.75232  0.70232  Biso   1.000  O
  O168     1.0000 0.25160  0.77752  0.75162  Biso   1.000  O
  O169     1.0000 0.18850  0.77521  0.68980  Biso   1.000  O
  O170     1.0000 0.34130  0.81560  0.13810  Biso   1.000  O
  O171     1.0000 0.30100  0.75080  0.11989  Biso   1.000  O
  O172     1.0000 0.30530  0.65530  0.25210  Biso   1.000  O
  O173     1.0000 0.31410  0.68004  0.18227  Biso   1.000  O
  O174     1.0000 0.25820  0.49884  0.08139  Biso   1.000  O
  O175     1.0000 0.32420  0.55996  0.07099  Biso   1.000  O
  O176     1.0000 0.18940  0.50395  0.00041  Biso   1.000  O
  O177     1.0000 0.24390  0.56921  0.99193  Biso   1.000  O
  O178     1.0000 0.87100  0.54763  0.95991  Biso   1.000  O
  O179     1.0000 0.93520  0.48683  0.97794  Biso   1.000  O
  O180     1.0000 0.81030  0.53392  0.03940  Biso   1.000  O
  O181     1.0000 0.86290  0.46841  0.05468  Biso   1.000  O
  O182     1.0000 0.08750  0.40400  0.27065  Biso   1.000  O
  O183     1.0000 0.96170  0.79397  0.96951  Biso   1.000  O
  O184     1.0000 0.14020  0.77408  0.99623  Biso   1.000  O
  O185     1.0000 0.03810  0.66842  0.94204  Biso   1.000  O
  O186     1.0000 0.08820  0.74883  0.87091  Biso   1.000  O
  O187     1.0000 0.15840  0.52420  0.23260  Biso   1.000  O
  O188     1.0000 0.98470  0.49469  0.19392  Biso   1.000  O
  O189     1.0000 0.02130  0.49132  0.32579  Biso   1.000  O
  O190     1.0000 0.25040  0.27292  0.28817  Biso   1.000  O
  O191     1.0000 0.21350  0.23460  0.23230  Biso   1.000  O
  O192     1.0000 0.84370  0.72979  0.17483  Biso   1.000  O
