data_image0
_cell_length_a       21.553
_cell_length_b       21.553
_cell_length_c       40.781
_cell_angle_alpha    90
_cell_angle_beta     90
_cell_angle_gamma    90

_symmetry_space_group_name_H-M    P 1
_symmetry_int_tables_number       1

loop_
  _symmetry_equiv_pos_as_xyz
  'x, y, z'

loop_
  _atom_site_label
  _atom_site_occupancy
  _atom_site_fract_x
  _atom_site_fract_y
  _atom_site_fract_z
  _atom_site_thermal_displace_type
  _atom_site_B_iso_or_equiv
  _atom_site_type_symbol
  Zn1      1.0000 0.37999  0.08475  0.37286  Biso   1.000  Zn
  Zn2      1.0000 0.45000  0.96629  0.41538  Biso   1.000  Zn
  Zn3      1.0000 0.94107  0.93670  0.39378  Biso   1.000  Zn
  Zn4      1.0000 0.00875  0.03451  0.33937  Biso   1.000  Zn
  Zn5      1.0000 0.62001  0.91525  0.87286  Biso   1.000  Zn
  Zn6      1.0000 0.55000  0.03371  0.91538  Biso   1.000  Zn
  Zn7      1.0000 0.05893  0.06330  0.89378  Biso   1.000  Zn
  Zn8      1.0000 0.99125  0.96549  0.83937  Biso   1.000  Zn
  Zn9      1.0000 0.41525  0.87999  0.62286  Biso   1.000  Zn
  Zn10     1.0000 0.53371  0.95000  0.66538  Biso   1.000  Zn
  Zn11     1.0000 0.56330  0.44107  0.64378  Biso   1.000  Zn
  Zn12     1.0000 0.46549  0.50875  0.58937  Biso   1.000  Zn
  Zn13     1.0000 0.58475  0.12001  0.12286  Biso   1.000  Zn
  Zn14     1.0000 0.46629  0.05000  0.16538  Biso   1.000  Zn
  Zn15     1.0000 0.43670  0.55893  0.14378  Biso   1.000  Zn
  Zn16     1.0000 0.53451  0.49125  0.08937  Biso   1.000  Zn
  Zn17     1.0000 0.12001  0.58475  0.87714  Biso   1.000  Zn
  Zn18     1.0000 0.05000  0.46629  0.83462  Biso   1.000  Zn
  Zn19     1.0000 0.55893  0.43670  0.85622  Biso   1.000  Zn
  Zn20     1.0000 0.49125  0.53451  0.91063  Biso   1.000  Zn
  Zn21     1.0000 0.87999  0.41525  0.37714  Biso   1.000  Zn
  Zn22     1.0000 0.95000  0.53371  0.33462  Biso   1.000  Zn
  Zn23     1.0000 0.44107  0.56330  0.35622  Biso   1.000  Zn
  Zn24     1.0000 0.50875  0.46549  0.41063  Biso   1.000  Zn
  Zn25     1.0000 0.08475  0.37999  0.62714  Biso   1.000  Zn
  Zn26     1.0000 0.96629  0.45000  0.58462  Biso   1.000  Zn
  Zn27     1.0000 0.93670  0.94107  0.60622  Biso   1.000  Zn
  Zn28     1.0000 0.03451  0.00875  0.66063  Biso   1.000  Zn
  Zn29     1.0000 0.91525  0.62001  0.12714  Biso   1.000  Zn
  Zn30     1.0000 0.03371  0.55000  0.08462  Biso   1.000  Zn
  Zn31     1.0000 0.06330  0.05893  0.10622  Biso   1.000  Zn
  Zn32     1.0000 0.96549  0.99125  0.16063  Biso   1.000  Zn
  H1       1.0000 0.23340  0.77910  0.50380  Biso   1.000  H
  H2       1.0000 0.20980  0.72210  0.52420  Biso   1.000  H
  H3       1.0000 0.08380  0.71410  0.50060  Biso   1.000  H
  H4       1.0000 0.12760  0.65640  0.50490  Biso   1.000  H
  H5       1.0000 0.25310  0.71060  0.45670  Biso   1.000  H
  H6       1.0000 0.19960  0.66750  0.44350  Biso   1.000  H
  H7       1.0000 0.12090  0.80370  0.46320  Biso   1.000  H
  H8       1.0000 0.13440  0.75610  0.43490  Biso   1.000  H
  H9       1.0000 0.28890  0.87760  0.42640  Biso   1.000  H
  H10      1.0000 0.19350  0.00640  0.37710  Biso   1.000  H
  H11      1.0000 0.10460  0.86480  0.42070  Biso   1.000  H
  H12      1.0000 0.26000  0.80910  0.55550  Biso   1.000  H
  H13      1.0000 0.19830  0.92090  0.62530  Biso   1.000  H
  H14      1.0000 0.07890  0.85350  0.55850  Biso   1.000  H
  H15      1.0000 0.03850  0.59650  0.41730  Biso   1.000  H
  H16      1.0000 0.95480  0.46550  0.47050  Biso   1.000  H
  H17      1.0000 0.05110  0.60070  0.51540  Biso   1.000  H
  H18      1.0000 0.29970  0.59850  0.53210  Biso   1.000  H
  H19      1.0000 0.44860  0.53900  0.47990  Biso   1.000  H
  H20      1.0000 0.30410  0.61810  0.43390  Biso   1.000  H
  H21      1.0000 0.76660  0.22090  0.00380  Biso   1.000  H
  H22      1.0000 0.79020  0.27790  0.02420  Biso   1.000  H
  H23      1.0000 0.91620  0.28590  0.00060  Biso   1.000  H
  H24      1.0000 0.87240  0.34360  0.00490  Biso   1.000  H
  H25      1.0000 0.74690  0.28940  0.95670  Biso   1.000  H
  H26      1.0000 0.80040  0.33250  0.94350  Biso   1.000  H
  H27      1.0000 0.87910  0.19630  0.96320  Biso   1.000  H
  H28      1.0000 0.86560  0.24390  0.93490  Biso   1.000  H
  H29      1.0000 0.71110  0.12240  0.92640  Biso   1.000  H
  H30      1.0000 0.80650  0.99360  0.87710  Biso   1.000  H
  H31      1.0000 0.89540  0.13520  0.92070  Biso   1.000  H
  H32      1.0000 0.74000  0.19090  0.05550  Biso   1.000  H
  H33      1.0000 0.80170  0.07910  0.12530  Biso   1.000  H
  H34      1.0000 0.92110  0.14650  0.05850  Biso   1.000  H
  H35      1.0000 0.96150  0.40350  0.91730  Biso   1.000  H
  H36      1.0000 0.04520  0.53450  0.97050  Biso   1.000  H
  H37      1.0000 0.94890  0.39930  0.01540  Biso   1.000  H
  H38      1.0000 0.70030  0.40150  0.03210  Biso   1.000  H
  H39      1.0000 0.55140  0.46100  0.97990  Biso   1.000  H
  H40      1.0000 0.69590  0.38190  0.93390  Biso   1.000  H
  H41      1.0000 0.72090  0.73340  0.75380  Biso   1.000  H
  H42      1.0000 0.77790  0.70980  0.77420  Biso   1.000  H
  H43      1.0000 0.78590  0.58380  0.75060  Biso   1.000  H
  H44      1.0000 0.84360  0.62760  0.75490  Biso   1.000  H
  H45      1.0000 0.78940  0.75310  0.70670  Biso   1.000  H
  H46      1.0000 0.83250  0.69960  0.69350  Biso   1.000  H
  H47      1.0000 0.69630  0.62090  0.71320  Biso   1.000  H
  H48      1.0000 0.74390  0.63440  0.68490  Biso   1.000  H
  H49      1.0000 0.62240  0.78890  0.67640  Biso   1.000  H
  H50      1.0000 0.49360  0.69350  0.62710  Biso   1.000  H
  H51      1.0000 0.63520  0.60460  0.67070  Biso   1.000  H
  H52      1.0000 0.69090  0.76000  0.80550  Biso   1.000  H
  H53      1.0000 0.57910  0.69830  0.87530  Biso   1.000  H
  H54      1.0000 0.64650  0.57890  0.80850  Biso   1.000  H
  H55      1.0000 0.90350  0.53850  0.66730  Biso   1.000  H
  H56      1.0000 0.03450  0.45480  0.72050  Biso   1.000  H
  H57      1.0000 0.89930  0.55110  0.76540  Biso   1.000  H
  H58      1.0000 0.90150  0.79970  0.78210  Biso   1.000  H
  H59      1.0000 0.96100  0.94860  0.72990  Biso   1.000  H
  H60      1.0000 0.88190  0.80410  0.68390  Biso   1.000  H
  H61      1.0000 0.27910  0.26660  0.25380  Biso   1.000  H
  H62      1.0000 0.22210  0.29020  0.27420  Biso   1.000  H
  H63      1.0000 0.21410  0.41620  0.25060  Biso   1.000  H
  H64      1.0000 0.15640  0.37240  0.25490  Biso   1.000  H
  H65      1.0000 0.21060  0.24690  0.20670  Biso   1.000  H
  H66      1.0000 0.16750  0.30040  0.19350  Biso   1.000  H
  H67      1.0000 0.30370  0.37910  0.21320  Biso   1.000  H
  H68      1.0000 0.25610  0.36560  0.18490  Biso   1.000  H
  H69      1.0000 0.37760  0.21110  0.17640  Biso   1.000  H
  H70      1.0000 0.50640  0.30650  0.12710  Biso   1.000  H
  H71      1.0000 0.36480  0.39540  0.17070  Biso   1.000  H
  H72      1.0000 0.30910  0.24000  0.30550  Biso   1.000  H
  H73      1.0000 0.42090  0.30170  0.37530  Biso   1.000  H
  H74      1.0000 0.35350  0.42110  0.30850  Biso   1.000  H
  H75      1.0000 0.09650  0.46150  0.16730  Biso   1.000  H
  H76      1.0000 0.96550  0.54520  0.22050  Biso   1.000  H
  H77      1.0000 0.10070  0.44890  0.26540  Biso   1.000  H
  H78      1.0000 0.09850  0.20030  0.28210  Biso   1.000  H
  H79      1.0000 0.03900  0.05140  0.22990  Biso   1.000  H
  H80      1.0000 0.11810  0.19590  0.18390  Biso   1.000  H
  H81      1.0000 0.26660  0.27910  0.74620  Biso   1.000  H
  H82      1.0000 0.29020  0.22210  0.72580  Biso   1.000  H
  H83      1.0000 0.41620  0.21410  0.74940  Biso   1.000  H
  H84      1.0000 0.37240  0.15640  0.74510  Biso   1.000  H
  H85      1.0000 0.24690  0.21060  0.79330  Biso   1.000  H
  H86      1.0000 0.30040  0.16750  0.80650  Biso   1.000  H
  H87      1.0000 0.37910  0.30370  0.78680  Biso   1.000  H
  H88      1.0000 0.36560  0.25610  0.81510  Biso   1.000  H
  H89      1.0000 0.21110  0.37760  0.82360  Biso   1.000  H
  H90      1.0000 0.30650  0.50640  0.87290  Biso   1.000  H
  H91      1.0000 0.39540  0.36480  0.82930  Biso   1.000  H
  H92      1.0000 0.24000  0.30910  0.69450  Biso   1.000  H
  H93      1.0000 0.30170  0.42090  0.62470  Biso   1.000  H
  H94      1.0000 0.42110  0.35350  0.69150  Biso   1.000  H
  H95      1.0000 0.46150  0.09650  0.83270  Biso   1.000  H
  H96      1.0000 0.54520  0.96550  0.77950  Biso   1.000  H
  H97      1.0000 0.44890  0.10070  0.73460  Biso   1.000  H
  H98      1.0000 0.20030  0.09850  0.71790  Biso   1.000  H
  H99      1.0000 0.05140  0.03900  0.77010  Biso   1.000  H
  H100     1.0000 0.19590  0.11810  0.81610  Biso   1.000  H
  H101     1.0000 0.73340  0.72090  0.24620  Biso   1.000  H
  H102     1.0000 0.70980  0.77790  0.22580  Biso   1.000  H
  H103     1.0000 0.58380  0.78590  0.24940  Biso   1.000  H
  H104     1.0000 0.62760  0.84360  0.24510  Biso   1.000  H
  H105     1.0000 0.75310  0.78940  0.29330  Biso   1.000  H
  H106     1.0000 0.69960  0.83250  0.30650  Biso   1.000  H
  H107     1.0000 0.62090  0.69630  0.28680  Biso   1.000  H
  H108     1.0000 0.63440  0.74390  0.31510  Biso   1.000  H
  H109     1.0000 0.78890  0.62240  0.32360  Biso   1.000  H
  H110     1.0000 0.69350  0.49360  0.37290  Biso   1.000  H
  H111     1.0000 0.60460  0.63520  0.32930  Biso   1.000  H
  H112     1.0000 0.76000  0.69090  0.19450  Biso   1.000  H
  H113     1.0000 0.69830  0.57910  0.12470  Biso   1.000  H
  H114     1.0000 0.57890  0.64650  0.19150  Biso   1.000  H
  H115     1.0000 0.53850  0.90350  0.33270  Biso   1.000  H
  H116     1.0000 0.45480  0.03450  0.27950  Biso   1.000  H
  H117     1.0000 0.55110  0.89930  0.23460  Biso   1.000  H
  H118     1.0000 0.79970  0.90150  0.21790  Biso   1.000  H
  H119     1.0000 0.94860  0.96100  0.27010  Biso   1.000  H
  H120     1.0000 0.80410  0.88190  0.31610  Biso   1.000  H
  H121     1.0000 0.77910  0.23340  0.49620  Biso   1.000  H
  H122     1.0000 0.72210  0.20980  0.47580  Biso   1.000  H
  H123     1.0000 0.71410  0.08380  0.49940  Biso   1.000  H
  H124     1.0000 0.65640  0.12760  0.49510  Biso   1.000  H
  H125     1.0000 0.71060  0.25310  0.54330  Biso   1.000  H
  H126     1.0000 0.66750  0.19960  0.55650  Biso   1.000  H
  H127     1.0000 0.80370  0.12090  0.53680  Biso   1.000  H
  H128     1.0000 0.75610  0.13440  0.56510  Biso   1.000  H
  H129     1.0000 0.87760  0.28890  0.57360  Biso   1.000  H
  H130     1.0000 0.00640  0.19350  0.62290  Biso   1.000  H
  H131     1.0000 0.86480  0.10460  0.57930  Biso   1.000  H
  H132     1.0000 0.80910  0.26000  0.44450  Biso   1.000  H
  H133     1.0000 0.92090  0.19830  0.37470  Biso   1.000  H
  H134     1.0000 0.85350  0.07890  0.44150  Biso   1.000  H
  H135     1.0000 0.59650  0.03850  0.58270  Biso   1.000  H
  H136     1.0000 0.46550  0.95480  0.52950  Biso   1.000  H
  H137     1.0000 0.60070  0.05110  0.48460  Biso   1.000  H
  H138     1.0000 0.59850  0.29970  0.46790  Biso   1.000  H
  H139     1.0000 0.53900  0.44860  0.52010  Biso   1.000  H
  H140     1.0000 0.61810  0.30410  0.56610  Biso   1.000  H
  H141     1.0000 0.22090  0.76660  0.99620  Biso   1.000  H
  H142     1.0000 0.27790  0.79020  0.97580  Biso   1.000  H
  H143     1.0000 0.28590  0.91620  0.99940  Biso   1.000  H
  H144     1.0000 0.34360  0.87240  0.99510  Biso   1.000  H
  H145     1.0000 0.28940  0.74690  0.04330  Biso   1.000  H
  H146     1.0000 0.33250  0.80040  0.05650  Biso   1.000  H
  H147     1.0000 0.19630  0.87910  0.03680  Biso   1.000  H
  H148     1.0000 0.24390  0.86560  0.06510  Biso   1.000  H
  H149     1.0000 0.12240  0.71110  0.07360  Biso   1.000  H
  H150     1.0000 0.99360  0.80650  0.12290  Biso   1.000  H
  H151     1.0000 0.13520  0.89540  0.07930  Biso   1.000  H
  H152     1.0000 0.19090  0.74000  0.94450  Biso   1.000  H
  H153     1.0000 0.07910  0.80170  0.87470  Biso   1.000  H
  H154     1.0000 0.14650  0.92110  0.94150  Biso   1.000  H
  H155     1.0000 0.40350  0.96150  0.08270  Biso   1.000  H
  H156     1.0000 0.53450  0.04520  0.02950  Biso   1.000  H
  H157     1.0000 0.39930  0.94890  0.98460  Biso   1.000  H
  H158     1.0000 0.40150  0.70030  0.96790  Biso   1.000  H
  H159     1.0000 0.46100  0.55140  0.02010  Biso   1.000  H
  H160     1.0000 0.38190  0.69590  0.06610  Biso   1.000  H
  C1       1.0000 0.16960  0.72750  0.47921  Biso   1.000  C
  C2       1.0000 0.19700  0.75500  0.50947  Biso   1.000  C
  C3       1.0000 0.11410  0.68810  0.48963  Biso   1.000  C
  C4       1.0000 0.21690  0.68660  0.46295  Biso   1.000  C
  C5       1.0000 0.15190  0.77600  0.45410  Biso   1.000  C
  C6       1.0000 0.19640  0.86220  0.42784  Biso   1.000  C
  C7       1.0000 0.25070  0.89340  0.41985  Biso   1.000  C
  C8       1.0000 0.24810  0.94840  0.40203  Biso   1.000  C
  C9       1.0000 0.31380  0.98170  0.39722  Biso   1.000  C
  C10      1.0000 0.19410  0.97050  0.38979  Biso   1.000  C
  C11      1.0000 0.13970  0.93850  0.39664  Biso   1.000  C
  C12      1.0000 0.14140  0.88530  0.41586  Biso   1.000  C
  C13      1.0000 0.08000  0.96070  0.38640  Biso   1.000  C
  C14      1.0000 0.16810  0.82700  0.55268  Biso   1.000  C
  C15      1.0000 0.22770  0.83040  0.56557  Biso   1.000  C
  C16      1.0000 0.23890  0.86580  0.59344  Biso   1.000  C
  C17      1.0000 0.30780  0.87160  0.60870  Biso   1.000  C
  C18      1.0000 0.19100  0.89610  0.60703  Biso   1.000  C
  C19      1.0000 0.13080  0.89190  0.59493  Biso   1.000  C
  C20      1.0000 0.11880  0.85670  0.56708  Biso   1.000  C
  C21      1.0000 0.07630  0.92480  0.60987  Biso   1.000  C
  C22      1.0000 0.04680  0.60950  0.46624  Biso   1.000  C
  C23      1.0000 0.02680  0.58070  0.43763  Biso   1.000  C
  C24      1.0000 0.98940  0.52830  0.43936  Biso   1.000  C
  C25      1.0000 0.96810  0.50270  0.40595  Biso   1.000  C
  C26      1.0000 0.97750  0.50210  0.46932  Biso   1.000  C
  C27      1.0000 0.99920  0.52960  0.49796  Biso   1.000  C
  C28      1.0000 0.03510  0.58300  0.49635  Biso   1.000  C
  C29      1.0000 0.98600  0.50320  0.53152  Biso   1.000  C
  C30      1.0000 0.29050  0.61270  0.48330  Biso   1.000  C
  C31      1.0000 0.31930  0.59300  0.51198  Biso   1.000  C
  C32      1.0000 0.37730  0.56500  0.51059  Biso   1.000  C
  C33      1.0000 0.40380  0.54670  0.54320  Biso   1.000  C
  C34      1.0000 0.40900  0.55610  0.48041  Biso   1.000  C
  C35      1.0000 0.37920  0.57390  0.45170  Biso   1.000  C
  C36      1.0000 0.32210  0.60370  0.45322  Biso   1.000  C
  C37      1.0000 0.40750  0.56350  0.41870  Biso   1.000  C
  C38      1.0000 0.47450  0.11600  0.42320  Biso   1.000  C
  C39      1.0000 0.39280  0.13320  0.47400  Biso   1.000  C
  C40      1.0000 0.50520  0.17960  0.46570  Biso   1.000  C
  C41      1.0000 0.52990  0.12960  0.40325  Biso   1.000  C
  C42      1.0000 0.83040  0.27250  0.97921  Biso   1.000  C
  C43      1.0000 0.80300  0.24500  0.00947  Biso   1.000  C
  C44      1.0000 0.88590  0.31190  0.98963  Biso   1.000  C
  C45      1.0000 0.78310  0.31340  0.96295  Biso   1.000  C
  C46      1.0000 0.84810  0.22400  0.95410  Biso   1.000  C
  C47      1.0000 0.80360  0.13780  0.92784  Biso   1.000  C
  C48      1.0000 0.74930  0.10660  0.91985  Biso   1.000  C
  C49      1.0000 0.75190  0.05160  0.90203  Biso   1.000  C
  C50      1.0000 0.68620  0.01830  0.89722  Biso   1.000  C
  C51      1.0000 0.80590  0.02950  0.88979  Biso   1.000  C
  C52      1.0000 0.86030  0.06150  0.89664  Biso   1.000  C
  C53      1.0000 0.85860  0.11470  0.91586  Biso   1.000  C
  C54      1.0000 0.92000  0.03930  0.88640  Biso   1.000  C
  C55      1.0000 0.83190  0.17300  0.05268  Biso   1.000  C
  C56      1.0000 0.77230  0.16960  0.06557  Biso   1.000  C
  C57      1.0000 0.76110  0.13420  0.09344  Biso   1.000  C
  C58      1.0000 0.69220  0.12840  0.10870  Biso   1.000  C
  C59      1.0000 0.80900  0.10390  0.10703  Biso   1.000  C
  C60      1.0000 0.86920  0.10810  0.09493  Biso   1.000  C
  C61      1.0000 0.88120  0.14330  0.06708  Biso   1.000  C
  C62      1.0000 0.92370  0.07520  0.10987  Biso   1.000  C
  C63      1.0000 0.95320  0.39050  0.96624  Biso   1.000  C
  C64      1.0000 0.97320  0.41930  0.93763  Biso   1.000  C
  C65      1.0000 0.01060  0.47170  0.93936  Biso   1.000  C
  C66      1.0000 0.03190  0.49730  0.90595  Biso   1.000  C
  C67      1.0000 0.02250  0.49790  0.96932  Biso   1.000  C
  C68      1.0000 0.00080  0.47040  0.99796  Biso   1.000  C
  C69      1.0000 0.96490  0.41700  0.99635  Biso   1.000  C
  C70      1.0000 0.01400  0.49680  0.03152  Biso   1.000  C
  C71      1.0000 0.70950  0.38730  0.98330  Biso   1.000  C
  C72      1.0000 0.68070  0.40700  0.01198  Biso   1.000  C
  C73      1.0000 0.62270  0.43500  0.01059  Biso   1.000  C
  C74      1.0000 0.59620  0.45330  0.04320  Biso   1.000  C
  C75      1.0000 0.59100  0.44390  0.98041  Biso   1.000  C
  C76      1.0000 0.62080  0.42610  0.95170  Biso   1.000  C
  C77      1.0000 0.67790  0.39630  0.95322  Biso   1.000  C
  C78      1.0000 0.59250  0.43650  0.91870  Biso   1.000  C
  C79      1.0000 0.52550  0.88400  0.92320  Biso   1.000  C
  C80      1.0000 0.60720  0.86680  0.97400  Biso   1.000  C
  C81      1.0000 0.49480  0.82040  0.96570  Biso   1.000  C
  C82      1.0000 0.47010  0.87040  0.90325  Biso   1.000  C
  C83      1.0000 0.77250  0.66960  0.72921  Biso   1.000  C
  C84      1.0000 0.74500  0.69700  0.75947  Biso   1.000  C
  C85      1.0000 0.81190  0.61410  0.73963  Biso   1.000  C
  C86      1.0000 0.81340  0.71690  0.71295  Biso   1.000  C
  C87      1.0000 0.72400  0.65190  0.70410  Biso   1.000  C
  C88      1.0000 0.63780  0.69640  0.67784  Biso   1.000  C
  C89      1.0000 0.60660  0.75070  0.66985  Biso   1.000  C
  C90      1.0000 0.55160  0.74810  0.65203  Biso   1.000  C
  C91      1.0000 0.51830  0.81380  0.64722  Biso   1.000  C
  C92      1.0000 0.52950  0.69410  0.63979  Biso   1.000  C
  C93      1.0000 0.56150  0.63970  0.64664  Biso   1.000  C
  C94      1.0000 0.61470  0.64140  0.66586  Biso   1.000  C
  C95      1.0000 0.53930  0.58000  0.63640  Biso   1.000  C
  C96      1.0000 0.67300  0.66810  0.80268  Biso   1.000  C
  C97      1.0000 0.66960  0.72770  0.81557  Biso   1.000  C
  C98      1.0000 0.63420  0.73890  0.84344  Biso   1.000  C
  C99      1.0000 0.62840  0.80780  0.85870  Biso   1.000  C
  C100     1.0000 0.60390  0.69100  0.85703  Biso   1.000  C
  C101     1.0000 0.60810  0.63080  0.84493  Biso   1.000  C
  C102     1.0000 0.64330  0.61880  0.81708  Biso   1.000  C
  C103     1.0000 0.57520  0.57630  0.85987  Biso   1.000  C
  C104     1.0000 0.89050  0.54680  0.71624  Biso   1.000  C
  C105     1.0000 0.91930  0.52680  0.68763  Biso   1.000  C
  C106     1.0000 0.97170  0.48940  0.68936  Biso   1.000  C
  C107     1.0000 0.99730  0.46810  0.65595  Biso   1.000  C
  C108     1.0000 0.99790  0.47750  0.71932  Biso   1.000  C
  C109     1.0000 0.97040  0.49920  0.74796  Biso   1.000  C
  C110     1.0000 0.91700  0.53510  0.74635  Biso   1.000  C
  C111     1.0000 0.99680  0.48600  0.78152  Biso   1.000  C
  C112     1.0000 0.88730  0.79050  0.73330  Biso   1.000  C
  C113     1.0000 0.90700  0.81930  0.76198  Biso   1.000  C
  C114     1.0000 0.93500  0.87730  0.76059  Biso   1.000  C
  C115     1.0000 0.95330  0.90380  0.79320  Biso   1.000  C
  C116     1.0000 0.94390  0.90900  0.73041  Biso   1.000  C
  C117     1.0000 0.92610  0.87920  0.70170  Biso   1.000  C
  C118     1.0000 0.89630  0.82210  0.70322  Biso   1.000  C
  C119     1.0000 0.93650  0.90750  0.66870  Biso   1.000  C
  C120     1.0000 0.38400  0.97450  0.67320  Biso   1.000  C
  C121     1.0000 0.36680  0.89280  0.72400  Biso   1.000  C
  C122     1.0000 0.32040  0.00520  0.71570  Biso   1.000  C
  C123     1.0000 0.37040  0.02990  0.65325  Biso   1.000  C
  C124     1.0000 0.22750  0.33040  0.22921  Biso   1.000  C
  C125     1.0000 0.25500  0.30300  0.25947  Biso   1.000  C
  C126     1.0000 0.18810  0.38590  0.23963  Biso   1.000  C
  C127     1.0000 0.18660  0.28310  0.21295  Biso   1.000  C
  C128     1.0000 0.27600  0.34810  0.20410  Biso   1.000  C
  C129     1.0000 0.36220  0.30360  0.17784  Biso   1.000  C
  C130     1.0000 0.39340  0.24930  0.16985  Biso   1.000  C
  C131     1.0000 0.44840  0.25190  0.15203  Biso   1.000  C
  C132     1.0000 0.48170  0.18620  0.14722  Biso   1.000  C
  C133     1.0000 0.47050  0.30590  0.13979  Biso   1.000  C
  C134     1.0000 0.43850  0.36030  0.14664  Biso   1.000  C
  C135     1.0000 0.38530  0.35860  0.16586  Biso   1.000  C
  C136     1.0000 0.46070  0.42000  0.13640  Biso   1.000  C
  C137     1.0000 0.32700  0.33190  0.30268  Biso   1.000  C
  C138     1.0000 0.33040  0.27230  0.31557  Biso   1.000  C
  C139     1.0000 0.36580  0.26110  0.34344  Biso   1.000  C
  C140     1.0000 0.37160  0.19220  0.35870  Biso   1.000  C
  C141     1.0000 0.39610  0.30900  0.35703  Biso   1.000  C
  C142     1.0000 0.39190  0.36920  0.34493  Biso   1.000  C
  C143     1.0000 0.35670  0.38120  0.31708  Biso   1.000  C
  C144     1.0000 0.42480  0.42370  0.35987  Biso   1.000  C
  C145     1.0000 0.10950  0.45320  0.21624  Biso   1.000  C
  C146     1.0000 0.08070  0.47320  0.18763  Biso   1.000  C
  C147     1.0000 0.02830  0.51060  0.18936  Biso   1.000  C
  C148     1.0000 0.00270  0.53190  0.15595  Biso   1.000  C
  C149     1.0000 0.00210  0.52250  0.21932  Biso   1.000  C
  C150     1.0000 0.02960  0.50080  0.24796  Biso   1.000  C
  C151     1.0000 0.08300  0.46490  0.24635  Biso   1.000  C
  C152     1.0000 0.00320  0.51400  0.28152  Biso   1.000  C
  C153     1.0000 0.11270  0.20950  0.23330  Biso   1.000  C
  C154     1.0000 0.09300  0.18070  0.26198  Biso   1.000  C
  C155     1.0000 0.06500  0.12270  0.26059  Biso   1.000  C
  C156     1.0000 0.04670  0.09620  0.29320  Biso   1.000  C
  C157     1.0000 0.05610  0.09100  0.23041  Biso   1.000  C
  C158     1.0000 0.07390  0.12080  0.20170  Biso   1.000  C
  C159     1.0000 0.10370  0.17790  0.20322  Biso   1.000  C
  C160     1.0000 0.06350  0.09250  0.16870  Biso   1.000  C
  C161     1.0000 0.61600  0.02550  0.17320  Biso   1.000  C
  C162     1.0000 0.63320  0.10720  0.22400  Biso   1.000  C
  C163     1.0000 0.67960  0.99480  0.21570  Biso   1.000  C
  C164     1.0000 0.62960  0.97010  0.15325  Biso   1.000  C
  C165     1.0000 0.33040  0.22750  0.77079  Biso   1.000  C
  C166     1.0000 0.30300  0.25500  0.74053  Biso   1.000  C
  C167     1.0000 0.38590  0.18810  0.76037  Biso   1.000  C
  C168     1.0000 0.28310  0.18660  0.78705  Biso   1.000  C
  C169     1.0000 0.34810  0.27600  0.79590  Biso   1.000  C
  C170     1.0000 0.30360  0.36220  0.82216  Biso   1.000  C
  C171     1.0000 0.24930  0.39340  0.83015  Biso   1.000  C
  C172     1.0000 0.25190  0.44840  0.84797  Biso   1.000  C
  C173     1.0000 0.18620  0.48170  0.85278  Biso   1.000  C
  C174     1.0000 0.30590  0.47050  0.86021  Biso   1.000  C
  C175     1.0000 0.36030  0.43850  0.85336  Biso   1.000  C
  C176     1.0000 0.35860  0.38530  0.83414  Biso   1.000  C
  C177     1.0000 0.42000  0.46070  0.86360  Biso   1.000  C
  C178     1.0000 0.33190  0.32700  0.69732  Biso   1.000  C
  C179     1.0000 0.27230  0.33040  0.68443  Biso   1.000  C
  C180     1.0000 0.26110  0.36580  0.65656  Biso   1.000  C
  C181     1.0000 0.19220  0.37160  0.64130  Biso   1.000  C
  C182     1.0000 0.30900  0.39610  0.64297  Biso   1.000  C
  C183     1.0000 0.36920  0.39190  0.65507  Biso   1.000  C
  C184     1.0000 0.38120  0.35670  0.68292  Biso   1.000  C
  C185     1.0000 0.42370  0.42480  0.64013  Biso   1.000  C
  C186     1.0000 0.45320  0.10950  0.78376  Biso   1.000  C
  C187     1.0000 0.47320  0.08070  0.81237  Biso   1.000  C
  C188     1.0000 0.51060  0.02830  0.81064  Biso   1.000  C
  C189     1.0000 0.53190  0.00270  0.84405  Biso   1.000  C
  C190     1.0000 0.52250  0.00210  0.78068  Biso   1.000  C
  C191     1.0000 0.50080  0.02960  0.75204  Biso   1.000  C
  C192     1.0000 0.46490  0.08300  0.75365  Biso   1.000  C
  C193     1.0000 0.51400  0.00320  0.71848  Biso   1.000  C
  C194     1.0000 0.20950  0.11270  0.76670  Biso   1.000  C
  C195     1.0000 0.18070  0.09300  0.73802  Biso   1.000  C
  C196     1.0000 0.12270  0.06500  0.73941  Biso   1.000  C
  C197     1.0000 0.09620  0.04670  0.70680  Biso   1.000  C
  C198     1.0000 0.09100  0.05610  0.76959  Biso   1.000  C
  C199     1.0000 0.12080  0.07390  0.79830  Biso   1.000  C
  C200     1.0000 0.17790  0.10370  0.79678  Biso   1.000  C
  C201     1.0000 0.09250  0.06350  0.83130  Biso   1.000  C
  C202     1.0000 0.02550  0.61600  0.82680  Biso   1.000  C
  C203     1.0000 0.10720  0.63320  0.77600  Biso   1.000  C
  C204     1.0000 0.99480  0.67960  0.78430  Biso   1.000  C
  C205     1.0000 0.97010  0.62960  0.84675  Biso   1.000  C
  C206     1.0000 0.66960  0.77250  0.27079  Biso   1.000  C
  C207     1.0000 0.69700  0.74500  0.24053  Biso   1.000  C
  C208     1.0000 0.61410  0.81190  0.26037  Biso   1.000  C
  C209     1.0000 0.71690  0.81340  0.28705  Biso   1.000  C
  C210     1.0000 0.65190  0.72400  0.29590  Biso   1.000  C
  C211     1.0000 0.69640  0.63780  0.32216  Biso   1.000  C
  C212     1.0000 0.75070  0.60660  0.33015  Biso   1.000  C
  C213     1.0000 0.74810  0.55160  0.34797  Biso   1.000  C
  C214     1.0000 0.81380  0.51830  0.35278  Biso   1.000  C
  C215     1.0000 0.69410  0.52950  0.36021  Biso   1.000  C
  C216     1.0000 0.63970  0.56150  0.35336  Biso   1.000  C
  C217     1.0000 0.64140  0.61470  0.33414  Biso   1.000  C
  C218     1.0000 0.58000  0.53930  0.36360  Biso   1.000  C
  C219     1.0000 0.66810  0.67300  0.19732  Biso   1.000  C
  C220     1.0000 0.72770  0.66960  0.18443  Biso   1.000  C
  C221     1.0000 0.73890  0.63420  0.15656  Biso   1.000  C
  C222     1.0000 0.80780  0.62840  0.14130  Biso   1.000  C
  C223     1.0000 0.69100  0.60390  0.14297  Biso   1.000  C
  C224     1.0000 0.63080  0.60810  0.15507  Biso   1.000  C
  C225     1.0000 0.61880  0.64330  0.18292  Biso   1.000  C
  C226     1.0000 0.57630  0.57520  0.14013  Biso   1.000  C
  C227     1.0000 0.54680  0.89050  0.28376  Biso   1.000  C
  C228     1.0000 0.52680  0.91930  0.31237  Biso   1.000  C
  C229     1.0000 0.48940  0.97170  0.31064  Biso   1.000  C
  C230     1.0000 0.46810  0.99730  0.34405  Biso   1.000  C
  C231     1.0000 0.47750  0.99790  0.28068  Biso   1.000  C
  C232     1.0000 0.49920  0.97040  0.25204  Biso   1.000  C
  C233     1.0000 0.53510  0.91700  0.25365  Biso   1.000  C
  C234     1.0000 0.48600  0.99680  0.21848  Biso   1.000  C
  C235     1.0000 0.79050  0.88730  0.26670  Biso   1.000  C
  C236     1.0000 0.81930  0.90700  0.23802  Biso   1.000  C
  C237     1.0000 0.87730  0.93500  0.23941  Biso   1.000  C
  C238     1.0000 0.90380  0.95330  0.20680  Biso   1.000  C
  C239     1.0000 0.90900  0.94390  0.26959  Biso   1.000  C
  C240     1.0000 0.87920  0.92610  0.29830  Biso   1.000  C
  C241     1.0000 0.82210  0.89630  0.29678  Biso   1.000  C
  C242     1.0000 0.90750  0.93650  0.33130  Biso   1.000  C
  C243     1.0000 0.97450  0.38400  0.32680  Biso   1.000  C
  C244     1.0000 0.89280  0.36680  0.27600  Biso   1.000  C
  C245     1.0000 0.00520  0.32040  0.28430  Biso   1.000  C
  C246     1.0000 0.02990  0.37040  0.34675  Biso   1.000  C
  C247     1.0000 0.72750  0.16960  0.52079  Biso   1.000  C
  C248     1.0000 0.75500  0.19700  0.49053  Biso   1.000  C
  C249     1.0000 0.68810  0.11410  0.51037  Biso   1.000  C
  C250     1.0000 0.68660  0.21690  0.53705  Biso   1.000  C
  C251     1.0000 0.77600  0.15190  0.54590  Biso   1.000  C
  C252     1.0000 0.86220  0.19640  0.57216  Biso   1.000  C
  C253     1.0000 0.89340  0.25070  0.58015  Biso   1.000  C
  C254     1.0000 0.94840  0.24810  0.59797  Biso   1.000  C
  C255     1.0000 0.98170  0.31380  0.60278  Biso   1.000  C
  C256     1.0000 0.97050  0.19410  0.61021  Biso   1.000  C
  C257     1.0000 0.93850  0.13970  0.60336  Biso   1.000  C
  C258     1.0000 0.88530  0.14140  0.58414  Biso   1.000  C
  C259     1.0000 0.96070  0.08000  0.61360  Biso   1.000  C
  C260     1.0000 0.82700  0.16810  0.44732  Biso   1.000  C
  C261     1.0000 0.83040  0.22770  0.43443  Biso   1.000  C
  C262     1.0000 0.86580  0.23890  0.40656  Biso   1.000  C
  C263     1.0000 0.87160  0.30780  0.39130  Biso   1.000  C
  C264     1.0000 0.89610  0.19100  0.39297  Biso   1.000  C
  C265     1.0000 0.89190  0.13080  0.40507  Biso   1.000  C
  C266     1.0000 0.85670  0.11880  0.43292  Biso   1.000  C
  C267     1.0000 0.92480  0.07630  0.39013  Biso   1.000  C
  C268     1.0000 0.60950  0.04680  0.53376  Biso   1.000  C
  C269     1.0000 0.58070  0.02680  0.56237  Biso   1.000  C
  C270     1.0000 0.52830  0.98940  0.56064  Biso   1.000  C
  C271     1.0000 0.50270  0.96810  0.59405  Biso   1.000  C
  C272     1.0000 0.50210  0.97750  0.53068  Biso   1.000  C
  C273     1.0000 0.52960  0.99920  0.50204  Biso   1.000  C
  C274     1.0000 0.58300  0.03510  0.50365  Biso   1.000  C
  C275     1.0000 0.50320  0.98600  0.46848  Biso   1.000  C
  C276     1.0000 0.61270  0.29050  0.51670  Biso   1.000  C
  C277     1.0000 0.59300  0.31930  0.48802  Biso   1.000  C
  C278     1.0000 0.56500  0.37730  0.48941  Biso   1.000  C
  C279     1.0000 0.54670  0.40380  0.45680  Biso   1.000  C
  C280     1.0000 0.55610  0.40900  0.51959  Biso   1.000  C
  C281     1.0000 0.57390  0.37920  0.54830  Biso   1.000  C
  C282     1.0000 0.60370  0.32210  0.54678  Biso   1.000  C
  C283     1.0000 0.56350  0.40750  0.58130  Biso   1.000  C
  C284     1.0000 0.11600  0.47450  0.57680  Biso   1.000  C
  C285     1.0000 0.13320  0.39280  0.52600  Biso   1.000  C
  C286     1.0000 0.17960  0.50520  0.53430  Biso   1.000  C
  C287     1.0000 0.12960  0.52990  0.59675  Biso   1.000  C
  C288     1.0000 0.27250  0.83040  0.02079  Biso   1.000  C
  C289     1.0000 0.24500  0.80300  0.99053  Biso   1.000  C
  C290     1.0000 0.31190  0.88590  0.01037  Biso   1.000  C
  C291     1.0000 0.31340  0.78310  0.03705  Biso   1.000  C
  C292     1.0000 0.22400  0.84810  0.04590  Biso   1.000  C
  C293     1.0000 0.13780  0.80360  0.07216  Biso   1.000  C
  C294     1.0000 0.10660  0.74930  0.08015  Biso   1.000  C
  C295     1.0000 0.05160  0.75190  0.09797  Biso   1.000  C
  C296     1.0000 0.01830  0.68620  0.10278  Biso   1.000  C
  C297     1.0000 0.02950  0.80590  0.11021  Biso   1.000  C
  C298     1.0000 0.06150  0.86030  0.10336  Biso   1.000  C
  C299     1.0000 0.11470  0.85860  0.08414  Biso   1.000  C
  C300     1.0000 0.03930  0.92000  0.11360  Biso   1.000  C
  C301     1.0000 0.17300  0.83190  0.94732  Biso   1.000  C
  C302     1.0000 0.16960  0.77230  0.93443  Biso   1.000  C
  C303     1.0000 0.13420  0.76110  0.90656  Biso   1.000  C
  C304     1.0000 0.12840  0.69220  0.89130  Biso   1.000  C
  C305     1.0000 0.10390  0.80900  0.89297  Biso   1.000  C
  C306     1.0000 0.10810  0.86920  0.90507  Biso   1.000  C
  C307     1.0000 0.14330  0.88120  0.93292  Biso   1.000  C
  C308     1.0000 0.07520  0.92370  0.89013  Biso   1.000  C
  C309     1.0000 0.39050  0.95320  0.03376  Biso   1.000  C
  C310     1.0000 0.41930  0.97320  0.06237  Biso   1.000  C
  C311     1.0000 0.47170  0.01060  0.06064  Biso   1.000  C
  C312     1.0000 0.49730  0.03190  0.09405  Biso   1.000  C
  C313     1.0000 0.49790  0.02250  0.03068  Biso   1.000  C
  C314     1.0000 0.47040  0.00080  0.00204  Biso   1.000  C
  C315     1.0000 0.41700  0.96490  0.00365  Biso   1.000  C
  C316     1.0000 0.49680  0.01400  0.96848  Biso   1.000  C
  C317     1.0000 0.38730  0.70950  0.01670  Biso   1.000  C
  C318     1.0000 0.40700  0.68070  0.98802  Biso   1.000  C
  C319     1.0000 0.43500  0.62270  0.98941  Biso   1.000  C
  C320     1.0000 0.45330  0.59620  0.95680  Biso   1.000  C
  C321     1.0000 0.44390  0.59100  0.01959  Biso   1.000  C
  C322     1.0000 0.42610  0.62080  0.04830  Biso   1.000  C
  C323     1.0000 0.39630  0.67790  0.04678  Biso   1.000  C
  C324     1.0000 0.43650  0.59250  0.08130  Biso   1.000  C
  C325     1.0000 0.88400  0.52550  0.07680  Biso   1.000  C
  C326     1.0000 0.86680  0.60720  0.02600  Biso   1.000  C
  C327     1.0000 0.82040  0.49480  0.03430  Biso   1.000  C
  C328     1.0000 0.87040  0.47010  0.09675  Biso   1.000  C
  N1       1.0000 0.45270  0.13590  0.45560  Biso   1.000  N
  N2       1.0000 0.54730  0.86410  0.95560  Biso   1.000  N
  N3       1.0000 0.36410  0.95270  0.70560  Biso   1.000  N
  N4       1.0000 0.63590  0.04730  0.20560  Biso   1.000  N
  N5       1.0000 0.04730  0.63590  0.79440  Biso   1.000  N
  N6       1.0000 0.95270  0.36410  0.29440  Biso   1.000  N
  N7       1.0000 0.13590  0.45270  0.54440  Biso   1.000  N
  N8       1.0000 0.86410  0.54730  0.04440  Biso   1.000  N
  O1       1.0000 0.36230  0.95810  0.40801  Biso   1.000  O
  O2       1.0000 0.30730  0.03660  0.38268  Biso   1.000  O
  O3       1.0000 0.46520  0.86860  0.41594  Biso   1.000  O
  O4       1.0000 0.99580  0.53020  0.55668  Biso   1.000  O
  O5       1.0000 0.96920  0.44730  0.53226  Biso   1.000  O
  O6       1.0000 0.90250  0.90070  0.43446  Biso   1.000  O
  O7       1.0000 0.07820  0.00520  0.36509  Biso   1.000  O
  O8       1.0000 0.03080  0.93780  0.39631  Biso   1.000  O
  O9       1.0000 0.37950  0.55440  0.56802  Biso   1.000  O
  O10      1.0000 0.45910  0.52250  0.54077  Biso   1.000  O
  O11      1.0000 0.92740  0.45830  0.40950  Biso   1.000  O
  O12      1.0000 0.98200  0.52760  0.38019  Biso   1.000  O
  O13      1.0000 0.08690  0.95460  0.63616  Biso   1.000  O
  O14      1.0000 0.02520  0.91950  0.59592  Biso   1.000  O
  O15      1.0000 0.38300  0.57960  0.39243  Biso   1.000  O
  O16      1.0000 0.45870  0.54320  0.41842  Biso   1.000  O
  O17      1.0000 0.34450  0.84360  0.59541  Biso   1.000  O
  O18      1.0000 0.31630  0.90010  0.63102  Biso   1.000  O
  O19      1.0000 0.43030  0.07415  0.41501  Biso   1.000  O
  O20      1.0000 0.20450  0.80980  0.44526  Biso   1.000  O
  O21      1.0000 0.15300  0.79380  0.52545  Biso   1.000  O
  O22      1.0000 0.23360  0.64000  0.48653  Biso   1.000  O
  O23      1.0000 0.08640  0.65960  0.46168  Biso   1.000  O
  O24      1.0000 0.63770  0.04190  0.90801  Biso   1.000  O
  O25      1.0000 0.69270  0.96340  0.88268  Biso   1.000  O
  O26      1.0000 0.53480  0.13140  0.91594  Biso   1.000  O
  O27      1.0000 0.00420  0.46980  0.05668  Biso   1.000  O
  O28      1.0000 0.03080  0.55270  0.03226  Biso   1.000  O
  O29      1.0000 0.09750  0.09930  0.93446  Biso   1.000  O
  O30      1.0000 0.92180  0.99480  0.86509  Biso   1.000  O
  O31      1.0000 0.96920  0.06220  0.89631  Biso   1.000  O
  O32      1.0000 0.62050  0.44560  0.06802  Biso   1.000  O
  O33      1.0000 0.54090  0.47750  0.04077  Biso   1.000  O
  O34      1.0000 0.07260  0.54170  0.90950  Biso   1.000  O
  O35      1.0000 0.01800  0.47240  0.88019  Biso   1.000  O
  O36      1.0000 0.91310  0.04540  0.13616  Biso   1.000  O
  O37      1.0000 0.97480  0.08050  0.09592  Biso   1.000  O
  O38      1.0000 0.61700  0.42040  0.89243  Biso   1.000  O
  O39      1.0000 0.54130  0.45680  0.91842  Biso   1.000  O
  O40      1.0000 0.65550  0.15640  0.09541  Biso   1.000  O
  O41      1.0000 0.68370  0.09990  0.13102  Biso   1.000  O
  O42      1.0000 0.56970  0.92585  0.91501  Biso   1.000  O
  O43      1.0000 0.79550  0.19020  0.94526  Biso   1.000  O
  O44      1.0000 0.84700  0.20620  0.02545  Biso   1.000  O
  O45      1.0000 0.76640  0.36000  0.98653  Biso   1.000  O
  O46      1.0000 0.91360  0.34040  0.96168  Biso   1.000  O
  O47      1.0000 0.54190  0.86230  0.65801  Biso   1.000  O
  O48      1.0000 0.46340  0.80730  0.63268  Biso   1.000  O
  O49      1.0000 0.63140  0.96520  0.66594  Biso   1.000  O
  O50      1.0000 0.96980  0.49580  0.80668  Biso   1.000  O
  O51      1.0000 0.05270  0.46920  0.78226  Biso   1.000  O
  O52      1.0000 0.59930  0.40250  0.68446  Biso   1.000  O
  O53      1.0000 0.49480  0.57820  0.61509  Biso   1.000  O
  O54      1.0000 0.56220  0.53080  0.64631  Biso   1.000  O
  O55      1.0000 0.94560  0.87950  0.81802  Biso   1.000  O
  O56      1.0000 0.97750  0.95910  0.79077  Biso   1.000  O
  O57      1.0000 0.04170  0.42740  0.65950  Biso   1.000  O
  O58      1.0000 0.97240  0.48200  0.63019  Biso   1.000  O
  O59      1.0000 0.54540  0.58690  0.88616  Biso   1.000  O
  O60      1.0000 0.58050  0.52520  0.84592  Biso   1.000  O
  O61      1.0000 0.92040  0.88300  0.64243  Biso   1.000  O
  O62      1.0000 0.95680  0.95870  0.66842  Biso   1.000  O
  O63      1.0000 0.65640  0.84450  0.84541  Biso   1.000  O
  O64      1.0000 0.59990  0.81630  0.88102  Biso   1.000  O
  O65      1.0000 0.42585  0.93030  0.66501  Biso   1.000  O
  O66      1.0000 0.69020  0.70450  0.69526  Biso   1.000  O
  O67      1.0000 0.70620  0.65300  0.77545  Biso   1.000  O
  O68      1.0000 0.86000  0.73360  0.73653  Biso   1.000  O
  O69      1.0000 0.84040  0.58640  0.71168  Biso   1.000  O
  O70      1.0000 0.45810  0.13770  0.15801  Biso   1.000  O
  O71      1.0000 0.53660  0.19270  0.13268  Biso   1.000  O
  O72      1.0000 0.36860  0.03480  0.16594  Biso   1.000  O
  O73      1.0000 0.03020  0.50420  0.30668  Biso   1.000  O
  O74      1.0000 0.94730  0.53080  0.28226  Biso   1.000  O
  O75      1.0000 0.40070  0.59750  0.18446  Biso   1.000  O
  O76      1.0000 0.50520  0.42180  0.11509  Biso   1.000  O
  O77      1.0000 0.43780  0.46920  0.14631  Biso   1.000  O
  O78      1.0000 0.05440  0.12050  0.31802  Biso   1.000  O
  O79      1.0000 0.02250  0.04090  0.29077  Biso   1.000  O
  O80      1.0000 0.95830  0.57260  0.15950  Biso   1.000  O
  O81      1.0000 0.02760  0.51800  0.13019  Biso   1.000  O
  O82      1.0000 0.45460  0.41310  0.38616  Biso   1.000  O
  O83      1.0000 0.41950  0.47480  0.34592  Biso   1.000  O
  O84      1.0000 0.07960  0.11700  0.14243  Biso   1.000  O
  O85      1.0000 0.04320  0.04130  0.16842  Biso   1.000  O
  O86      1.0000 0.34360  0.15550  0.34541  Biso   1.000  O
  O87      1.0000 0.40010  0.18370  0.38102  Biso   1.000  O
  O88      1.0000 0.57415  0.06970  0.16501  Biso   1.000  O
  O89      1.0000 0.30980  0.29550  0.19526  Biso   1.000  O
  O90      1.0000 0.29380  0.34700  0.27545  Biso   1.000  O
  O91      1.0000 0.14000  0.26640  0.23653  Biso   1.000  O
  O92      1.0000 0.15960  0.41360  0.21168  Biso   1.000  O
  O93      1.0000 0.13770  0.45810  0.84199  Biso   1.000  O
  O94      1.0000 0.19270  0.53660  0.86732  Biso   1.000  O
  O95      1.0000 0.03480  0.36860  0.83406  Biso   1.000  O
  O96      1.0000 0.50420  0.03020  0.69332  Biso   1.000  O
  O97      1.0000 0.53080  0.94730  0.71774  Biso   1.000  O
  O98      1.0000 0.59750  0.40070  0.81554  Biso   1.000  O
  O99      1.0000 0.42180  0.50520  0.88491  Biso   1.000  O
  O100     1.0000 0.46920  0.43780  0.85369  Biso   1.000  O
  O101     1.0000 0.12050  0.05440  0.68198  Biso   1.000  O
  O102     1.0000 0.04090  0.02250  0.70923  Biso   1.000  O
  O103     1.0000 0.57260  0.95830  0.84050  Biso   1.000  O
  O104     1.0000 0.51800  0.02760  0.86981  Biso   1.000  O
  O105     1.0000 0.41310  0.45460  0.61384  Biso   1.000  O
  O106     1.0000 0.47480  0.41950  0.65408  Biso   1.000  O
  O107     1.0000 0.11700  0.07960  0.85757  Biso   1.000  O
  O108     1.0000 0.04130  0.04320  0.83158  Biso   1.000  O
  O109     1.0000 0.15550  0.34360  0.65459  Biso   1.000  O
  O110     1.0000 0.18370  0.40010  0.61898  Biso   1.000  O
  O111     1.0000 0.06970  0.57415  0.83499  Biso   1.000  O
  O112     1.0000 0.29550  0.30980  0.80474  Biso   1.000  O
  O113     1.0000 0.34700  0.29380  0.72455  Biso   1.000  O
  O114     1.0000 0.26640  0.14000  0.76347  Biso   1.000  O
  O115     1.0000 0.41360  0.15960  0.78832  Biso   1.000  O
  O116     1.0000 0.86230  0.54190  0.34199  Biso   1.000  O
  O117     1.0000 0.80730  0.46340  0.36732  Biso   1.000  O
  O118     1.0000 0.96520  0.63140  0.33406  Biso   1.000  O
  O119     1.0000 0.49580  0.96980  0.19332  Biso   1.000  O
  O120     1.0000 0.46920  0.05270  0.21774  Biso   1.000  O
  O121     1.0000 0.40250  0.59930  0.31554  Biso   1.000  O
  O122     1.0000 0.57820  0.49480  0.38491  Biso   1.000  O
  O123     1.0000 0.53080  0.56220  0.35369  Biso   1.000  O
  O124     1.0000 0.87950  0.94560  0.18198  Biso   1.000  O
  O125     1.0000 0.95910  0.97750  0.20923  Biso   1.000  O
  O126     1.0000 0.42740  0.04170  0.34050  Biso   1.000  O
  O127     1.0000 0.48200  0.97240  0.36981  Biso   1.000  O
  O128     1.0000 0.58690  0.54540  0.11384  Biso   1.000  O
  O129     1.0000 0.52520  0.58050  0.15408  Biso   1.000  O
  O130     1.0000 0.88300  0.92040  0.35757  Biso   1.000  O
  O131     1.0000 0.95870  0.95680  0.33158  Biso   1.000  O
  O132     1.0000 0.84450  0.65640  0.15459  Biso   1.000  O
  O133     1.0000 0.81630  0.59990  0.11898  Biso   1.000  O
  O134     1.0000 0.93030  0.42585  0.33499  Biso   1.000  O
  O135     1.0000 0.70450  0.69020  0.30474  Biso   1.000  O
  O136     1.0000 0.65300  0.70620  0.22455  Biso   1.000  O
  O137     1.0000 0.73360  0.86000  0.26347  Biso   1.000  O
  O138     1.0000 0.58640  0.84040  0.28832  Biso   1.000  O
  O139     1.0000 0.95810  0.36230  0.59199  Biso   1.000  O
  O140     1.0000 0.03660  0.30730  0.61732  Biso   1.000  O
  O141     1.0000 0.86860  0.46520  0.58406  Biso   1.000  O
  O142     1.0000 0.53020  0.99580  0.44332  Biso   1.000  O
  O143     1.0000 0.44730  0.96920  0.46774  Biso   1.000  O
  O144     1.0000 0.90070  0.90250  0.56554  Biso   1.000  O
  O145     1.0000 0.00520  0.07820  0.63491  Biso   1.000  O
  O146     1.0000 0.93780  0.03080  0.60369  Biso   1.000  O
  O147     1.0000 0.55440  0.37950  0.43198  Biso   1.000  O
  O148     1.0000 0.52250  0.45910  0.45923  Biso   1.000  O
  O149     1.0000 0.45830  0.92740  0.59050  Biso   1.000  O
  O150     1.0000 0.52760  0.98200  0.61981  Biso   1.000  O
  O151     1.0000 0.95460  0.08690  0.36384  Biso   1.000  O
  O152     1.0000 0.91950  0.02520  0.40408  Biso   1.000  O
  O153     1.0000 0.57960  0.38300  0.60757  Biso   1.000  O
  O154     1.0000 0.54320  0.45870  0.58158  Biso   1.000  O
  O155     1.0000 0.84360  0.34450  0.40459  Biso   1.000  O
  O156     1.0000 0.90010  0.31630  0.36898  Biso   1.000  O
  O157     1.0000 0.07415  0.43030  0.58499  Biso   1.000  O
  O158     1.0000 0.80980  0.20450  0.55474  Biso   1.000  O
  O159     1.0000 0.79380  0.15300  0.47455  Biso   1.000  O
  O160     1.0000 0.64000  0.23360  0.51347  Biso   1.000  O
  O161     1.0000 0.65960  0.08640  0.53832  Biso   1.000  O
  O162     1.0000 0.04190  0.63770  0.09199  Biso   1.000  O
  O163     1.0000 0.96340  0.69270  0.11732  Biso   1.000  O
  O164     1.0000 0.13140  0.53480  0.08406  Biso   1.000  O
  O165     1.0000 0.46980  0.00420  0.94332  Biso   1.000  O
  O166     1.0000 0.55270  0.03080  0.96774  Biso   1.000  O
  O167     1.0000 0.09930  0.09750  0.06554  Biso   1.000  O
  O168     1.0000 0.99480  0.92180  0.13491  Biso   1.000  O
  O169     1.0000 0.06220  0.96920  0.10369  Biso   1.000  O
  O170     1.0000 0.44560  0.62050  0.93198  Biso   1.000  O
  O171     1.0000 0.47750  0.54090  0.95923  Biso   1.000  O
  O172     1.0000 0.54170  0.07260  0.09050  Biso   1.000  O
  O173     1.0000 0.47240  0.01800  0.11981  Biso   1.000  O
  O174     1.0000 0.04540  0.91310  0.86384  Biso   1.000  O
  O175     1.0000 0.08050  0.97480  0.90408  Biso   1.000  O
  O176     1.0000 0.42040  0.61700  0.10757  Biso   1.000  O
  O177     1.0000 0.45680  0.54130  0.08158  Biso   1.000  O
  O178     1.0000 0.15640  0.65550  0.90459  Biso   1.000  O
  O179     1.0000 0.09990  0.68370  0.86898  Biso   1.000  O
  O180     1.0000 0.92585  0.56970  0.08499  Biso   1.000  O
  O181     1.0000 0.19020  0.79550  0.05474  Biso   1.000  O
  O182     1.0000 0.20620  0.84700  0.97455  Biso   1.000  O
  O183     1.0000 0.36000  0.76640  0.01347  Biso   1.000  O
  O184     1.0000 0.34040  0.91360  0.03832  Biso   1.000  O
