data_image0
_cell_length_a       35.4945
_cell_length_b       35.4945
_cell_length_c       35.4945
_cell_angle_alpha    109.471
_cell_angle_beta     109.471
_cell_angle_gamma    109.471

_symmetry_space_group_name_H-M    P 1
_symmetry_int_tables_number       1

loop_
  _symmetry_equiv_pos_as_xyz
  'x, y, z'

loop_
  _atom_site_label
  _atom_site_occupancy
  _atom_site_fract_x
  _atom_site_fract_y
  _atom_site_fract_z
  _atom_site_thermal_displace_type
  _atom_site_B_iso_or_equiv
  _atom_site_type_symbol
  Zn1      1.0000 0.40606  0.60185  0.65532  Biso   1.000  Zn
  Zn2      1.0000 0.44654  0.75075  0.84468  Biso   1.000  Zn
  Zn3      1.0000 0.05346  0.89814  0.30420  Biso   1.000  Zn
  Zn4      1.0000 0.09394  0.74926  0.19580  Biso   1.000  Zn
  Zn5      1.0000 0.80421  0.05347  0.39815  Biso   1.000  Zn
  Zn6      1.0000 0.69579  0.09393  0.24925  Biso   1.000  Zn
  Zn7      1.0000 0.15532  0.40606  0.10186  Biso   1.000  Zn
  Zn8      1.0000 0.34468  0.44654  0.25074  Biso   1.000  Zn
  Zn9      1.0000 0.75074  0.34468  0.94653  Biso   1.000  Zn
  Zn10     1.0000 0.60186  0.15532  0.90607  Biso   1.000  Zn
  Zn11     1.0000 0.74926  0.69580  0.59394  Biso   1.000  Zn
  Zn12     1.0000 0.89814  0.80420  0.55346  Biso   1.000  Zn
  Zn13     1.0000 0.25074  0.94653  0.34468  Biso   1.000  Zn
  Zn14     1.0000 0.10186  0.90607  0.15532  Biso   1.000  Zn
  Zn15     1.0000 0.24926  0.59394  0.69580  Biso   1.000  Zn
  Zn16     1.0000 0.39814  0.55346  0.80420  Biso   1.000  Zn
  Zn17     1.0000 0.90606  0.65532  0.60185  Biso   1.000  Zn
  Zn18     1.0000 0.94654  0.84468  0.75075  Biso   1.000  Zn
  Zn19     1.0000 0.55346  0.30420  0.89814  Biso   1.000  Zn
  Zn20     1.0000 0.59394  0.19580  0.74926  Biso   1.000  Zn
  Zn21     1.0000 0.30421  0.39815  0.05347  Biso   1.000  Zn
  Zn22     1.0000 0.19579  0.24925  0.09393  Biso   1.000  Zn
  Zn23     1.0000 0.65532  0.10186  0.40606  Biso   1.000  Zn
  Zn24     1.0000 0.84468  0.25074  0.44654  Biso   1.000  Zn
  Zn25     1.0000 0.50000  0.64852  0.50000  Biso   1.000  Zn
  Zn26     1.0000 0.50000  0.48022  0.50000  Biso   1.000  Zn
  Zn27     1.0000 0.64852  0.00000  0.00000  Biso   1.000  Zn
  Zn28     1.0000 0.48022  0.00000  0.00000  Biso   1.000  Zn
  Zn29     1.0000 0.85148  0.85148  0.35148  Biso   1.000  Zn
  Zn30     1.0000 0.01978  0.01978  0.51978  Biso   1.000  Zn
  Zn31     1.0000 0.00000  0.50000  0.14852  Biso   1.000  Zn
  Zn32     1.0000 1.00000  0.50000  0.98022  Biso   1.000  Zn
  Zn33     1.0000 0.50000  0.14852  0.50000  Biso   1.000  Zn
  Zn34     1.0000 0.50000  0.98022  0.50000  Biso   1.000  Zn
  Zn35     1.0000 0.14852  0.00000  0.00000  Biso   1.000  Zn
  Zn36     1.0000 0.98022  0.00000  0.00000  Biso   1.000  Zn
  Zn37     1.0000 0.00000  0.50000  0.64852  Biso   1.000  Zn
  Zn38     1.0000 0.00000  0.50000  0.48022  Biso   1.000  Zn
  Zn39     1.0000 0.35148  0.35148  0.85148  Biso   1.000  Zn
  Zn40     1.0000 0.51978  0.51978  0.01978  Biso   1.000  Zn
  Fe1      1.0000 0.37912  0.52198  0.49922  Biso   1.000  Fe
  Fe2      1.0000 0.28227  0.46736  0.63745  Biso   1.000  Fe
  Fe3      1.0000 0.52276  0.87990  0.00078  Biso   1.000  Fe
  Fe4      1.0000 0.32991  0.64482  0.86255  Biso   1.000  Fe
  Fe5      1.0000 0.97724  0.97802  0.35714  Biso   1.000  Fe
  Fe6      1.0000 0.17009  0.03264  0.31491  Biso   1.000  Fe
  Fe7      1.0000 0.12088  0.62010  0.14286  Biso   1.000  Fe
  Fe8      1.0000 0.21773  0.85518  0.18509  Biso   1.000  Fe
  Fe9      1.0000 0.85714  0.97724  0.47802  Biso   1.000  Fe
  Fe10     1.0000 0.81491  0.17009  0.53264  Biso   1.000  Fe
  Fe11     1.0000 0.64286  0.12088  0.12010  Biso   1.000  Fe
  Fe12     1.0000 0.68509  0.21773  0.35518  Biso   1.000  Fe
  Fe13     1.0000 0.99922  0.37912  0.02198  Biso   1.000  Fe
  Fe14     1.0000 0.13745  0.28227  0.96736  Biso   1.000  Fe
  Fe15     1.0000 0.50078  0.52276  0.37990  Biso   1.000  Fe
  Fe16     1.0000 0.36255  0.32991  0.14482  Biso   1.000  Fe
  Fe17     1.0000 0.87990  0.50078  0.02276  Biso   1.000  Fe
  Fe18     1.0000 0.64482  0.36255  0.82991  Biso   1.000  Fe
  Fe19     1.0000 0.52198  0.99922  0.87912  Biso   1.000  Fe
  Fe20     1.0000 0.46736  0.13745  0.78227  Biso   1.000  Fe
  Fe21     1.0000 0.62010  0.64286  0.62088  Biso   1.000  Fe
  Fe22     1.0000 0.85518  0.68509  0.71773  Biso   1.000  Fe
  Fe23     1.0000 0.97802  0.85714  0.47724  Biso   1.000  Fe
  Fe24     1.0000 0.03264  0.81491  0.67009  Biso   1.000  Fe
  Fe25     1.0000 0.37990  0.02276  0.50078  Biso   1.000  Fe
  Fe26     1.0000 0.14482  0.82991  0.36255  Biso   1.000  Fe
  Fe27     1.0000 0.02198  0.87912  0.99922  Biso   1.000  Fe
  Fe28     1.0000 0.96736  0.78227  0.13745  Biso   1.000  Fe
  Fe29     1.0000 0.12010  0.62088  0.64286  Biso   1.000  Fe
  Fe30     1.0000 0.35518  0.71773  0.68509  Biso   1.000  Fe
  Fe31     1.0000 0.47802  0.47724  0.85714  Biso   1.000  Fe
  Fe32     1.0000 0.53264  0.67009  0.81491  Biso   1.000  Fe
  Fe33     1.0000 0.87912  0.49922  0.52198  Biso   1.000  Fe
  Fe34     1.0000 0.78227  0.63745  0.46736  Biso   1.000  Fe
  Fe35     1.0000 0.02276  0.00078  0.87990  Biso   1.000  Fe
  Fe36     1.0000 0.82991  0.86255  0.64482  Biso   1.000  Fe
  Fe37     1.0000 0.47724  0.35714  0.97802  Biso   1.000  Fe
  Fe38     1.0000 0.67009  0.31491  0.03264  Biso   1.000  Fe
  Fe39     1.0000 0.62088  0.14286  0.62010  Biso   1.000  Fe
  Fe40     1.0000 0.71773  0.18509  0.85518  Biso   1.000  Fe
  Fe41     1.0000 0.35714  0.47802  0.97724  Biso   1.000  Fe
  Fe42     1.0000 0.31491  0.53264  0.17009  Biso   1.000  Fe
  Fe43     1.0000 0.14286  0.12010  0.12088  Biso   1.000  Fe
  Fe44     1.0000 0.18509  0.35518  0.21773  Biso   1.000  Fe
  Fe45     1.0000 0.49922  0.02198  0.37912  Biso   1.000  Fe
  Fe46     1.0000 0.63745  0.96736  0.28227  Biso   1.000  Fe
  Fe47     1.0000 0.00078  0.37990  0.52276  Biso   1.000  Fe
  Fe48     1.0000 0.86255  0.14482  0.32991  Biso   1.000  Fe
  B1       1.0000 0.21750  0.36330  0.56480  Biso   1.000  B
  B2       1.0000 0.27620  0.45430  0.42970  Biso   1.000  B
  B3       1.0000 0.29850  0.65270  0.93520  Biso   1.000  B
  B4       1.0000 0.52460  0.84650  0.07030  Biso   1.000  B
  B5       1.0000 0.20150  0.13670  0.35420  Biso   1.000  B
  B6       1.0000 0.97540  0.04570  0.32190  Biso   1.000  B
  B7       1.0000 0.28250  0.84730  0.14580  Biso   1.000  B
  B8       1.0000 0.22380  0.65350  0.17810  Biso   1.000  B
  B9       1.0000 0.85420  0.20150  0.63670  Biso   1.000  B
  B10      1.0000 0.82190  0.97540  0.54570  Biso   1.000  B
  B11      1.0000 0.64580  0.28250  0.34730  Biso   1.000  B
  B12      1.0000 0.67810  0.22380  0.15350  Biso   1.000  B
  B13      1.0000 0.06480  0.21750  0.86330  Biso   1.000  B
  B14      1.0000 0.92970  0.27620  0.95430  Biso   1.000  B
  B15      1.0000 0.43520  0.29850  0.15270  Biso   1.000  B
  B16      1.0000 0.57030  0.52460  0.34650  Biso   1.000  B
  B17      1.0000 0.65270  0.43520  0.79850  Biso   1.000  B
  B18      1.0000 0.84650  0.57030  0.02460  Biso   1.000  B
  B19      1.0000 0.36330  0.06480  0.71750  Biso   1.000  B
  B20      1.0000 0.45430  0.92970  0.77620  Biso   1.000  B
  B21      1.0000 0.84730  0.64580  0.78250  Biso   1.000  B
  B22      1.0000 0.65350  0.67810  0.72380  Biso   1.000  B
  B23      1.0000 0.13670  0.85420  0.70150  Biso   1.000  B
  B24      1.0000 0.04570  0.82190  0.47540  Biso   1.000  B
  B25      1.0000 0.15270  0.79850  0.43520  Biso   1.000  B
  B26      1.0000 0.34650  0.02460  0.57030  Biso   1.000  B
  B27      1.0000 0.86330  0.71750  0.06480  Biso   1.000  B
  B28      1.0000 0.95430  0.77620  0.92970  Biso   1.000  B
  B29      1.0000 0.34730  0.78250  0.64580  Biso   1.000  B
  B30      1.0000 0.15350  0.72380  0.67810  Biso   1.000  B
  B31      1.0000 0.63670  0.70150  0.85420  Biso   1.000  B
  B32      1.0000 0.54570  0.47540  0.82190  Biso   1.000  B
  B33      1.0000 0.71750  0.56480  0.36330  Biso   1.000  B
  B34      1.0000 0.77620  0.42970  0.45430  Biso   1.000  B
  B35      1.0000 0.79850  0.93520  0.65270  Biso   1.000  B
  B36      1.0000 0.02460  0.07030  0.84650  Biso   1.000  B
  B37      1.0000 0.70150  0.35420  0.13670  Biso   1.000  B
  B38      1.0000 0.47540  0.32190  0.04570  Biso   1.000  B
  B39      1.0000 0.78250  0.14580  0.84730  Biso   1.000  B
  B40      1.0000 0.72380  0.17810  0.65350  Biso   1.000  B
  B41      1.0000 0.35420  0.63670  0.20150  Biso   1.000  B
  B42      1.0000 0.32190  0.54570  0.97540  Biso   1.000  B
  B43      1.0000 0.14580  0.34730  0.28250  Biso   1.000  B
  B44      1.0000 0.17810  0.15350  0.22380  Biso   1.000  B
  B45      1.0000 0.56480  0.86330  0.21750  Biso   1.000  B
  B46      1.0000 0.42970  0.95430  0.27620  Biso   1.000  B
  B47      1.0000 0.93520  0.15270  0.29850  Biso   1.000  B
  B48      1.0000 0.07030  0.34650  0.52460  Biso   1.000  B
  H1       1.0000 0.19670  0.33020  0.54150  Biso   1.000  H
  H2       1.0000 0.27400  0.31970  0.55550  Biso   1.000  H
  H3       1.0000 0.35810  0.37180  0.60610  Biso   1.000  H
  H4       1.0000 0.37100  0.45070  0.65070  Biso   1.000  H
  H5       1.0000 0.15700  0.32050  0.59590  Biso   1.000  H
  H6       1.0000 0.16410  0.37370  0.66740  Biso   1.000  H
  H7       1.0000 0.22820  0.45150  0.69470  Biso   1.000  H
  H8       1.0000 0.16420  0.35420  0.47580  Biso   1.000  H
  H9       1.0000 0.18160  0.42780  0.47440  Biso   1.000  H
  H10      1.0000 0.24340  0.49060  0.55480  Biso   1.000  H
  H11      1.0000 0.24310  0.43240  0.40710  Biso   1.000  H
  H12      1.0000 0.35110  0.60700  0.52110  Biso   1.000  H
  H13      1.0000 0.24400  0.38210  0.45410  Biso   1.000  H
  H14      1.0000 0.29930  0.39260  0.52350  Biso   1.000  H
  H15      1.0000 0.37260  0.46450  0.55510  Biso   1.000  H
  H16      1.0000 0.26470  0.41120  0.33610  Biso   1.000  H
  H17      1.0000 0.33730  0.43760  0.33330  Biso   1.000  H
  H18      1.0000 0.40060  0.49130  0.41350  Biso   1.000  H
  H19      1.0000 0.28870  0.65520  0.95850  Biso   1.000  H
  H20      1.0000 0.26420  0.71850  0.94450  Biso   1.000  H
  H21      1.0000 0.26570  0.75200  0.89390  Biso   1.000  H
  H22      1.0000 0.30000  0.72030  0.84930  Biso   1.000  H
  H23      1.0000 0.22460  0.56110  0.90410  Biso   1.000  H
  H24      1.0000 0.20630  0.49670  0.83260  Biso   1.000  H
  H25      1.0000 0.25680  0.53350  0.80530  Biso   1.000  H
  H26      1.0000 0.37840  0.68840  0.02420  Biso   1.000  H
  H27      1.0000 0.45340  0.70720  0.02560  Biso   1.000  H
  H28      1.0000 0.43580  0.68860  0.94520  Biso   1.000  H
  H29      1.0000 0.52530  0.83600  0.09290  Biso   1.000  H
  H30      1.0000 0.58590  0.83000  0.97890  Biso   1.000  H
  H31      1.0000 0.42800  0.78990  0.04590  Biso   1.000  H
  H32      1.0000 0.36910  0.77580  0.97650  Biso   1.000  H
  H33      1.0000 0.40940  0.81750  0.94490  Biso   1.000  H
  H34      1.0000 0.57510  0.92860  0.16390  Biso   1.000  H
  H35      1.0000 0.60430  0.00400  0.16670  Biso   1.000  H
  H36      1.0000 0.57780  0.98710  0.08650  Biso   1.000  H
  H37      1.0000 0.21130  0.16980  0.36650  Biso   1.000  H
  H38      1.0000 0.23580  0.18030  0.45430  Biso   1.000  H
  H39      1.0000 0.23430  0.12820  0.48630  Biso   1.000  H
  H40      1.0000 0.20000  0.04930  0.42030  Biso   1.000  H
  H41      1.0000 0.27540  0.17950  0.33650  Biso   1.000  H
  H42      1.0000 0.29370  0.12630  0.29040  Biso   1.000  H
  H43      1.0000 0.24320  0.04850  0.27670  Biso   1.000  H
  H44      1.0000 0.12160  0.14580  0.31000  Biso   1.000  H
  H45      1.0000 0.04660  0.07220  0.25380  Biso   1.000  H
  H46      1.0000 0.06420  0.00940  0.25280  Biso   1.000  H
  H47      1.0000 0.97470  0.06760  0.31070  Biso   1.000  H
  H48      1.0000 0.91410  0.89300  0.24410  Biso   1.000  H
  H49      1.0000 0.07200  0.11790  0.36190  Biso   1.000  H
  H50      1.0000 0.13090  0.10740  0.40670  Biso   1.000  H
  H51      1.0000 0.09060  0.03550  0.40810  Biso   1.000  H
  H52      1.0000 0.92490  0.08880  0.35350  Biso   1.000  H
  H53      1.0000 0.89570  0.06240  0.39970  Biso   1.000  H
  H54      1.0000 0.92220  0.00870  0.40930  Biso   1.000  H
  H55      1.0000 0.30330  0.84480  0.13350  Biso   1.000  H
  H56      1.0000 0.22600  0.78150  0.04570  Biso   1.000  H
  H57      1.0000 0.14190  0.74800  0.01370  Biso   1.000  H
  H58      1.0000 0.12900  0.77970  0.07970  Biso   1.000  H
  H59      1.0000 0.34300  0.93890  0.16350  Biso   1.000  H
  H60      1.0000 0.33590  0.00330  0.20960  Biso   1.000  H
  H61      1.0000 0.27180  0.96650  0.22330  Biso   1.000  H
  H62      1.0000 0.33580  0.81160  0.19000  Biso   1.000  H
  H63      1.0000 0.31840  0.79280  0.24620  Biso   1.000  H
  H64      1.0000 0.25660  0.81140  0.24720  Biso   1.000  H
  H65      1.0000 0.25690  0.66400  0.18930  Biso   1.000  H
  H66      1.0000 0.14890  0.67000  0.25590  Biso   1.000  H
  H67      1.0000 0.25600  0.71010  0.13810  Biso   1.000  H
  H68      1.0000 0.20070  0.72420  0.09330  Biso   1.000  H
  H69      1.0000 0.12740  0.68250  0.09190  Biso   1.000  H
  H70      1.0000 0.23530  0.57140  0.14650  Biso   1.000  H
  H71      1.0000 0.16270  0.49600  0.10030  Biso   1.000  H
  H72      1.0000 0.09940  0.51290  0.09070  Biso   1.000  H
  H73      1.0000 0.86650  0.21130  0.66980  Biso   1.000  H
  H74      1.0000 0.95430  0.23580  0.68030  Biso   1.000  H
  H75      1.0000 0.98630  0.23430  0.62820  Biso   1.000  H
  H76      1.0000 0.92030  0.20000  0.54930  Biso   1.000  H
  H77      1.0000 0.83650  0.27540  0.67950  Biso   1.000  H
  H78      1.0000 0.79040  0.29370  0.62630  Biso   1.000  H
  H79      1.0000 0.77670  0.24320  0.54850  Biso   1.000  H
  H80      1.0000 0.81000  0.12160  0.64580  Biso   1.000  H
  H81      1.0000 0.75380  0.04660  0.57220  Biso   1.000  H
  H82      1.0000 0.75280  0.06420  0.50940  Biso   1.000  H
  H83      1.0000 0.81070  0.97470  0.56760  Biso   1.000  H
  H84      1.0000 0.74410  0.91410  0.39300  Biso   1.000  H
  H85      1.0000 0.86190  0.07200  0.61790  Biso   1.000  H
  H86      1.0000 0.90670  0.13090  0.60740  Biso   1.000  H
  H87      1.0000 0.90810  0.09060  0.53550  Biso   1.000  H
  H88      1.0000 0.85350  0.92490  0.58880  Biso   1.000  H
  H89      1.0000 0.89970  0.89570  0.56240  Biso   1.000  H
  H90      1.0000 0.90930  0.92220  0.50870  Biso   1.000  H
  H91      1.0000 0.63350  0.30330  0.34480  Biso   1.000  H
  H92      1.0000 0.54570  0.22600  0.28150  Biso   1.000  H
  H93      1.0000 0.51370  0.14190  0.24800  Biso   1.000  H
  H94      1.0000 0.57970  0.12900  0.27970  Biso   1.000  H
  H95      1.0000 0.66350  0.34300  0.43890  Biso   1.000  H
  H96      1.0000 0.70960  0.33590  0.50330  Biso   1.000  H
  H97      1.0000 0.72330  0.27180  0.46650  Biso   1.000  H
  H98      1.0000 0.69000  0.33580  0.31160  Biso   1.000  H
  H99      1.0000 0.74620  0.31840  0.29280  Biso   1.000  H
  H100     1.0000 0.74720  0.25660  0.31140  Biso   1.000  H
  H101     1.0000 0.68930  0.25690  0.16400  Biso   1.000  H
  H102     1.0000 0.75590  0.14890  0.17000  Biso   1.000  H
  H103     1.0000 0.63810  0.25600  0.21010  Biso   1.000  H
  H104     1.0000 0.59330  0.20070  0.22420  Biso   1.000  H
  H105     1.0000 0.59190  0.12740  0.18250  Biso   1.000  H
  H106     1.0000 0.64650  0.23530  0.07140  Biso   1.000  H
  H107     1.0000 0.60030  0.16270  0.99600  Biso   1.000  H
  H108     1.0000 0.59070  0.09940  0.01290  Biso   1.000  H
  H109     1.0000 0.04150  0.19670  0.83020  Biso   1.000  H
  H110     1.0000 0.05550  0.27400  0.81970  Biso   1.000  H
  H111     1.0000 0.10610  0.35810  0.87180  Biso   1.000  H
  H112     1.0000 0.15070  0.37100  0.95070  Biso   1.000  H
  H113     1.0000 0.09590  0.15700  0.82050  Biso   1.000  H
  H114     1.0000 0.16740  0.16410  0.87370  Biso   1.000  H
  H115     1.0000 0.19470  0.22820  0.95150  Biso   1.000  H
  H116     1.0000 0.97580  0.16420  0.85420  Biso   1.000  H
  H117     1.0000 0.97440  0.18160  0.92780  Biso   1.000  H
  H118     1.0000 0.05480  0.24340  0.99060  Biso   1.000  H
  H119     1.0000 0.90710  0.24310  0.93240  Biso   1.000  H
  H120     1.0000 0.02110  0.35110  0.10700  Biso   1.000  H
  H121     1.0000 0.95410  0.24400  0.88210  Biso   1.000  H
  H122     1.0000 0.02350  0.29930  0.89260  Biso   1.000  H
  H123     1.0000 0.05510  0.37260  0.96450  Biso   1.000  H
  H124     1.0000 0.83610  0.26470  0.91120  Biso   1.000  H
  H125     1.0000 0.83330  0.33730  0.93760  Biso   1.000  H
  H126     1.0000 0.91350  0.40060  0.99130  Biso   1.000  H
  H127     1.0000 0.45850  0.28870  0.15520  Biso   1.000  H
  H128     1.0000 0.44450  0.26420  0.21850  Biso   1.000  H
  H129     1.0000 0.39390  0.26570  0.25200  Biso   1.000  H
  H130     1.0000 0.34930  0.30000  0.22030  Biso   1.000  H
  H131     1.0000 0.40410  0.22460  0.06110  Biso   1.000  H
  H132     1.0000 0.33260  0.20630  0.99670  Biso   1.000  H
  H133     1.0000 0.30530  0.25680  0.03350  Biso   1.000  H
  H134     1.0000 0.52420  0.37840  0.18840  Biso   1.000  H
  H135     1.0000 0.52560  0.45340  0.20720  Biso   1.000  H
  H136     1.0000 0.44520  0.43580  0.18860  Biso   1.000  H
  H137     1.0000 0.59290  0.52530  0.33600  Biso   1.000  H
  H138     1.0000 0.47890  0.58590  0.33000  Biso   1.000  H
  H139     1.0000 0.54590  0.42800  0.28990  Biso   1.000  H
  H140     1.0000 0.47650  0.36910  0.27580  Biso   1.000  H
  H141     1.0000 0.44490  0.40940  0.31750  Biso   1.000  H
  H142     1.0000 0.66390  0.57510  0.42860  Biso   1.000  H
  H143     1.0000 0.66670  0.60430  0.50400  Biso   1.000  H
  H144     1.0000 0.58650  0.57780  0.48710  Biso   1.000  H
  H145     1.0000 0.65520  0.45850  0.78870  Biso   1.000  H
  H146     1.0000 0.71850  0.44450  0.76420  Biso   1.000  H
  H147     1.0000 0.75200  0.39390  0.76570  Biso   1.000  H
  H148     1.0000 0.72030  0.34930  0.80000  Biso   1.000  H
  H149     1.0000 0.56110  0.40410  0.72460  Biso   1.000  H
  H150     1.0000 0.49670  0.33260  0.70630  Biso   1.000  H
  H151     1.0000 0.53350  0.30530  0.75680  Biso   1.000  H
  H152     1.0000 0.68840  0.52420  0.87840  Biso   1.000  H
  H153     1.0000 0.70720  0.52560  0.95340  Biso   1.000  H
  H154     1.0000 0.68860  0.44520  0.93580  Biso   1.000  H
  H155     1.0000 0.83600  0.59290  0.02530  Biso   1.000  H
  H156     1.0000 0.83000  0.47890  0.08590  Biso   1.000  H
  H157     1.0000 0.78990  0.54590  0.92800  Biso   1.000  H
  H158     1.0000 0.77580  0.47650  0.86910  Biso   1.000  H
  H159     1.0000 0.81750  0.44490  0.90940  Biso   1.000  H
  H160     1.0000 0.92860  0.66390  0.07510  Biso   1.000  H
  H161     1.0000 0.00400  0.66670  0.10430  Biso   1.000  H
  H162     1.0000 0.98710  0.58650  0.07780  Biso   1.000  H
  H163     1.0000 0.33020  0.04150  0.69670  Biso   1.000  H
  H164     1.0000 0.31970  0.05550  0.77400  Biso   1.000  H
  H165     1.0000 0.37180  0.10610  0.85810  Biso   1.000  H
  H166     1.0000 0.45070  0.15070  0.87100  Biso   1.000  H
  H167     1.0000 0.32050  0.09590  0.65700  Biso   1.000  H
  H168     1.0000 0.37370  0.16740  0.66410  Biso   1.000  H
  H169     1.0000 0.45150  0.19470  0.72820  Biso   1.000  H
  H170     1.0000 0.35420  0.97580  0.66420  Biso   1.000  H
  H171     1.0000 0.42780  0.97440  0.68160  Biso   1.000  H
  H172     1.0000 0.49060  0.05480  0.74340  Biso   1.000  H
  H173     1.0000 0.43240  0.90710  0.74310  Biso   1.000  H
  H174     1.0000 0.60700  0.02110  0.85110  Biso   1.000  H
  H175     1.0000 0.38210  0.95410  0.74400  Biso   1.000  H
  H176     1.0000 0.39260  0.02350  0.79930  Biso   1.000  H
  H177     1.0000 0.46450  0.05510  0.87260  Biso   1.000  H
  H178     1.0000 0.41120  0.83610  0.76470  Biso   1.000  H
  H179     1.0000 0.43760  0.83330  0.83730  Biso   1.000  H
  H180     1.0000 0.49130  0.91350  0.90060  Biso   1.000  H
  H181     1.0000 0.84480  0.63350  0.80330  Biso   1.000  H
  H182     1.0000 0.78150  0.54570  0.72600  Biso   1.000  H
  H183     1.0000 0.74800  0.51370  0.64190  Biso   1.000  H
  H184     1.0000 0.77970  0.57970  0.62900  Biso   1.000  H
  H185     1.0000 0.93890  0.66350  0.84300  Biso   1.000  H
  H186     1.0000 0.00330  0.70960  0.83590  Biso   1.000  H
  H187     1.0000 0.96650  0.72330  0.77180  Biso   1.000  H
  H188     1.0000 0.81160  0.69000  0.83580  Biso   1.000  H
  H189     1.0000 0.79280  0.74620  0.81840  Biso   1.000  H
  H190     1.0000 0.81140  0.74720  0.75660  Biso   1.000  H
  H191     1.0000 0.66400  0.68930  0.75690  Biso   1.000  H
  H192     1.0000 0.67000  0.75590  0.64890  Biso   1.000  H
  H193     1.0000 0.71010  0.63810  0.75600  Biso   1.000  H
  H194     1.0000 0.72420  0.59330  0.70070  Biso   1.000  H
  H195     1.0000 0.68250  0.59190  0.62740  Biso   1.000  H
  H196     1.0000 0.57140  0.64650  0.73530  Biso   1.000  H
  H197     1.0000 0.49600  0.60030  0.66270  Biso   1.000  H
  H198     1.0000 0.51290  0.59070  0.59940  Biso   1.000  H
  H199     1.0000 0.16980  0.86650  0.71130  Biso   1.000  H
  H200     1.0000 0.18030  0.95430  0.73580  Biso   1.000  H
  H201     1.0000 0.12820  0.98630  0.73430  Biso   1.000  H
  H202     1.0000 0.04930  0.92030  0.70000  Biso   1.000  H
  H203     1.0000 0.17950  0.83650  0.77540  Biso   1.000  H
  H204     1.0000 0.12630  0.79040  0.79370  Biso   1.000  H
  H205     1.0000 0.04850  0.77670  0.74320  Biso   1.000  H
  H206     1.0000 0.14580  0.81000  0.62160  Biso   1.000  H
  H207     1.0000 0.07220  0.75380  0.54660  Biso   1.000  H
  H208     1.0000 0.00940  0.75280  0.56420  Biso   1.000  H
  H209     1.0000 0.06760  0.81070  0.47470  Biso   1.000  H
  H210     1.0000 0.89300  0.74410  0.41410  Biso   1.000  H
  H211     1.0000 0.11790  0.86190  0.57200  Biso   1.000  H
  H212     1.0000 0.10740  0.90670  0.63090  Biso   1.000  H
  H213     1.0000 0.03550  0.90810  0.59060  Biso   1.000  H
  H214     1.0000 0.08880  0.85350  0.42490  Biso   1.000  H
  H215     1.0000 0.06240  0.89970  0.39570  Biso   1.000  H
  H216     1.0000 0.00870  0.90930  0.42220  Biso   1.000  H
  H217     1.0000 0.15520  0.78870  0.45850  Biso   1.000  H
  H218     1.0000 0.21850  0.76420  0.44450  Biso   1.000  H
  H219     1.0000 0.25200  0.76570  0.39390  Biso   1.000  H
  H220     1.0000 0.22030  0.80000  0.34930  Biso   1.000  H
  H221     1.0000 0.06110  0.72460  0.40410  Biso   1.000  H
  H222     1.0000 0.99670  0.70630  0.33260  Biso   1.000  H
  H223     1.0000 0.03350  0.75680  0.30530  Biso   1.000  H
  H224     1.0000 0.18840  0.87840  0.52420  Biso   1.000  H
  H225     1.0000 0.20720  0.95340  0.52560  Biso   1.000  H
  H226     1.0000 0.18860  0.93580  0.44520  Biso   1.000  H
  H227     1.0000 0.33600  0.02530  0.59290  Biso   1.000  H
  H228     1.0000 0.33000  0.08590  0.47890  Biso   1.000  H
  H229     1.0000 0.28990  0.92800  0.54590  Biso   1.000  H
  H230     1.0000 0.27580  0.86910  0.47650  Biso   1.000  H
  H231     1.0000 0.31750  0.90940  0.44490  Biso   1.000  H
  H232     1.0000 0.42860  0.07510  0.66390  Biso   1.000  H
  H233     1.0000 0.50400  0.10430  0.66670  Biso   1.000  H
  H234     1.0000 0.48710  0.07780  0.58650  Biso   1.000  H
  H235     1.0000 0.83020  0.69670  0.04150  Biso   1.000  H
  H236     1.0000 0.81970  0.77400  0.05550  Biso   1.000  H
  H237     1.0000 0.87180  0.85810  0.10610  Biso   1.000  H
  H238     1.0000 0.95070  0.87100  0.15070  Biso   1.000  H
  H239     1.0000 0.82050  0.65700  0.09590  Biso   1.000  H
  H240     1.0000 0.87370  0.66410  0.16740  Biso   1.000  H
  H241     1.0000 0.95150  0.72820  0.19470  Biso   1.000  H
  H242     1.0000 0.85420  0.66420  0.97580  Biso   1.000  H
  H243     1.0000 0.92780  0.68160  0.97440  Biso   1.000  H
  H244     1.0000 0.99060  0.74340  0.05480  Biso   1.000  H
  H245     1.0000 0.93240  0.74310  0.90710  Biso   1.000  H
  H246     1.0000 0.10700  0.85110  0.02110  Biso   1.000  H
  H247     1.0000 0.88210  0.74400  0.95410  Biso   1.000  H
  H248     1.0000 0.89260  0.79930  0.02350  Biso   1.000  H
  H249     1.0000 0.96450  0.87260  0.05510  Biso   1.000  H
  H250     1.0000 0.91120  0.76470  0.83610  Biso   1.000  H
  H251     1.0000 0.93760  0.83730  0.83330  Biso   1.000  H
  H252     1.0000 0.99130  0.90060  0.91350  Biso   1.000  H
  H253     1.0000 0.34480  0.80330  0.63350  Biso   1.000  H
  H254     1.0000 0.28150  0.72600  0.54570  Biso   1.000  H
  H255     1.0000 0.24800  0.64190  0.51370  Biso   1.000  H
  H256     1.0000 0.27970  0.62900  0.57970  Biso   1.000  H
  H257     1.0000 0.43890  0.84300  0.66350  Biso   1.000  H
  H258     1.0000 0.50330  0.83590  0.70960  Biso   1.000  H
  H259     1.0000 0.46650  0.77180  0.72330  Biso   1.000  H
  H260     1.0000 0.31160  0.83580  0.69000  Biso   1.000  H
  H261     1.0000 0.29280  0.81840  0.74620  Biso   1.000  H
  H262     1.0000 0.31140  0.75660  0.74720  Biso   1.000  H
  H263     1.0000 0.16400  0.75690  0.68930  Biso   1.000  H
  H264     1.0000 0.17000  0.64890  0.75590  Biso   1.000  H
  H265     1.0000 0.21010  0.75600  0.63810  Biso   1.000  H
  H266     1.0000 0.22420  0.70070  0.59330  Biso   1.000  H
  H267     1.0000 0.18250  0.62740  0.59190  Biso   1.000  H
  H268     1.0000 0.07140  0.73530  0.64650  Biso   1.000  H
  H269     1.0000 0.99600  0.66270  0.60030  Biso   1.000  H
  H270     1.0000 0.01290  0.59940  0.59070  Biso   1.000  H
  H271     1.0000 0.66980  0.71130  0.86650  Biso   1.000  H
  H272     1.0000 0.68030  0.73580  0.95430  Biso   1.000  H
  H273     1.0000 0.62820  0.73430  0.98630  Biso   1.000  H
  H274     1.0000 0.54930  0.70000  0.92030  Biso   1.000  H
  H275     1.0000 0.67950  0.77540  0.83650  Biso   1.000  H
  H276     1.0000 0.62630  0.79370  0.79040  Biso   1.000  H
  H277     1.0000 0.54850  0.74320  0.77670  Biso   1.000  H
  H278     1.0000 0.64580  0.62160  0.81000  Biso   1.000  H
  H279     1.0000 0.57220  0.54660  0.75380  Biso   1.000  H
  H280     1.0000 0.50940  0.56420  0.75280  Biso   1.000  H
  H281     1.0000 0.56760  0.47470  0.81070  Biso   1.000  H
  H282     1.0000 0.39300  0.41410  0.74410  Biso   1.000  H
  H283     1.0000 0.61790  0.57200  0.86190  Biso   1.000  H
  H284     1.0000 0.60740  0.63090  0.90670  Biso   1.000  H
  H285     1.0000 0.53550  0.59060  0.90810  Biso   1.000  H
  H286     1.0000 0.58880  0.42490  0.85350  Biso   1.000  H
  H287     1.0000 0.56240  0.39570  0.89970  Biso   1.000  H
  H288     1.0000 0.50870  0.42220  0.90930  Biso   1.000  H
  H289     1.0000 0.69670  0.54150  0.33020  Biso   1.000  H
  H290     1.0000 0.77400  0.55550  0.31970  Biso   1.000  H
  H291     1.0000 0.85810  0.60610  0.37180  Biso   1.000  H
  H292     1.0000 0.87100  0.65070  0.45070  Biso   1.000  H
  H293     1.0000 0.65700  0.59590  0.32050  Biso   1.000  H
  H294     1.0000 0.66410  0.66740  0.37370  Biso   1.000  H
  H295     1.0000 0.72820  0.69470  0.45150  Biso   1.000  H
  H296     1.0000 0.66420  0.47580  0.35420  Biso   1.000  H
  H297     1.0000 0.68160  0.47440  0.42780  Biso   1.000  H
  H298     1.0000 0.74340  0.55480  0.49060  Biso   1.000  H
  H299     1.0000 0.74310  0.40710  0.43240  Biso   1.000  H
  H300     1.0000 0.85110  0.52110  0.60700  Biso   1.000  H
  H301     1.0000 0.74400  0.45410  0.38210  Biso   1.000  H
  H302     1.0000 0.79930  0.52350  0.39260  Biso   1.000  H
  H303     1.0000 0.87260  0.55510  0.46450  Biso   1.000  H
  H304     1.0000 0.76470  0.33610  0.41120  Biso   1.000  H
  H305     1.0000 0.83730  0.33330  0.43760  Biso   1.000  H
  H306     1.0000 0.90060  0.41350  0.49130  Biso   1.000  H
  H307     1.0000 0.78870  0.95850  0.65520  Biso   1.000  H
  H308     1.0000 0.76420  0.94450  0.71850  Biso   1.000  H
  H309     1.0000 0.76570  0.89390  0.75200  Biso   1.000  H
  H310     1.0000 0.80000  0.84930  0.72030  Biso   1.000  H
  H311     1.0000 0.72460  0.90410  0.56110  Biso   1.000  H
  H312     1.0000 0.70630  0.83260  0.49670  Biso   1.000  H
  H313     1.0000 0.75680  0.80530  0.53350  Biso   1.000  H
  H314     1.0000 0.87840  0.02420  0.68840  Biso   1.000  H
  H315     1.0000 0.95340  0.02560  0.70720  Biso   1.000  H
  H316     1.0000 0.93580  0.94520  0.68860  Biso   1.000  H
  H317     1.0000 0.02530  0.09290  0.83600  Biso   1.000  H
  H318     1.0000 0.08590  0.97890  0.83000  Biso   1.000  H
  H319     1.0000 0.92800  0.04590  0.78990  Biso   1.000  H
  H320     1.0000 0.86910  0.97650  0.77580  Biso   1.000  H
  H321     1.0000 0.90940  0.94490  0.81750  Biso   1.000  H
  H322     1.0000 0.07510  0.16390  0.92860  Biso   1.000  H
  H323     1.0000 0.10430  0.16670  0.00400  Biso   1.000  H
  H324     1.0000 0.07780  0.08650  0.98710  Biso   1.000  H
  H325     1.0000 0.71130  0.36650  0.16980  Biso   1.000  H
  H326     1.0000 0.73580  0.45430  0.18030  Biso   1.000  H
  H327     1.0000 0.73430  0.48630  0.12820  Biso   1.000  H
  H328     1.0000 0.70000  0.42030  0.04930  Biso   1.000  H
  H329     1.0000 0.77540  0.33650  0.17950  Biso   1.000  H
  H330     1.0000 0.79370  0.29040  0.12630  Biso   1.000  H
  H331     1.0000 0.74320  0.27670  0.04850  Biso   1.000  H
  H332     1.0000 0.62160  0.31000  0.14580  Biso   1.000  H
  H333     1.0000 0.54660  0.25380  0.07220  Biso   1.000  H
  H334     1.0000 0.56420  0.25280  0.00940  Biso   1.000  H
  H335     1.0000 0.47470  0.31070  0.06760  Biso   1.000  H
  H336     1.0000 0.41410  0.24410  0.89300  Biso   1.000  H
  H337     1.0000 0.57200  0.36190  0.11790  Biso   1.000  H
  H338     1.0000 0.63090  0.40670  0.10740  Biso   1.000  H
  H339     1.0000 0.59060  0.40810  0.03550  Biso   1.000  H
  H340     1.0000 0.42490  0.35350  0.08880  Biso   1.000  H
  H341     1.0000 0.39570  0.39970  0.06240  Biso   1.000  H
  H342     1.0000 0.42220  0.40930  0.00870  Biso   1.000  H
  H343     1.0000 0.80330  0.13350  0.84480  Biso   1.000  H
  H344     1.0000 0.72600  0.04570  0.78150  Biso   1.000  H
  H345     1.0000 0.64190  0.01370  0.74800  Biso   1.000  H
  H346     1.0000 0.62900  0.07970  0.77970  Biso   1.000  H
  H347     1.0000 0.84300  0.16350  0.93890  Biso   1.000  H
  H348     1.0000 0.83590  0.20960  0.00330  Biso   1.000  H
  H349     1.0000 0.77180  0.22330  0.96650  Biso   1.000  H
  H350     1.0000 0.83580  0.19000  0.81160  Biso   1.000  H
  H351     1.0000 0.81840  0.24620  0.79280  Biso   1.000  H
  H352     1.0000 0.75660  0.24720  0.81140  Biso   1.000  H
  H353     1.0000 0.75690  0.18930  0.66400  Biso   1.000  H
  H354     1.0000 0.64890  0.25590  0.67000  Biso   1.000  H
  H355     1.0000 0.75600  0.13810  0.71010  Biso   1.000  H
  H356     1.0000 0.70070  0.09330  0.72420  Biso   1.000  H
  H357     1.0000 0.62740  0.09190  0.68250  Biso   1.000  H
  H358     1.0000 0.73530  0.14650  0.57140  Biso   1.000  H
  H359     1.0000 0.66270  0.10030  0.49600  Biso   1.000  H
  H360     1.0000 0.59940  0.09070  0.51290  Biso   1.000  H
  H361     1.0000 0.36650  0.66980  0.21130  Biso   1.000  H
  H362     1.0000 0.45430  0.68030  0.23580  Biso   1.000  H
  H363     1.0000 0.48630  0.62820  0.23430  Biso   1.000  H
  H364     1.0000 0.42030  0.54930  0.20000  Biso   1.000  H
  H365     1.0000 0.33650  0.67950  0.27540  Biso   1.000  H
  H366     1.0000 0.29040  0.62630  0.29370  Biso   1.000  H
  H367     1.0000 0.27670  0.54850  0.24320  Biso   1.000  H
  H368     1.0000 0.31000  0.64580  0.12160  Biso   1.000  H
  H369     1.0000 0.25380  0.57220  0.04660  Biso   1.000  H
  H370     1.0000 0.25280  0.50940  0.06420  Biso   1.000  H
  H371     1.0000 0.31070  0.56760  0.97470  Biso   1.000  H
  H372     1.0000 0.24410  0.39300  0.91410  Biso   1.000  H
  H373     1.0000 0.36190  0.61790  0.07200  Biso   1.000  H
  H374     1.0000 0.40670  0.60740  0.13090  Biso   1.000  H
  H375     1.0000 0.40810  0.53550  0.09060  Biso   1.000  H
  H376     1.0000 0.35350  0.58880  0.92490  Biso   1.000  H
  H377     1.0000 0.39970  0.56240  0.89570  Biso   1.000  H
  H378     1.0000 0.40930  0.50870  0.92220  Biso   1.000  H
  H379     1.0000 0.13350  0.34480  0.30330  Biso   1.000  H
  H380     1.0000 0.04570  0.28150  0.22600  Biso   1.000  H
  H381     1.0000 0.01370  0.24800  0.14190  Biso   1.000  H
  H382     1.0000 0.07970  0.27970  0.12900  Biso   1.000  H
  H383     1.0000 0.16350  0.43890  0.34300  Biso   1.000  H
  H384     1.0000 0.20960  0.50330  0.33590  Biso   1.000  H
  H385     1.0000 0.22330  0.46650  0.27180  Biso   1.000  H
  H386     1.0000 0.19000  0.31160  0.33580  Biso   1.000  H
  H387     1.0000 0.24620  0.29280  0.31840  Biso   1.000  H
  H388     1.0000 0.24720  0.31140  0.25660  Biso   1.000  H
  H389     1.0000 0.18930  0.16400  0.25690  Biso   1.000  H
  H390     1.0000 0.25590  0.17000  0.14890  Biso   1.000  H
  H391     1.0000 0.13810  0.21010  0.25600  Biso   1.000  H
  H392     1.0000 0.09330  0.22420  0.20070  Biso   1.000  H
  H393     1.0000 0.09190  0.18250  0.12740  Biso   1.000  H
  H394     1.0000 0.14650  0.07140  0.23530  Biso   1.000  H
  H395     1.0000 0.10030  0.99600  0.16270  Biso   1.000  H
  H396     1.0000 0.09070  0.01290  0.09940  Biso   1.000  H
  H397     1.0000 0.54150  0.83020  0.19670  Biso   1.000  H
  H398     1.0000 0.55550  0.81970  0.27400  Biso   1.000  H
  H399     1.0000 0.60610  0.87180  0.35810  Biso   1.000  H
  H400     1.0000 0.65070  0.95070  0.37100  Biso   1.000  H
  H401     1.0000 0.59590  0.82050  0.15700  Biso   1.000  H
  H402     1.0000 0.66740  0.87370  0.16410  Biso   1.000  H
  H403     1.0000 0.69470  0.95150  0.22820  Biso   1.000  H
  H404     1.0000 0.47580  0.85420  0.16420  Biso   1.000  H
  H405     1.0000 0.47440  0.92780  0.18160  Biso   1.000  H
  H406     1.0000 0.55480  0.99060  0.24340  Biso   1.000  H
  H407     1.0000 0.40710  0.93240  0.24310  Biso   1.000  H
  H408     1.0000 0.52110  0.10700  0.35110  Biso   1.000  H
  H409     1.0000 0.45410  0.88210  0.24400  Biso   1.000  H
  H410     1.0000 0.52350  0.89260  0.29930  Biso   1.000  H
  H411     1.0000 0.55510  0.96450  0.37260  Biso   1.000  H
  H412     1.0000 0.33610  0.91120  0.26470  Biso   1.000  H
  H413     1.0000 0.33330  0.93760  0.33730  Biso   1.000  H
  H414     1.0000 0.41350  0.99130  0.40060  Biso   1.000  H
  H415     1.0000 0.95850  0.15520  0.28870  Biso   1.000  H
  H416     1.0000 0.94450  0.21850  0.26420  Biso   1.000  H
  H417     1.0000 0.89390  0.25200  0.26570  Biso   1.000  H
  H418     1.0000 0.84930  0.22030  0.30000  Biso   1.000  H
  H419     1.0000 0.90410  0.06110  0.22460  Biso   1.000  H
  H420     1.0000 0.83260  0.99670  0.20630  Biso   1.000  H
  H421     1.0000 0.80530  0.03350  0.25680  Biso   1.000  H
  H422     1.0000 0.02420  0.18840  0.37840  Biso   1.000  H
  H423     1.0000 0.02560  0.20720  0.45340  Biso   1.000  H
  H424     1.0000 0.94520  0.18860  0.43580  Biso   1.000  H
  H425     1.0000 0.09290  0.33600  0.52530  Biso   1.000  H
  H426     1.0000 0.97890  0.33000  0.58590  Biso   1.000  H
  H427     1.0000 0.04590  0.28990  0.42800  Biso   1.000  H
  H428     1.0000 0.97650  0.27580  0.36910  Biso   1.000  H
  H429     1.0000 0.94490  0.31750  0.40940  Biso   1.000  H
  H430     1.0000 0.16390  0.42860  0.57510  Biso   1.000  H
  H431     1.0000 0.16670  0.50400  0.60430  Biso   1.000  H
  H432     1.0000 0.08650  0.48710  0.57780  Biso   1.000  H
  C1       1.0000 0.42050  0.57363  0.50033  Biso   1.000  C
  C2       1.0000 0.42587  0.50567  0.50980  Biso   1.000  C
  C3       1.0000 0.37579  0.67487  0.66820  Biso   1.000  C
  C4       1.0000 0.48788  0.64398  0.75138  Biso   1.000  C
  C5       1.0000 0.40407  0.56050  0.56417  Biso   1.000  C
  C6       1.0000 0.32967  0.51435  0.63802  Biso   1.000  C
  C7       1.0000 0.28900  0.35130  0.57690  Biso   1.000  C
  C8       1.0000 0.33520  0.37990  0.60430  Biso   1.000  C
  C9       1.0000 0.34219  0.42377  0.62956  Biso   1.000  C
  C10      1.0000 0.17750  0.35240  0.61390  Biso   1.000  C
  C11      1.0000 0.18140  0.38110  0.65330  Biso   1.000  C
  C12      1.0000 0.21710  0.42420  0.66770  Biso   1.000  C
  C13      1.0000 0.18590  0.38400  0.50090  Biso   1.000  C
  C14      1.0000 0.19530  0.42440  0.49990  Biso   1.000  C
  C15      1.0000 0.22940  0.45887  0.54467  Biso   1.000  C
  C16      1.0000 0.24990  0.51080  0.45370  Biso   1.000  C
  C17      1.0000 0.28020  0.55980  0.48720  Biso   1.000  C
  C18      1.0000 0.32680  0.57610  0.50290  Biso   1.000  C
  C19      1.0000 0.27480  0.40660  0.47340  Biso   1.000  C
  C20      1.0000 0.30430  0.41180  0.51070  Biso   1.000  C
  C21      1.0000 0.34500  0.45180  0.52800  Biso   1.000  C
  C22      1.0000 0.29463  0.43280  0.36143  Biso   1.000  C
  C23      1.0000 0.33430  0.44680  0.35970  Biso   1.000  C
  C24      1.0000 0.36910  0.47690  0.40420  Biso   1.000  C
  C25      1.0000 0.57330  0.92017  0.99967  Biso   1.000  C
  C26      1.0000 0.49587  0.91607  0.99020  Biso   1.000  C
  C27      1.0000 0.50667  0.70759  0.83180  Biso   1.000  C
  C28      1.0000 0.39260  0.73650  0.74862  Biso   1.000  C
  C29      1.0000 0.49633  0.83990  0.93583  Biso   1.000  C
  C30      1.0000 0.37633  0.69165  0.86198  Biso   1.000  C
  C31      1.0000 0.27440  0.71210  0.92310  Biso   1.000  C
  C32      1.0000 0.27560  0.73090  0.89570  Biso   1.000  C
  C33      1.0000 0.29421  0.71263  0.87044  Biso   1.000  C
  C34      1.0000 0.23850  0.56360  0.88610  Biso   1.000  C
  C35      1.0000 0.22780  0.52810  0.84670  Biso   1.000  C
  C36      1.0000 0.25650  0.54940  0.83230  Biso   1.000  C
  C37      1.0000 0.38310  0.68500  0.99910  Biso   1.000  C
  C38      1.0000 0.42450  0.69540  0.00010  Biso   1.000  C
  C39      1.0000 0.41420  0.68473  0.95533  Biso   1.000  C
  C40      1.0000 0.55710  0.79620  0.04630  Biso   1.000  C
  C41      1.0000 0.57260  0.79300  0.01280  Biso   1.000  C
  C42      1.0000 0.57320  0.82390  0.99710  Biso   1.000  C
  C43      1.0000 0.43320  0.80140  0.02660  Biso   1.000  C
  C44      1.0000 0.40110  0.79360  0.98930  Biso   1.000  C
  C45      1.0000 0.42380  0.81700  0.97200  Biso   1.000  C
  C46      1.0000 0.57137  0.93320  0.13857  Biso   1.000  C
  C47      1.0000 0.58710  0.97460  0.14030  Biso   1.000  C
  C48      1.0000 0.57270  0.96490  0.09580  Biso   1.000  C
  C49      1.0000 0.92670  0.92637  0.34687  Biso   1.000  C
  C50      1.0000 0.00413  0.99433  0.42020  Biso   1.000  C
  C51      1.0000 0.99333  0.82513  0.20092  Biso   1.000  C
  C52      1.0000 0.10740  0.85602  0.34390  Biso   1.000  C
  C53      1.0000 0.00367  0.93950  0.34357  Biso   1.000  C
  C54      1.0000 0.12367  0.98565  0.31532  Biso   1.000  C
  C55      1.0000 0.22560  0.14870  0.43770  Biso   1.000  C
  C56      1.0000 0.22440  0.12010  0.45530  Biso   1.000  C
  C57      1.0000 0.20579  0.07623  0.41842  Biso   1.000  C
  C58      1.0000 0.26150  0.14760  0.32510  Biso   1.000  C
  C59      1.0000 0.27220  0.11890  0.30030  Biso   1.000  C
  C60      1.0000 0.24350  0.07580  0.29290  Biso   1.000  C
  C61      1.0000 0.11690  0.11600  0.30190  Biso   1.000  C
  C62      1.0000 0.07550  0.07560  0.27090  Biso   1.000  C
  C63      1.0000 0.08580  0.04113  0.27053  Biso   1.000  C
  C64      1.0000 0.94290  0.98920  0.23910  Biso   1.000  C
  C65      1.0000 0.92740  0.94020  0.22040  Biso   1.000  C
  C66      1.0000 0.92680  0.92390  0.25070  Biso   1.000  C
  C67      1.0000 0.06680  0.09340  0.36820  Biso   1.000  C
  C68      1.0000 0.09890  0.08820  0.39250  Biso   1.000  C
  C69      1.0000 0.07620  0.04820  0.39320  Biso   1.000  C
  C70      1.0000 0.92863  0.06720  0.36183  Biso   1.000  C
  C71      1.0000 0.91290  0.05320  0.38750  Biso   1.000  C
  C72      1.0000 0.92730  0.02310  0.39220  Biso   1.000  C
  C73      1.0000 0.07950  0.57983  0.15313  Biso   1.000  C
  C74      1.0000 0.07413  0.58393  0.07980  Biso   1.000  C
  C75      1.0000 0.12421  0.79241  0.29908  Biso   1.000  C
  C76      1.0000 0.01212  0.76350  0.15610  Biso   1.000  C
  C77      1.0000 0.09593  0.66010  0.15643  Biso   1.000  C
  C78      1.0000 0.17033  0.80835  0.18468  Biso   1.000  C
  C79      1.0000 0.21100  0.78790  0.06230  Biso   1.000  C
  C80      1.0000 0.16480  0.76910  0.04470  Biso   1.000  C
  C81      1.0000 0.15781  0.78737  0.08158  Biso   1.000  C
  C82      1.0000 0.32250  0.93640  0.17490  Biso   1.000  C
  C83      1.0000 0.31860  0.97190  0.19970  Biso   1.000  C
  C84      1.0000 0.28290  0.95060  0.20710  Biso   1.000  C
  C85      1.0000 0.31410  0.81500  0.19810  Biso   1.000  C
  C86      1.0000 0.30470  0.80460  0.22910  Biso   1.000  C
  C87      1.0000 0.27060  0.81527  0.22947  Biso   1.000  C
  C88      1.0000 0.25010  0.70380  0.26090  Biso   1.000  C
  C89      1.0000 0.21980  0.70700  0.27960  Biso   1.000  C
  C90      1.0000 0.17320  0.67610  0.24930  Biso   1.000  C
  C91      1.0000 0.22520  0.69860  0.13180  Biso   1.000  C
  C92      1.0000 0.19570  0.70640  0.10750  Biso   1.000  C
  C93      1.0000 0.15500  0.68300  0.10680  Biso   1.000  C
  C94      1.0000 0.20537  0.56680  0.13817  Biso   1.000  C
  C95      1.0000 0.16570  0.52540  0.11250  Biso   1.000  C
  C96      1.0000 0.13090  0.53510  0.10780  Biso   1.000  C
  C97      1.0000 0.84687  0.92670  0.42637  Biso   1.000  C
  C98      1.0000 0.92020  0.00413  0.49433  Biso   1.000  C
  C99      1.0000 0.70092  0.99333  0.32513  Biso   1.000  C
  C100     1.0000 0.84390  0.10740  0.35602  Biso   1.000  C
  C101     1.0000 0.84357  0.00367  0.43950  Biso   1.000  C
  C102     1.0000 0.81532  0.12367  0.48565  Biso   1.000  C
  C103     1.0000 0.93770  0.22560  0.64870  Biso   1.000  C
  C104     1.0000 0.95530  0.22440  0.62010  Biso   1.000  C
  C105     1.0000 0.91842  0.20579  0.57623  Biso   1.000  C
  C106     1.0000 0.82510  0.26150  0.64760  Biso   1.000  C
  C107     1.0000 0.80030  0.27220  0.61890  Biso   1.000  C
  C108     1.0000 0.79290  0.24350  0.57580  Biso   1.000  C
  C109     1.0000 0.80190  0.11690  0.61600  Biso   1.000  C
  C110     1.0000 0.77090  0.07550  0.57560  Biso   1.000  C
  C111     1.0000 0.77053  0.08580  0.54113  Biso   1.000  C
  C112     1.0000 0.73910  0.94290  0.48920  Biso   1.000  C
  C113     1.0000 0.72040  0.92740  0.44020  Biso   1.000  C
  C114     1.0000 0.75070  0.92680  0.42390  Biso   1.000  C
  C115     1.0000 0.86820  0.06680  0.59340  Biso   1.000  C
  C116     1.0000 0.89250  0.09890  0.58820  Biso   1.000  C
  C117     1.0000 0.89320  0.07620  0.54820  Biso   1.000  C
  C118     1.0000 0.86183  0.92863  0.56720  Biso   1.000  C
  C119     1.0000 0.88750  0.91290  0.55320  Biso   1.000  C
  C120     1.0000 0.89220  0.92730  0.52310  Biso   1.000  C
  C121     1.0000 0.65313  0.07950  0.07983  Biso   1.000  C
  C122     1.0000 0.57980  0.07413  0.08393  Biso   1.000  C
  C123     1.0000 0.79908  0.12421  0.29241  Biso   1.000  C
  C124     1.0000 0.65610  0.01212  0.26350  Biso   1.000  C
  C125     1.0000 0.65643  0.09593  0.16010  Biso   1.000  C
  C126     1.0000 0.68468  0.17033  0.30835  Biso   1.000  C
  C127     1.0000 0.56230  0.21100  0.28790  Biso   1.000  C
  C128     1.0000 0.54470  0.16480  0.26910  Biso   1.000  C
  C129     1.0000 0.58158  0.15781  0.28737  Biso   1.000  C
  C130     1.0000 0.67490  0.32250  0.43640  Biso   1.000  C
  C131     1.0000 0.69970  0.31860  0.47190  Biso   1.000  C
  C132     1.0000 0.70710  0.28290  0.45060  Biso   1.000  C
  C133     1.0000 0.69810  0.31410  0.31500  Biso   1.000  C
  C134     1.0000 0.72910  0.30470  0.30460  Biso   1.000  C
  C135     1.0000 0.72947  0.27060  0.31527  Biso   1.000  C
  C136     1.0000 0.76090  0.25010  0.20380  Biso   1.000  C
  C137     1.0000 0.77960  0.21980  0.20700  Biso   1.000  C
  C138     1.0000 0.74930  0.17320  0.17610  Biso   1.000  C
  C139     1.0000 0.63180  0.22520  0.19860  Biso   1.000  C
  C140     1.0000 0.60750  0.19570  0.20640  Biso   1.000  C
  C141     1.0000 0.60680  0.15500  0.18300  Biso   1.000  C
  C142     1.0000 0.63817  0.20537  0.06680  Biso   1.000  C
  C143     1.0000 0.61250  0.16570  0.02540  Biso   1.000  C
  C144     1.0000 0.60780  0.13090  0.03510  Biso   1.000  C
  C145     1.0000 0.00033  0.42050  0.07363  Biso   1.000  C
  C146     1.0000 0.00980  0.42587  0.00567  Biso   1.000  C
  C147     1.0000 0.16820  0.37579  0.17487  Biso   1.000  C
  C148     1.0000 0.25138  0.48788  0.14398  Biso   1.000  C
  C149     1.0000 0.06417  0.40407  0.06050  Biso   1.000  C
  C150     1.0000 0.13802  0.32967  0.01435  Biso   1.000  C
  C151     1.0000 0.07690  0.28900  0.85130  Biso   1.000  C
  C152     1.0000 0.10430  0.33520  0.87990  Biso   1.000  C
  C153     1.0000 0.12956  0.34219  0.92377  Biso   1.000  C
  C154     1.0000 0.11390  0.17750  0.85240  Biso   1.000  C
  C155     1.0000 0.15330  0.18140  0.88110  Biso   1.000  C
  C156     1.0000 0.16770  0.21710  0.92420  Biso   1.000  C
  C157     1.0000 0.00090  0.18590  0.88400  Biso   1.000  C
  C158     1.0000 0.99990  0.19530  0.92440  Biso   1.000  C
  C159     1.0000 0.04467  0.22940  0.95887  Biso   1.000  C
  C160     1.0000 0.95370  0.24990  0.01080  Biso   1.000  C
  C161     1.0000 0.98720  0.28020  0.05980  Biso   1.000  C
  C162     1.0000 0.00290  0.32680  0.07610  Biso   1.000  C
  C163     1.0000 0.97340  0.27480  0.90660  Biso   1.000  C
  C164     1.0000 0.01070  0.30430  0.91180  Biso   1.000  C
  C165     1.0000 0.02800  0.34500  0.95180  Biso   1.000  C
  C166     1.0000 0.86143  0.29463  0.93280  Biso   1.000  C
  C167     1.0000 0.85970  0.33430  0.94680  Biso   1.000  C
  C168     1.0000 0.90420  0.36910  0.97690  Biso   1.000  C
  C169     1.0000 0.49967  0.57330  0.42017  Biso   1.000  C
  C170     1.0000 0.49020  0.49587  0.41607  Biso   1.000  C
  C171     1.0000 0.33180  0.50667  0.20759  Biso   1.000  C
  C172     1.0000 0.24862  0.39260  0.23650  Biso   1.000  C
  C173     1.0000 0.43583  0.49633  0.33990  Biso   1.000  C
  C174     1.0000 0.36198  0.37633  0.19165  Biso   1.000  C
  C175     1.0000 0.42310  0.27440  0.21210  Biso   1.000  C
  C176     1.0000 0.39570  0.27560  0.23090  Biso   1.000  C
  C177     1.0000 0.37044  0.29421  0.21263  Biso   1.000  C
  C178     1.0000 0.38610  0.23850  0.06360  Biso   1.000  C
  C179     1.0000 0.34670  0.22780  0.02810  Biso   1.000  C
  C180     1.0000 0.33230  0.25650  0.04940  Biso   1.000  C
  C181     1.0000 0.49910  0.38310  0.18500  Biso   1.000  C
  C182     1.0000 0.50010  0.42450  0.19540  Biso   1.000  C
  C183     1.0000 0.45533  0.41420  0.18473  Biso   1.000  C
  C184     1.0000 0.54630  0.55710  0.29620  Biso   1.000  C
  C185     1.0000 0.51280  0.57260  0.29300  Biso   1.000  C
  C186     1.0000 0.49710  0.57320  0.32390  Biso   1.000  C
  C187     1.0000 0.52660  0.43320  0.30140  Biso   1.000  C
  C188     1.0000 0.48930  0.40110  0.29360  Biso   1.000  C
  C189     1.0000 0.47200  0.42380  0.31700  Biso   1.000  C
  C190     1.0000 0.63857  0.57137  0.43320  Biso   1.000  C
  C191     1.0000 0.64030  0.58710  0.47460  Biso   1.000  C
  C192     1.0000 0.59580  0.57270  0.46490  Biso   1.000  C
  C193     1.0000 0.92017  0.49967  0.07330  Biso   1.000  C
  C194     1.0000 0.91607  0.49020  0.99587  Biso   1.000  C
  C195     1.0000 0.70759  0.33180  0.00667  Biso   1.000  C
  C196     1.0000 0.73650  0.24862  0.89260  Biso   1.000  C
  C197     1.0000 0.83990  0.43583  0.99633  Biso   1.000  C
  C198     1.0000 0.69165  0.36198  0.87633  Biso   1.000  C
  C199     1.0000 0.71210  0.42310  0.77440  Biso   1.000  C
  C200     1.0000 0.73090  0.39570  0.77560  Biso   1.000  C
  C201     1.0000 0.71263  0.37044  0.79421  Biso   1.000  C
  C202     1.0000 0.56360  0.38610  0.73850  Biso   1.000  C
  C203     1.0000 0.52810  0.34670  0.72780  Biso   1.000  C
  C204     1.0000 0.54940  0.33230  0.75650  Biso   1.000  C
  C205     1.0000 0.68500  0.49910  0.88310  Biso   1.000  C
  C206     1.0000 0.69540  0.50010  0.92450  Biso   1.000  C
  C207     1.0000 0.68473  0.45533  0.91420  Biso   1.000  C
  C208     1.0000 0.79620  0.54630  0.05710  Biso   1.000  C
  C209     1.0000 0.79300  0.51280  0.07260  Biso   1.000  C
  C210     1.0000 0.82390  0.49710  0.07320  Biso   1.000  C
  C211     1.0000 0.80140  0.52660  0.93320  Biso   1.000  C
  C212     1.0000 0.79360  0.48930  0.90110  Biso   1.000  C
  C213     1.0000 0.81700  0.47200  0.92380  Biso   1.000  C
  C214     1.0000 0.93320  0.63857  0.07137  Biso   1.000  C
  C215     1.0000 0.97460  0.64030  0.08710  Biso   1.000  C
  C216     1.0000 0.96490  0.59580  0.07270  Biso   1.000  C
  C217     1.0000 0.57363  0.00033  0.92050  Biso   1.000  C
  C218     1.0000 0.50567  0.00980  0.92587  Biso   1.000  C
  C219     1.0000 0.67487  0.16820  0.87579  Biso   1.000  C
  C220     1.0000 0.64398  0.25138  0.98788  Biso   1.000  C
  C221     1.0000 0.56050  0.06417  0.90407  Biso   1.000  C
  C222     1.0000 0.51435  0.13802  0.82967  Biso   1.000  C
  C223     1.0000 0.35130  0.07690  0.78900  Biso   1.000  C
  C224     1.0000 0.37990  0.10430  0.83520  Biso   1.000  C
  C225     1.0000 0.42377  0.12956  0.84219  Biso   1.000  C
  C226     1.0000 0.35240  0.11390  0.67750  Biso   1.000  C
  C227     1.0000 0.38110  0.15330  0.68140  Biso   1.000  C
  C228     1.0000 0.42420  0.16770  0.71710  Biso   1.000  C
  C229     1.0000 0.38400  0.00090  0.68590  Biso   1.000  C
  C230     1.0000 0.42440  0.99990  0.69530  Biso   1.000  C
  C231     1.0000 0.45887  0.04467  0.72940  Biso   1.000  C
  C232     1.0000 0.51080  0.95370  0.74990  Biso   1.000  C
  C233     1.0000 0.55980  0.98720  0.78020  Biso   1.000  C
  C234     1.0000 0.57610  0.00290  0.82680  Biso   1.000  C
  C235     1.0000 0.40660  0.97340  0.77480  Biso   1.000  C
  C236     1.0000 0.41180  0.01070  0.80430  Biso   1.000  C
  C237     1.0000 0.45180  0.02800  0.84500  Biso   1.000  C
  C238     1.0000 0.43280  0.86143  0.79463  Biso   1.000  C
  C239     1.0000 0.44680  0.85970  0.83430  Biso   1.000  C
  C240     1.0000 0.47690  0.90420  0.86910  Biso   1.000  C
  C241     1.0000 0.57983  0.65313  0.57950  Biso   1.000  C
  C242     1.0000 0.58393  0.57980  0.57413  Biso   1.000  C
  C243     1.0000 0.79241  0.79908  0.62421  Biso   1.000  C
  C244     1.0000 0.76350  0.65610  0.51212  Biso   1.000  C
  C245     1.0000 0.66010  0.65643  0.59593  Biso   1.000  C
  C246     1.0000 0.80835  0.68468  0.67033  Biso   1.000  C
  C247     1.0000 0.78790  0.56230  0.71100  Biso   1.000  C
  C248     1.0000 0.76910  0.54470  0.66480  Biso   1.000  C
  C249     1.0000 0.78737  0.58158  0.65781  Biso   1.000  C
  C250     1.0000 0.93640  0.67490  0.82250  Biso   1.000  C
  C251     1.0000 0.97190  0.69970  0.81860  Biso   1.000  C
  C252     1.0000 0.95060  0.70710  0.78290  Biso   1.000  C
  C253     1.0000 0.81500  0.69810  0.81410  Biso   1.000  C
  C254     1.0000 0.80460  0.72910  0.80470  Biso   1.000  C
  C255     1.0000 0.81527  0.72947  0.77060  Biso   1.000  C
  C256     1.0000 0.70380  0.76090  0.75010  Biso   1.000  C
  C257     1.0000 0.70700  0.77960  0.71980  Biso   1.000  C
  C258     1.0000 0.67610  0.74930  0.67320  Biso   1.000  C
  C259     1.0000 0.69860  0.63180  0.72520  Biso   1.000  C
  C260     1.0000 0.70640  0.60750  0.69570  Biso   1.000  C
  C261     1.0000 0.68300  0.60680  0.65500  Biso   1.000  C
  C262     1.0000 0.56680  0.63817  0.70537  Biso   1.000  C
  C263     1.0000 0.52540  0.61250  0.66570  Biso   1.000  C
  C264     1.0000 0.53510  0.60780  0.63090  Biso   1.000  C
  C265     1.0000 0.92637  0.84687  0.42670  Biso   1.000  C
  C266     1.0000 0.99433  0.92020  0.50413  Biso   1.000  C
  C267     1.0000 0.82513  0.70092  0.49333  Biso   1.000  C
  C268     1.0000 0.85602  0.84390  0.60740  Biso   1.000  C
  C269     1.0000 0.93950  0.84357  0.50367  Biso   1.000  C
  C270     1.0000 0.98565  0.81532  0.62367  Biso   1.000  C
  C271     1.0000 0.14870  0.93770  0.72560  Biso   1.000  C
  C272     1.0000 0.12010  0.95530  0.72440  Biso   1.000  C
  C273     1.0000 0.07623  0.91842  0.70579  Biso   1.000  C
  C274     1.0000 0.14760  0.82510  0.76150  Biso   1.000  C
  C275     1.0000 0.11890  0.80030  0.77220  Biso   1.000  C
  C276     1.0000 0.07580  0.79290  0.74350  Biso   1.000  C
  C277     1.0000 0.11600  0.80190  0.61690  Biso   1.000  C
  C278     1.0000 0.07560  0.77090  0.57550  Biso   1.000  C
  C279     1.0000 0.04113  0.77053  0.58580  Biso   1.000  C
  C280     1.0000 0.98920  0.73910  0.44290  Biso   1.000  C
  C281     1.0000 0.94020  0.72040  0.42740  Biso   1.000  C
  C282     1.0000 0.92390  0.75070  0.42680  Biso   1.000  C
  C283     1.0000 0.09340  0.86820  0.56680  Biso   1.000  C
  C284     1.0000 0.08820  0.89250  0.59890  Biso   1.000  C
  C285     1.0000 0.04820  0.89320  0.57620  Biso   1.000  C
  C286     1.0000 0.06720  0.86183  0.42863  Biso   1.000  C
  C287     1.0000 0.05320  0.88750  0.41290  Biso   1.000  C
  C288     1.0000 0.02310  0.89220  0.42730  Biso   1.000  C
  C289     1.0000 0.42017  0.07330  0.49967  Biso   1.000  C
  C290     1.0000 0.41607  0.99587  0.49020  Biso   1.000  C
  C291     1.0000 0.20759  0.00667  0.33180  Biso   1.000  C
  C292     1.0000 0.23650  0.89260  0.24862  Biso   1.000  C
  C293     1.0000 0.33990  0.99633  0.43583  Biso   1.000  C
  C294     1.0000 0.19165  0.87633  0.36198  Biso   1.000  C
  C295     1.0000 0.21210  0.77440  0.42310  Biso   1.000  C
  C296     1.0000 0.23090  0.77560  0.39570  Biso   1.000  C
  C297     1.0000 0.21263  0.79421  0.37044  Biso   1.000  C
  C298     1.0000 0.06360  0.73850  0.38610  Biso   1.000  C
  C299     1.0000 0.02810  0.72780  0.34670  Biso   1.000  C
  C300     1.0000 0.04940  0.75650  0.33230  Biso   1.000  C
  C301     1.0000 0.18500  0.88310  0.49910  Biso   1.000  C
  C302     1.0000 0.19540  0.92450  0.50010  Biso   1.000  C
  C303     1.0000 0.18473  0.91420  0.45533  Biso   1.000  C
  C304     1.0000 0.29620  0.05710  0.54630  Biso   1.000  C
  C305     1.0000 0.29300  0.07260  0.51280  Biso   1.000  C
  C306     1.0000 0.32390  0.07320  0.49710  Biso   1.000  C
  C307     1.0000 0.30140  0.93320  0.52660  Biso   1.000  C
  C308     1.0000 0.29360  0.90110  0.48930  Biso   1.000  C
  C309     1.0000 0.31700  0.92380  0.47200  Biso   1.000  C
  C310     1.0000 0.43320  0.07137  0.63857  Biso   1.000  C
  C311     1.0000 0.47460  0.08710  0.64030  Biso   1.000  C
  C312     1.0000 0.46490  0.07270  0.59580  Biso   1.000  C
  C313     1.0000 0.07363  0.92050  0.00033  Biso   1.000  C
  C314     1.0000 0.00567  0.92587  0.00980  Biso   1.000  C
  C315     1.0000 0.17487  0.87579  0.16820  Biso   1.000  C
  C316     1.0000 0.14398  0.98788  0.25138  Biso   1.000  C
  C317     1.0000 0.06050  0.90407  0.06417  Biso   1.000  C
  C318     1.0000 0.01435  0.82967  0.13802  Biso   1.000  C
  C319     1.0000 0.85130  0.78900  0.07690  Biso   1.000  C
  C320     1.0000 0.87990  0.83520  0.10430  Biso   1.000  C
  C321     1.0000 0.92377  0.84219  0.12956  Biso   1.000  C
  C322     1.0000 0.85240  0.67750  0.11390  Biso   1.000  C
  C323     1.0000 0.88110  0.68140  0.15330  Biso   1.000  C
  C324     1.0000 0.92420  0.71710  0.16770  Biso   1.000  C
  C325     1.0000 0.88400  0.68590  0.00090  Biso   1.000  C
  C326     1.0000 0.92440  0.69530  0.99990  Biso   1.000  C
  C327     1.0000 0.95887  0.72940  0.04467  Biso   1.000  C
  C328     1.0000 0.01080  0.74990  0.95370  Biso   1.000  C
  C329     1.0000 0.05980  0.78020  0.98720  Biso   1.000  C
  C330     1.0000 0.07610  0.82680  0.00290  Biso   1.000  C
  C331     1.0000 0.90660  0.77480  0.97340  Biso   1.000  C
  C332     1.0000 0.91180  0.80430  0.01070  Biso   1.000  C
  C333     1.0000 0.95180  0.84500  0.02800  Biso   1.000  C
  C334     1.0000 0.93280  0.79463  0.86143  Biso   1.000  C
  C335     1.0000 0.94680  0.83430  0.85970  Biso   1.000  C
  C336     1.0000 0.97690  0.86910  0.90420  Biso   1.000  C
  C337     1.0000 0.07983  0.57950  0.65313  Biso   1.000  C
  C338     1.0000 0.08393  0.57413  0.57980  Biso   1.000  C
  C339     1.0000 0.29241  0.62421  0.79908  Biso   1.000  C
  C340     1.0000 0.26350  0.51212  0.65610  Biso   1.000  C
  C341     1.0000 0.16010  0.59593  0.65643  Biso   1.000  C
  C342     1.0000 0.30835  0.67033  0.68468  Biso   1.000  C
  C343     1.0000 0.28790  0.71100  0.56230  Biso   1.000  C
  C344     1.0000 0.26910  0.66480  0.54470  Biso   1.000  C
  C345     1.0000 0.28737  0.65781  0.58158  Biso   1.000  C
  C346     1.0000 0.43640  0.82250  0.67490  Biso   1.000  C
  C347     1.0000 0.47190  0.81860  0.69970  Biso   1.000  C
  C348     1.0000 0.45060  0.78290  0.70710  Biso   1.000  C
  C349     1.0000 0.31500  0.81410  0.69810  Biso   1.000  C
  C350     1.0000 0.30460  0.80470  0.72910  Biso   1.000  C
  C351     1.0000 0.31527  0.77060  0.72947  Biso   1.000  C
  C352     1.0000 0.20380  0.75010  0.76090  Biso   1.000  C
  C353     1.0000 0.20700  0.71980  0.77960  Biso   1.000  C
  C354     1.0000 0.17610  0.67320  0.74930  Biso   1.000  C
  C355     1.0000 0.19860  0.72520  0.63180  Biso   1.000  C
  C356     1.0000 0.20640  0.69570  0.60750  Biso   1.000  C
  C357     1.0000 0.18300  0.65500  0.60680  Biso   1.000  C
  C358     1.0000 0.06680  0.70537  0.63817  Biso   1.000  C
  C359     1.0000 0.02540  0.66570  0.61250  Biso   1.000  C
  C360     1.0000 0.03510  0.63090  0.60780  Biso   1.000  C
  C361     1.0000 0.42637  0.42670  0.84687  Biso   1.000  C
  C362     1.0000 0.49433  0.50413  0.92020  Biso   1.000  C
  C363     1.0000 0.32513  0.49333  0.70092  Biso   1.000  C
  C364     1.0000 0.35602  0.60740  0.84390  Biso   1.000  C
  C365     1.0000 0.43950  0.50367  0.84357  Biso   1.000  C
  C366     1.0000 0.48565  0.62367  0.81532  Biso   1.000  C
  C367     1.0000 0.64870  0.72560  0.93770  Biso   1.000  C
  C368     1.0000 0.62010  0.72440  0.95530  Biso   1.000  C
  C369     1.0000 0.57623  0.70579  0.91842  Biso   1.000  C
  C370     1.0000 0.64760  0.76150  0.82510  Biso   1.000  C
  C371     1.0000 0.61890  0.77220  0.80030  Biso   1.000  C
  C372     1.0000 0.57580  0.74350  0.79290  Biso   1.000  C
  C373     1.0000 0.61600  0.61690  0.80190  Biso   1.000  C
  C374     1.0000 0.57560  0.57550  0.77090  Biso   1.000  C
  C375     1.0000 0.54113  0.58580  0.77053  Biso   1.000  C
  C376     1.0000 0.48920  0.44290  0.73910  Biso   1.000  C
  C377     1.0000 0.44020  0.42740  0.72040  Biso   1.000  C
  C378     1.0000 0.42390  0.42680  0.75070  Biso   1.000  C
  C379     1.0000 0.59340  0.56680  0.86820  Biso   1.000  C
  C380     1.0000 0.58820  0.59890  0.89250  Biso   1.000  C
  C381     1.0000 0.54820  0.57620  0.89320  Biso   1.000  C
  C382     1.0000 0.56720  0.42863  0.86183  Biso   1.000  C
  C383     1.0000 0.55320  0.41290  0.88750  Biso   1.000  C
  C384     1.0000 0.52310  0.42730  0.89220  Biso   1.000  C
  C385     1.0000 0.92050  0.50033  0.57363  Biso   1.000  C
  C386     1.0000 0.92587  0.50980  0.50567  Biso   1.000  C
  C387     1.0000 0.87579  0.66820  0.67487  Biso   1.000  C
  C388     1.0000 0.98788  0.75138  0.64398  Biso   1.000  C
  C389     1.0000 0.90407  0.56417  0.56050  Biso   1.000  C
  C390     1.0000 0.82967  0.63802  0.51435  Biso   1.000  C
  C391     1.0000 0.78900  0.57690  0.35130  Biso   1.000  C
  C392     1.0000 0.83520  0.60430  0.37990  Biso   1.000  C
  C393     1.0000 0.84219  0.62956  0.42377  Biso   1.000  C
  C394     1.0000 0.67750  0.61390  0.35240  Biso   1.000  C
  C395     1.0000 0.68140  0.65330  0.38110  Biso   1.000  C
  C396     1.0000 0.71710  0.66770  0.42420  Biso   1.000  C
  C397     1.0000 0.68590  0.50090  0.38400  Biso   1.000  C
  C398     1.0000 0.69530  0.49990  0.42440  Biso   1.000  C
  C399     1.0000 0.72940  0.54467  0.45887  Biso   1.000  C
  C400     1.0000 0.74990  0.45370  0.51080  Biso   1.000  C
  C401     1.0000 0.78020  0.48720  0.55980  Biso   1.000  C
  C402     1.0000 0.82680  0.50290  0.57610  Biso   1.000  C
  C403     1.0000 0.77480  0.47340  0.40660  Biso   1.000  C
  C404     1.0000 0.80430  0.51070  0.41180  Biso   1.000  C
  C405     1.0000 0.84500  0.52800  0.45180  Biso   1.000  C
  C406     1.0000 0.79463  0.36143  0.43280  Biso   1.000  C
  C407     1.0000 0.83430  0.35970  0.44680  Biso   1.000  C
  C408     1.0000 0.86910  0.40420  0.47690  Biso   1.000  C
  C409     1.0000 0.07330  0.99967  0.92017  Biso   1.000  C
  C410     1.0000 0.99587  0.99020  0.91607  Biso   1.000  C
  C411     1.0000 0.00667  0.83180  0.70759  Biso   1.000  C
  C412     1.0000 0.89260  0.74862  0.73650  Biso   1.000  C
  C413     1.0000 0.99633  0.93583  0.83990  Biso   1.000  C
  C414     1.0000 0.87633  0.86198  0.69165  Biso   1.000  C
  C415     1.0000 0.77440  0.92310  0.71210  Biso   1.000  C
  C416     1.0000 0.77560  0.89570  0.73090  Biso   1.000  C
  C417     1.0000 0.79421  0.87044  0.71263  Biso   1.000  C
  C418     1.0000 0.73850  0.88610  0.56360  Biso   1.000  C
  C419     1.0000 0.72780  0.84670  0.52810  Biso   1.000  C
  C420     1.0000 0.75650  0.83230  0.54940  Biso   1.000  C
  C421     1.0000 0.88310  0.99910  0.68500  Biso   1.000  C
  C422     1.0000 0.92450  0.00010  0.69540  Biso   1.000  C
  C423     1.0000 0.91420  0.95533  0.68473  Biso   1.000  C
  C424     1.0000 0.05710  0.04630  0.79620  Biso   1.000  C
  C425     1.0000 0.07260  0.01280  0.79300  Biso   1.000  C
  C426     1.0000 0.07320  0.99710  0.82390  Biso   1.000  C
  C427     1.0000 0.93320  0.02660  0.80140  Biso   1.000  C
  C428     1.0000 0.90110  0.98930  0.79360  Biso   1.000  C
  C429     1.0000 0.92380  0.97200  0.81700  Biso   1.000  C
  C430     1.0000 0.07137  0.13857  0.93320  Biso   1.000  C
  C431     1.0000 0.08710  0.14030  0.97460  Biso   1.000  C
  C432     1.0000 0.07270  0.09580  0.96490  Biso   1.000  C
  C433     1.0000 0.42670  0.34687  0.92637  Biso   1.000  C
  C434     1.0000 0.50413  0.42020  0.99433  Biso   1.000  C
  C435     1.0000 0.49333  0.20092  0.82513  Biso   1.000  C
  C436     1.0000 0.60740  0.34390  0.85602  Biso   1.000  C
  C437     1.0000 0.50367  0.34357  0.93950  Biso   1.000  C
  C438     1.0000 0.62367  0.31532  0.98565  Biso   1.000  C
  C439     1.0000 0.72560  0.43770  0.14870  Biso   1.000  C
  C440     1.0000 0.72440  0.45530  0.12010  Biso   1.000  C
  C441     1.0000 0.70579  0.41842  0.07623  Biso   1.000  C
  C442     1.0000 0.76150  0.32510  0.14760  Biso   1.000  C
  C443     1.0000 0.77220  0.30030  0.11890  Biso   1.000  C
  C444     1.0000 0.74350  0.29290  0.07580  Biso   1.000  C
  C445     1.0000 0.61690  0.30190  0.11600  Biso   1.000  C
  C446     1.0000 0.57550  0.27090  0.07560  Biso   1.000  C
  C447     1.0000 0.58580  0.27053  0.04113  Biso   1.000  C
  C448     1.0000 0.44290  0.23910  0.98920  Biso   1.000  C
  C449     1.0000 0.42740  0.22040  0.94020  Biso   1.000  C
  C450     1.0000 0.42680  0.25070  0.92390  Biso   1.000  C
  C451     1.0000 0.56680  0.36820  0.09340  Biso   1.000  C
  C452     1.0000 0.59890  0.39250  0.08820  Biso   1.000  C
  C453     1.0000 0.57620  0.39320  0.04820  Biso   1.000  C
  C454     1.0000 0.42863  0.36183  0.06720  Biso   1.000  C
  C455     1.0000 0.41290  0.38750  0.05320  Biso   1.000  C
  C456     1.0000 0.42730  0.39220  0.02310  Biso   1.000  C
  C457     1.0000 0.57950  0.15313  0.57983  Biso   1.000  C
  C458     1.0000 0.57413  0.07980  0.58393  Biso   1.000  C
  C459     1.0000 0.62421  0.29908  0.79241  Biso   1.000  C
  C460     1.0000 0.51212  0.15610  0.76350  Biso   1.000  C
  C461     1.0000 0.59593  0.15643  0.66010  Biso   1.000  C
  C462     1.0000 0.67033  0.18468  0.80835  Biso   1.000  C
  C463     1.0000 0.71100  0.06230  0.78790  Biso   1.000  C
  C464     1.0000 0.66480  0.04470  0.76910  Biso   1.000  C
  C465     1.0000 0.65781  0.08158  0.78737  Biso   1.000  C
  C466     1.0000 0.82250  0.17490  0.93640  Biso   1.000  C
  C467     1.0000 0.81860  0.19970  0.97190  Biso   1.000  C
  C468     1.0000 0.78290  0.20710  0.95060  Biso   1.000  C
  C469     1.0000 0.81410  0.19810  0.81500  Biso   1.000  C
  C470     1.0000 0.80470  0.22910  0.80460  Biso   1.000  C
  C471     1.0000 0.77060  0.22947  0.81527  Biso   1.000  C
  C472     1.0000 0.75010  0.26090  0.70380  Biso   1.000  C
  C473     1.0000 0.71980  0.27960  0.70700  Biso   1.000  C
  C474     1.0000 0.67320  0.24930  0.67610  Biso   1.000  C
  C475     1.0000 0.72520  0.13180  0.69860  Biso   1.000  C
  C476     1.0000 0.69570  0.10750  0.70640  Biso   1.000  C
  C477     1.0000 0.65500  0.10680  0.68300  Biso   1.000  C
  C478     1.0000 0.70537  0.13817  0.56680  Biso   1.000  C
  C479     1.0000 0.66570  0.11250  0.52540  Biso   1.000  C
  C480     1.0000 0.63090  0.10780  0.53510  Biso   1.000  C
  C481     1.0000 0.34687  0.42637  0.92670  Biso   1.000  C
  C482     1.0000 0.42020  0.49433  0.00413  Biso   1.000  C
  C483     1.0000 0.20092  0.32513  0.99333  Biso   1.000  C
  C484     1.0000 0.34390  0.35602  0.10740  Biso   1.000  C
  C485     1.0000 0.34357  0.43950  0.00367  Biso   1.000  C
  C486     1.0000 0.31532  0.48565  0.12367  Biso   1.000  C
  C487     1.0000 0.43770  0.64870  0.22560  Biso   1.000  C
  C488     1.0000 0.45530  0.62010  0.22440  Biso   1.000  C
  C489     1.0000 0.41842  0.57623  0.20579  Biso   1.000  C
  C490     1.0000 0.32510  0.64760  0.26150  Biso   1.000  C
  C491     1.0000 0.30030  0.61890  0.27220  Biso   1.000  C
  C492     1.0000 0.29290  0.57580  0.24350  Biso   1.000  C
  C493     1.0000 0.30190  0.61600  0.11690  Biso   1.000  C
  C494     1.0000 0.27090  0.57560  0.07550  Biso   1.000  C
  C495     1.0000 0.27053  0.54113  0.08580  Biso   1.000  C
  C496     1.0000 0.23910  0.48920  0.94290  Biso   1.000  C
  C497     1.0000 0.22040  0.44020  0.92740  Biso   1.000  C
  C498     1.0000 0.25070  0.42390  0.92680  Biso   1.000  C
  C499     1.0000 0.36820  0.59340  0.06680  Biso   1.000  C
  C500     1.0000 0.39250  0.58820  0.09890  Biso   1.000  C
  C501     1.0000 0.39320  0.54820  0.07620  Biso   1.000  C
  C502     1.0000 0.36183  0.56720  0.92863  Biso   1.000  C
  C503     1.0000 0.38750  0.55320  0.91290  Biso   1.000  C
  C504     1.0000 0.39220  0.52310  0.92730  Biso   1.000  C
  C505     1.0000 0.15313  0.07983  0.07950  Biso   1.000  C
  C506     1.0000 0.07980  0.08393  0.07413  Biso   1.000  C
  C507     1.0000 0.29908  0.29241  0.12421  Biso   1.000  C
  C508     1.0000 0.15610  0.26350  0.01212  Biso   1.000  C
  C509     1.0000 0.15643  0.16010  0.09593  Biso   1.000  C
  C510     1.0000 0.18468  0.30835  0.17033  Biso   1.000  C
  C511     1.0000 0.06230  0.28790  0.21100  Biso   1.000  C
  C512     1.0000 0.04470  0.26910  0.16480  Biso   1.000  C
  C513     1.0000 0.08158  0.28737  0.15781  Biso   1.000  C
  C514     1.0000 0.17490  0.43640  0.32250  Biso   1.000  C
  C515     1.0000 0.19970  0.47190  0.31860  Biso   1.000  C
  C516     1.0000 0.20710  0.45060  0.28290  Biso   1.000  C
  C517     1.0000 0.19810  0.31500  0.31410  Biso   1.000  C
  C518     1.0000 0.22910  0.30460  0.30470  Biso   1.000  C
  C519     1.0000 0.22947  0.31527  0.27060  Biso   1.000  C
  C520     1.0000 0.26090  0.20380  0.25010  Biso   1.000  C
  C521     1.0000 0.27960  0.20700  0.21980  Biso   1.000  C
  C522     1.0000 0.24930  0.17610  0.17320  Biso   1.000  C
  C523     1.0000 0.13180  0.19860  0.22520  Biso   1.000  C
  C524     1.0000 0.10750  0.20640  0.19570  Biso   1.000  C
  C525     1.0000 0.10680  0.18300  0.15500  Biso   1.000  C
  C526     1.0000 0.13817  0.06680  0.20537  Biso   1.000  C
  C527     1.0000 0.11250  0.02540  0.16570  Biso   1.000  C
  C528     1.0000 0.10780  0.03510  0.13090  Biso   1.000  C
  C529     1.0000 0.50033  0.07363  0.42050  Biso   1.000  C
  C530     1.0000 0.50980  0.00567  0.42587  Biso   1.000  C
  C531     1.0000 0.66820  0.17487  0.37579  Biso   1.000  C
  C532     1.0000 0.75138  0.14398  0.48788  Biso   1.000  C
  C533     1.0000 0.56417  0.06050  0.40407  Biso   1.000  C
  C534     1.0000 0.63802  0.01435  0.32967  Biso   1.000  C
  C535     1.0000 0.57690  0.85130  0.28900  Biso   1.000  C
  C536     1.0000 0.60430  0.87990  0.33520  Biso   1.000  C
  C537     1.0000 0.62956  0.92377  0.34219  Biso   1.000  C
  C538     1.0000 0.61390  0.85240  0.17750  Biso   1.000  C
  C539     1.0000 0.65330  0.88110  0.18140  Biso   1.000  C
  C540     1.0000 0.66770  0.92420  0.21710  Biso   1.000  C
  C541     1.0000 0.50090  0.88400  0.18590  Biso   1.000  C
  C542     1.0000 0.49990  0.92440  0.19530  Biso   1.000  C
  C543     1.0000 0.54467  0.95887  0.22940  Biso   1.000  C
  C544     1.0000 0.45370  0.01080  0.24990  Biso   1.000  C
  C545     1.0000 0.48720  0.05980  0.28020  Biso   1.000  C
  C546     1.0000 0.50290  0.07610  0.32680  Biso   1.000  C
  C547     1.0000 0.47340  0.90660  0.27480  Biso   1.000  C
  C548     1.0000 0.51070  0.91180  0.30430  Biso   1.000  C
  C549     1.0000 0.52800  0.95180  0.34500  Biso   1.000  C
  C550     1.0000 0.36143  0.93280  0.29463  Biso   1.000  C
  C551     1.0000 0.35970  0.94680  0.33430  Biso   1.000  C
  C552     1.0000 0.40420  0.97690  0.36910  Biso   1.000  C
  C553     1.0000 0.99967  0.42017  0.57330  Biso   1.000  C
  C554     1.0000 0.99020  0.41607  0.49587  Biso   1.000  C
  C555     1.0000 0.83180  0.20759  0.50667  Biso   1.000  C
  C556     1.0000 0.74862  0.23650  0.39260  Biso   1.000  C
  C557     1.0000 0.93583  0.33990  0.49633  Biso   1.000  C
  C558     1.0000 0.86198  0.19165  0.37633  Biso   1.000  C
  C559     1.0000 0.92310  0.21210  0.27440  Biso   1.000  C
  C560     1.0000 0.89570  0.23090  0.27560  Biso   1.000  C
  C561     1.0000 0.87044  0.21263  0.29421  Biso   1.000  C
  C562     1.0000 0.88610  0.06360  0.23850  Biso   1.000  C
  C563     1.0000 0.84670  0.02810  0.22780  Biso   1.000  C
  C564     1.0000 0.83230  0.04940  0.25650  Biso   1.000  C
  C565     1.0000 0.99910  0.18500  0.38310  Biso   1.000  C
  C566     1.0000 0.00010  0.19540  0.42450  Biso   1.000  C
  C567     1.0000 0.95533  0.18473  0.41420  Biso   1.000  C
  C568     1.0000 0.04630  0.29620  0.55710  Biso   1.000  C
  C569     1.0000 0.01280  0.29300  0.57260  Biso   1.000  C
  C570     1.0000 0.99710  0.32390  0.57320  Biso   1.000  C
  C571     1.0000 0.02660  0.30140  0.43320  Biso   1.000  C
  C572     1.0000 0.98930  0.29360  0.40110  Biso   1.000  C
  C573     1.0000 0.97200  0.31700  0.42380  Biso   1.000  C
  C574     1.0000 0.13857  0.43320  0.57137  Biso   1.000  C
  C575     1.0000 0.14030  0.47460  0.58710  Biso   1.000  C
  C576     1.0000 0.09580  0.46490  0.57270  Biso   1.000  C
  N1       1.0000 0.44665  0.60420  0.50025  Biso   1.000  N
  N2       1.0000 0.45378  0.49566  0.51200  Biso   1.000  N
  N3       1.0000 0.38657  0.64774  0.65851  Biso   1.000  N
  N4       1.0000 0.46064  0.62790  0.71430  Biso   1.000  N
  N5       1.0000 0.41546  0.58237  0.60127  Biso   1.000  N
  N6       1.0000 0.35849  0.54450  0.64227  Biso   1.000  N
  N7       1.0000 0.26876  0.37586  0.58564  Biso   1.000  N
  N8       1.0000 0.30167  0.42138  0.61905  Biso   1.000  N
  N9       1.0000 0.20785  0.37675  0.60454  Biso   1.000  N
  N10      1.0000 0.23300  0.42196  0.63922  Biso   1.000  N
  N11      1.0000 0.21262  0.39432  0.54356  Biso   1.000  N
  N12      1.0000 0.23920  0.44067  0.57091  Biso   1.000  N
  N13      1.0000 0.28448  0.50223  0.45479  Biso   1.000  N
  N14      1.0000 0.32947  0.53731  0.48608  Biso   1.000  N
  N15      1.0000 0.29367  0.44041  0.46584  Biso   1.000  N
  N16      1.0000 0.33833  0.46890  0.50033  Biso   1.000  N
  N17      1.0000 0.30544  0.45501  0.40533  Biso   1.000  N
  N18      1.0000 0.35147  0.48304  0.43283  Biso   1.000  N
  N19      1.0000 0.60395  0.94640  0.99975  Biso   1.000  N
  N20      1.0000 0.48366  0.94178  0.98800  Biso   1.000  N
  N21      1.0000 0.48923  0.72806  0.84149  Biso   1.000  N
  N22      1.0000 0.41360  0.74634  0.78570  Biso   1.000  N
  N23      1.0000 0.48110  0.81419  0.89873  Biso   1.000  N
  N24      1.0000 0.40223  0.71622  0.85773  Biso   1.000  N
  N25      1.0000 0.29022  0.68312  0.91436  Biso   1.000  N
  N26      1.0000 0.30233  0.68262  0.88095  Biso   1.000  N
  N27      1.0000 0.27221  0.60331  0.89546  Biso   1.000  N
  N28      1.0000 0.28274  0.59378  0.86078  Biso   1.000  N
  N29      1.0000 0.35076  0.66906  0.95644  Biso   1.000  N
  N30      1.0000 0.36976  0.66829  0.92909  Biso   1.000  N
  N31      1.0000 0.54744  0.82969  0.04521  Biso   1.000  N
  N32      1.0000 0.55123  0.84339  0.01392  Biso   1.000  N
  N33      1.0000 0.47457  0.82783  0.03416  Biso   1.000  N
  N34      1.0000 0.46857  0.83800  0.99967  Biso   1.000  N
  N35      1.0000 0.54968  0.90011  0.09467  Biso   1.000  N
  N36      1.0000 0.55021  0.91864  0.06717  Biso   1.000  N
  N37      1.0000 0.89605  0.89580  0.34245  Biso   1.000  N
  N38      1.0000 0.01634  0.00434  0.45812  Biso   1.000  N
  N39      1.0000 0.01077  0.85226  0.23883  Biso   1.000  N
  N40      1.0000 0.08640  0.87210  0.33274  Biso   1.000  N
  N41      1.0000 0.01890  0.91763  0.33309  Biso   1.000  N
  N42      1.0000 0.09777  0.95550  0.31399  Biso   1.000  N
  N43      1.0000 0.20978  0.12414  0.39290  Biso   1.000  N
  N44      1.0000 0.19767  0.07862  0.38029  Biso   1.000  N
  N45      1.0000 0.22779  0.12325  0.33110  Biso   1.000  N
  N46      1.0000 0.21726  0.07804  0.31104  Biso   1.000  N
  N47      1.0000 0.14924  0.10568  0.31830  Biso   1.000  N
  N48      1.0000 0.13024  0.05933  0.29853  Biso   1.000  N
  N49      1.0000 0.95256  0.99777  0.28225  Biso   1.000  N
  N50      1.0000 0.94877  0.96269  0.29216  Biso   1.000  N
  N51      1.0000 0.02543  0.05959  0.35326  Biso   1.000  N
  N52      1.0000 0.03143  0.03110  0.36943  Biso   1.000  N
  N53      1.0000 0.95032  0.04499  0.35043  Biso   1.000  N
  N54      1.0000 0.94979  0.01696  0.36843  Biso   1.000  N
  N55      1.0000 0.05335  0.55360  0.15755  Biso   1.000  N
  N56      1.0000 0.04622  0.55822  0.04188  Biso   1.000  N
  N57      1.0000 0.11343  0.77194  0.26117  Biso   1.000  N
  N58      1.0000 0.03936  0.75366  0.16726  Biso   1.000  N
  N59      1.0000 0.08454  0.68581  0.16691  Biso   1.000  N
  N60      1.0000 0.14151  0.78378  0.18601  Biso   1.000  N
  N61      1.0000 0.23124  0.81688  0.10710  Biso   1.000  N
  N62      1.0000 0.19833  0.81738  0.11971  Biso   1.000  N
  N63      1.0000 0.29215  0.89669  0.16890  Biso   1.000  N
  N64      1.0000 0.26700  0.90622  0.18896  Biso   1.000  N
  N65      1.0000 0.28738  0.83094  0.18170  Biso   1.000  N
  N66      1.0000 0.26080  0.83171  0.20147  Biso   1.000  N
  N67      1.0000 0.21552  0.67031  0.21775  Biso   1.000  N
  N68      1.0000 0.17053  0.65661  0.20784  Biso   1.000  N
  N69      1.0000 0.20633  0.67217  0.14674  Biso   1.000  N
  N70      1.0000 0.16167  0.66200  0.13057  Biso   1.000  N
  N71      1.0000 0.19456  0.59989  0.14957  Biso   1.000  N
  N72      1.0000 0.14853  0.58136  0.13157  Biso   1.000  N
  N73      1.0000 0.84245  0.89605  0.39580  Biso   1.000  N
  N74      1.0000 0.95812  0.01634  0.50434  Biso   1.000  N
  N75      1.0000 0.73883  0.01077  0.35226  Biso   1.000  N
  N76      1.0000 0.83274  0.08640  0.37210  Biso   1.000  N
  N77      1.0000 0.83309  0.01890  0.41763  Biso   1.000  N
  N78      1.0000 0.81399  0.09777  0.45550  Biso   1.000  N
  N79      1.0000 0.89290  0.20978  0.62414  Biso   1.000  N
  N80      1.0000 0.88029  0.19767  0.57862  Biso   1.000  N
  N81      1.0000 0.83110  0.22779  0.62325  Biso   1.000  N
  N82      1.0000 0.81104  0.21726  0.57804  Biso   1.000  N
  N83      1.0000 0.81830  0.14924  0.60568  Biso   1.000  N
  N84      1.0000 0.79853  0.13024  0.55933  Biso   1.000  N
  N85      1.0000 0.78225  0.95256  0.49777  Biso   1.000  N
  N86      1.0000 0.79216  0.94877  0.46269  Biso   1.000  N
  N87      1.0000 0.85326  0.02543  0.55959  Biso   1.000  N
  N88      1.0000 0.86943  0.03143  0.53110  Biso   1.000  N
  N89      1.0000 0.85043  0.95032  0.54499  Biso   1.000  N
  N90      1.0000 0.86843  0.94979  0.51696  Biso   1.000  N
  N91      1.0000 0.65755  0.05335  0.05360  Biso   1.000  N
  N92      1.0000 0.54188  0.04622  0.05822  Biso   1.000  N
  N93      1.0000 0.76117  0.11343  0.27194  Biso   1.000  N
  N94      1.0000 0.66726  0.03936  0.25366  Biso   1.000  N
  N95      1.0000 0.66691  0.08454  0.18581  Biso   1.000  N
  N96      1.0000 0.68601  0.14151  0.28378  Biso   1.000  N
  N97      1.0000 0.60710  0.23124  0.31688  Biso   1.000  N
  N98      1.0000 0.61971  0.19833  0.31738  Biso   1.000  N
  N99      1.0000 0.66890  0.29215  0.39669  Biso   1.000  N
  N100     1.0000 0.68896  0.26700  0.40622  Biso   1.000  N
  N101     1.0000 0.68170  0.28738  0.33094  Biso   1.000  N
  N102     1.0000 0.70147  0.26080  0.33171  Biso   1.000  N
  N103     1.0000 0.71775  0.21552  0.17031  Biso   1.000  N
  N104     1.0000 0.70784  0.17053  0.15661  Biso   1.000  N
  N105     1.0000 0.64674  0.20633  0.17217  Biso   1.000  N
  N106     1.0000 0.63057  0.16167  0.16200  Biso   1.000  N
  N107     1.0000 0.64957  0.19456  0.09989  Biso   1.000  N
  N108     1.0000 0.63157  0.14853  0.08136  Biso   1.000  N
  N109     1.0000 0.00025  0.44665  0.10420  Biso   1.000  N
  N110     1.0000 0.01200  0.45378  0.99566  Biso   1.000  N
  N111     1.0000 0.15851  0.38657  0.14774  Biso   1.000  N
  N112     1.0000 0.21430  0.46064  0.12790  Biso   1.000  N
  N113     1.0000 0.10127  0.41546  0.08237  Biso   1.000  N
  N114     1.0000 0.14227  0.35849  0.04450  Biso   1.000  N
  N115     1.0000 0.08564  0.26876  0.87586  Biso   1.000  N
  N116     1.0000 0.11905  0.30167  0.92138  Biso   1.000  N
  N117     1.0000 0.10454  0.20785  0.87675  Biso   1.000  N
  N118     1.0000 0.13922  0.23300  0.92196  Biso   1.000  N
  N119     1.0000 0.04356  0.21262  0.89432  Biso   1.000  N
  N120     1.0000 0.07091  0.23920  0.94067  Biso   1.000  N
  N121     1.0000 0.95479  0.28448  0.00223  Biso   1.000  N
  N122     1.0000 0.98608  0.32947  0.03731  Biso   1.000  N
  N123     1.0000 0.96584  0.29367  0.94041  Biso   1.000  N
  N124     1.0000 0.00033  0.33833  0.96890  Biso   1.000  N
  N125     1.0000 0.90533  0.30544  0.95501  Biso   1.000  N
  N126     1.0000 0.93283  0.35147  0.98304  Biso   1.000  N
  N127     1.0000 0.49975  0.60395  0.44640  Biso   1.000  N
  N128     1.0000 0.48800  0.48366  0.44178  Biso   1.000  N
  N129     1.0000 0.34149  0.48923  0.22806  Biso   1.000  N
  N130     1.0000 0.28570  0.41360  0.24634  Biso   1.000  N
  N131     1.0000 0.39873  0.48110  0.31419  Biso   1.000  N
  N132     1.0000 0.35773  0.40223  0.21622  Biso   1.000  N
  N133     1.0000 0.41436  0.29022  0.18312  Biso   1.000  N
  N134     1.0000 0.38095  0.30233  0.18262  Biso   1.000  N
  N135     1.0000 0.39546  0.27221  0.10331  Biso   1.000  N
  N136     1.0000 0.36078  0.28274  0.09378  Biso   1.000  N
  N137     1.0000 0.45644  0.35076  0.16906  Biso   1.000  N
  N138     1.0000 0.42909  0.36976  0.16829  Biso   1.000  N
  N139     1.0000 0.54521  0.54744  0.32969  Biso   1.000  N
  N140     1.0000 0.51392  0.55123  0.34339  Biso   1.000  N
  N141     1.0000 0.53416  0.47457  0.32783  Biso   1.000  N
  N142     1.0000 0.49967  0.46857  0.33800  Biso   1.000  N
  N143     1.0000 0.59467  0.54968  0.40011  Biso   1.000  N
  N144     1.0000 0.56717  0.55021  0.41864  Biso   1.000  N
  N145     1.0000 0.94640  0.49975  0.10395  Biso   1.000  N
  N146     1.0000 0.94178  0.48800  0.98366  Biso   1.000  N
  N147     1.0000 0.72806  0.34149  0.98923  Biso   1.000  N
  N148     1.0000 0.74634  0.28570  0.91360  Biso   1.000  N
  N149     1.0000 0.81419  0.39873  0.98110  Biso   1.000  N
  N150     1.0000 0.71622  0.35773  0.90223  Biso   1.000  N
  N151     1.0000 0.68312  0.41436  0.79022  Biso   1.000  N
  N152     1.0000 0.68262  0.38095  0.80233  Biso   1.000  N
  N153     1.0000 0.60331  0.39546  0.77221  Biso   1.000  N
  N154     1.0000 0.59378  0.36078  0.78274  Biso   1.000  N
  N155     1.0000 0.66906  0.45644  0.85076  Biso   1.000  N
  N156     1.0000 0.66829  0.42909  0.86976  Biso   1.000  N
  N157     1.0000 0.82969  0.54521  0.04744  Biso   1.000  N
  N158     1.0000 0.84339  0.51392  0.05123  Biso   1.000  N
  N159     1.0000 0.82783  0.53416  0.97457  Biso   1.000  N
  N160     1.0000 0.83800  0.49967  0.96857  Biso   1.000  N
  N161     1.0000 0.90011  0.59467  0.04968  Biso   1.000  N
  N162     1.0000 0.91864  0.56717  0.05021  Biso   1.000  N
  N163     1.0000 0.60420  0.00025  0.94665  Biso   1.000  N
  N164     1.0000 0.49566  0.01200  0.95378  Biso   1.000  N
  N165     1.0000 0.64774  0.15851  0.88657  Biso   1.000  N
  N166     1.0000 0.62790  0.21430  0.96064  Biso   1.000  N
  N167     1.0000 0.58237  0.10127  0.91546  Biso   1.000  N
  N168     1.0000 0.54450  0.14227  0.85849  Biso   1.000  N
  N169     1.0000 0.37586  0.08564  0.76876  Biso   1.000  N
  N170     1.0000 0.42138  0.11905  0.80167  Biso   1.000  N
  N171     1.0000 0.37675  0.10454  0.70785  Biso   1.000  N
  N172     1.0000 0.42196  0.13922  0.73300  Biso   1.000  N
  N173     1.0000 0.39432  0.04356  0.71262  Biso   1.000  N
  N174     1.0000 0.44067  0.07091  0.73920  Biso   1.000  N
  N175     1.0000 0.50223  0.95479  0.78448  Biso   1.000  N
  N176     1.0000 0.53731  0.98608  0.82947  Biso   1.000  N
  N177     1.0000 0.44041  0.96584  0.79367  Biso   1.000  N
  N178     1.0000 0.46890  0.00033  0.83833  Biso   1.000  N
  N179     1.0000 0.45501  0.90533  0.80544  Biso   1.000  N
  N180     1.0000 0.48304  0.93283  0.85147  Biso   1.000  N
  N181     1.0000 0.55360  0.65755  0.55335  Biso   1.000  N
  N182     1.0000 0.55822  0.54188  0.54622  Biso   1.000  N
  N183     1.0000 0.77194  0.76117  0.61343  Biso   1.000  N
  N184     1.0000 0.75366  0.66726  0.53936  Biso   1.000  N
  N185     1.0000 0.68581  0.66691  0.58454  Biso   1.000  N
  N186     1.0000 0.78378  0.68601  0.64151  Biso   1.000  N
  N187     1.0000 0.81688  0.60710  0.73124  Biso   1.000  N
  N188     1.0000 0.81738  0.61971  0.69833  Biso   1.000  N
  N189     1.0000 0.89669  0.66890  0.79215  Biso   1.000  N
  N190     1.0000 0.90622  0.68896  0.76700  Biso   1.000  N
  N191     1.0000 0.83094  0.68170  0.78738  Biso   1.000  N
  N192     1.0000 0.83171  0.70147  0.76080  Biso   1.000  N
  N193     1.0000 0.67031  0.71775  0.71552  Biso   1.000  N
  N194     1.0000 0.65661  0.70784  0.67053  Biso   1.000  N
  N195     1.0000 0.67217  0.64674  0.70633  Biso   1.000  N
  N196     1.0000 0.66200  0.63057  0.66167  Biso   1.000  N
  N197     1.0000 0.59989  0.64957  0.69456  Biso   1.000  N
  N198     1.0000 0.58136  0.63157  0.64853  Biso   1.000  N
  N199     1.0000 0.89580  0.84245  0.39605  Biso   1.000  N
  N200     1.0000 0.00434  0.95812  0.51634  Biso   1.000  N
  N201     1.0000 0.85226  0.73883  0.51077  Biso   1.000  N
  N202     1.0000 0.87210  0.83274  0.58640  Biso   1.000  N
  N203     1.0000 0.91763  0.83309  0.51890  Biso   1.000  N
  N204     1.0000 0.95550  0.81399  0.59777  Biso   1.000  N
  N205     1.0000 0.12414  0.89290  0.70978  Biso   1.000  N
  N206     1.0000 0.07862  0.88029  0.69767  Biso   1.000  N
  N207     1.0000 0.12325  0.83110  0.72779  Biso   1.000  N
  N208     1.0000 0.07804  0.81104  0.71726  Biso   1.000  N
  N209     1.0000 0.10568  0.81830  0.64924  Biso   1.000  N
  N210     1.0000 0.05933  0.79853  0.63024  Biso   1.000  N
  N211     1.0000 0.99777  0.78225  0.45256  Biso   1.000  N
  N212     1.0000 0.96269  0.79216  0.44877  Biso   1.000  N
  N213     1.0000 0.05959  0.85326  0.52543  Biso   1.000  N
  N214     1.0000 0.03110  0.86943  0.53143  Biso   1.000  N
  N215     1.0000 0.04499  0.85043  0.45032  Biso   1.000  N
  N216     1.0000 0.01696  0.86843  0.44979  Biso   1.000  N
  N217     1.0000 0.44640  0.10395  0.49975  Biso   1.000  N
  N218     1.0000 0.44178  0.98366  0.48800  Biso   1.000  N
  N219     1.0000 0.22806  0.98923  0.34149  Biso   1.000  N
  N220     1.0000 0.24634  0.91360  0.28570  Biso   1.000  N
  N221     1.0000 0.31419  0.98110  0.39873  Biso   1.000  N
  N222     1.0000 0.21622  0.90223  0.35773  Biso   1.000  N
  N223     1.0000 0.18312  0.79022  0.41436  Biso   1.000  N
  N224     1.0000 0.18262  0.80233  0.38095  Biso   1.000  N
  N225     1.0000 0.10331  0.77221  0.39546  Biso   1.000  N
  N226     1.0000 0.09378  0.78274  0.36078  Biso   1.000  N
  N227     1.0000 0.16906  0.85076  0.45644  Biso   1.000  N
  N228     1.0000 0.16829  0.86976  0.42909  Biso   1.000  N
  N229     1.0000 0.32969  0.04744  0.54521  Biso   1.000  N
  N230     1.0000 0.34339  0.05123  0.51392  Biso   1.000  N
  N231     1.0000 0.32783  0.97457  0.53416  Biso   1.000  N
  N232     1.0000 0.33800  0.96857  0.49967  Biso   1.000  N
  N233     1.0000 0.40011  0.04968  0.59467  Biso   1.000  N
  N234     1.0000 0.41864  0.05021  0.56717  Biso   1.000  N
  N235     1.0000 0.10420  0.94665  0.00025  Biso   1.000  N
  N236     1.0000 0.99566  0.95378  0.01200  Biso   1.000  N
  N237     1.0000 0.14774  0.88657  0.15851  Biso   1.000  N
  N238     1.0000 0.12790  0.96064  0.21430  Biso   1.000  N
  N239     1.0000 0.08237  0.91546  0.10127  Biso   1.000  N
  N240     1.0000 0.04450  0.85849  0.14227  Biso   1.000  N
  N241     1.0000 0.87586  0.76876  0.08564  Biso   1.000  N
  N242     1.0000 0.92138  0.80167  0.11905  Biso   1.000  N
  N243     1.0000 0.87675  0.70785  0.10454  Biso   1.000  N
  N244     1.0000 0.92196  0.73300  0.13922  Biso   1.000  N
  N245     1.0000 0.89432  0.71262  0.04356  Biso   1.000  N
  N246     1.0000 0.94067  0.73920  0.07091  Biso   1.000  N
  N247     1.0000 0.00223  0.78448  0.95479  Biso   1.000  N
  N248     1.0000 0.03731  0.82947  0.98608  Biso   1.000  N
  N249     1.0000 0.94041  0.79367  0.96584  Biso   1.000  N
  N250     1.0000 0.96890  0.83833  0.00033  Biso   1.000  N
  N251     1.0000 0.95501  0.80544  0.90533  Biso   1.000  N
  N252     1.0000 0.98304  0.85147  0.93283  Biso   1.000  N
  N253     1.0000 0.05360  0.55335  0.65755  Biso   1.000  N
  N254     1.0000 0.05822  0.54622  0.54188  Biso   1.000  N
  N255     1.0000 0.27194  0.61343  0.76117  Biso   1.000  N
  N256     1.0000 0.25366  0.53936  0.66726  Biso   1.000  N
  N257     1.0000 0.18581  0.58454  0.66691  Biso   1.000  N
  N258     1.0000 0.28378  0.64151  0.68601  Biso   1.000  N
  N259     1.0000 0.31688  0.73124  0.60710  Biso   1.000  N
  N260     1.0000 0.31738  0.69833  0.61971  Biso   1.000  N
  N261     1.0000 0.39669  0.79215  0.66890  Biso   1.000  N
  N262     1.0000 0.40622  0.76700  0.68896  Biso   1.000  N
  N263     1.0000 0.33094  0.78738  0.68170  Biso   1.000  N
  N264     1.0000 0.33171  0.76080  0.70147  Biso   1.000  N
  N265     1.0000 0.17031  0.71552  0.71775  Biso   1.000  N
  N266     1.0000 0.15661  0.67053  0.70784  Biso   1.000  N
  N267     1.0000 0.17217  0.70633  0.64674  Biso   1.000  N
  N268     1.0000 0.16200  0.66167  0.63057  Biso   1.000  N
  N269     1.0000 0.09989  0.69456  0.64957  Biso   1.000  N
  N270     1.0000 0.08136  0.64853  0.63157  Biso   1.000  N
  N271     1.0000 0.39580  0.39605  0.84245  Biso   1.000  N
  N272     1.0000 0.50434  0.51634  0.95812  Biso   1.000  N
  N273     1.0000 0.35226  0.51077  0.73883  Biso   1.000  N
  N274     1.0000 0.37210  0.58640  0.83274  Biso   1.000  N
  N275     1.0000 0.41763  0.51890  0.83309  Biso   1.000  N
  N276     1.0000 0.45550  0.59777  0.81399  Biso   1.000  N
  N277     1.0000 0.62414  0.70978  0.89290  Biso   1.000  N
  N278     1.0000 0.57862  0.69767  0.88029  Biso   1.000  N
  N279     1.0000 0.62325  0.72779  0.83110  Biso   1.000  N
  N280     1.0000 0.57804  0.71726  0.81104  Biso   1.000  N
  N281     1.0000 0.60568  0.64924  0.81830  Biso   1.000  N
  N282     1.0000 0.55933  0.63024  0.79853  Biso   1.000  N
  N283     1.0000 0.49777  0.45256  0.78225  Biso   1.000  N
  N284     1.0000 0.46269  0.44877  0.79216  Biso   1.000  N
  N285     1.0000 0.55959  0.52543  0.85326  Biso   1.000  N
  N286     1.0000 0.53110  0.53143  0.86943  Biso   1.000  N
  N287     1.0000 0.54499  0.45032  0.85043  Biso   1.000  N
  N288     1.0000 0.51696  0.44979  0.86843  Biso   1.000  N
  N289     1.0000 0.94665  0.50025  0.60420  Biso   1.000  N
  N290     1.0000 0.95378  0.51200  0.49566  Biso   1.000  N
  N291     1.0000 0.88657  0.65851  0.64774  Biso   1.000  N
  N292     1.0000 0.96064  0.71430  0.62790  Biso   1.000  N
  N293     1.0000 0.91546  0.60127  0.58237  Biso   1.000  N
  N294     1.0000 0.85849  0.64227  0.54450  Biso   1.000  N
  N295     1.0000 0.76876  0.58564  0.37586  Biso   1.000  N
  N296     1.0000 0.80167  0.61905  0.42138  Biso   1.000  N
  N297     1.0000 0.70785  0.60454  0.37675  Biso   1.000  N
  N298     1.0000 0.73300  0.63922  0.42196  Biso   1.000  N
  N299     1.0000 0.71262  0.54356  0.39432  Biso   1.000  N
  N300     1.0000 0.73920  0.57091  0.44067  Biso   1.000  N
  N301     1.0000 0.78448  0.45479  0.50223  Biso   1.000  N
  N302     1.0000 0.82947  0.48608  0.53731  Biso   1.000  N
  N303     1.0000 0.79367  0.46584  0.44041  Biso   1.000  N
  N304     1.0000 0.83833  0.50033  0.46890  Biso   1.000  N
  N305     1.0000 0.80544  0.40533  0.45501  Biso   1.000  N
  N306     1.0000 0.85147  0.43283  0.48304  Biso   1.000  N
  N307     1.0000 0.10395  0.99975  0.94640  Biso   1.000  N
  N308     1.0000 0.98366  0.98800  0.94178  Biso   1.000  N
  N309     1.0000 0.98923  0.84149  0.72806  Biso   1.000  N
  N310     1.0000 0.91360  0.78570  0.74634  Biso   1.000  N
  N311     1.0000 0.98110  0.89873  0.81419  Biso   1.000  N
  N312     1.0000 0.90223  0.85773  0.71622  Biso   1.000  N
  N313     1.0000 0.79022  0.91436  0.68312  Biso   1.000  N
  N314     1.0000 0.80233  0.88095  0.68262  Biso   1.000  N
  N315     1.0000 0.77221  0.89546  0.60331  Biso   1.000  N
  N316     1.0000 0.78274  0.86078  0.59378  Biso   1.000  N
  N317     1.0000 0.85076  0.95644  0.66906  Biso   1.000  N
  N318     1.0000 0.86976  0.92909  0.66829  Biso   1.000  N
  N319     1.0000 0.04744  0.04521  0.82969  Biso   1.000  N
  N320     1.0000 0.05123  0.01392  0.84339  Biso   1.000  N
  N321     1.0000 0.97457  0.03416  0.82783  Biso   1.000  N
  N322     1.0000 0.96857  0.99967  0.83800  Biso   1.000  N
  N323     1.0000 0.04968  0.09467  0.90011  Biso   1.000  N
  N324     1.0000 0.05021  0.06717  0.91864  Biso   1.000  N
  N325     1.0000 0.39605  0.34245  0.89580  Biso   1.000  N
  N326     1.0000 0.51634  0.45812  0.00434  Biso   1.000  N
  N327     1.0000 0.51077  0.23883  0.85226  Biso   1.000  N
  N328     1.0000 0.58640  0.33274  0.87210  Biso   1.000  N
  N329     1.0000 0.51890  0.33309  0.91763  Biso   1.000  N
  N330     1.0000 0.59777  0.31399  0.95550  Biso   1.000  N
  N331     1.0000 0.70978  0.39290  0.12414  Biso   1.000  N
  N332     1.0000 0.69767  0.38029  0.07862  Biso   1.000  N
  N333     1.0000 0.72779  0.33110  0.12325  Biso   1.000  N
  N334     1.0000 0.71726  0.31104  0.07804  Biso   1.000  N
  N335     1.0000 0.64924  0.31830  0.10568  Biso   1.000  N
  N336     1.0000 0.63024  0.29853  0.05933  Biso   1.000  N
  N337     1.0000 0.45256  0.28225  0.99777  Biso   1.000  N
  N338     1.0000 0.44877  0.29216  0.96269  Biso   1.000  N
  N339     1.0000 0.52543  0.35326  0.05959  Biso   1.000  N
  N340     1.0000 0.53143  0.36943  0.03110  Biso   1.000  N
  N341     1.0000 0.45032  0.35043  0.04499  Biso   1.000  N
  N342     1.0000 0.44979  0.36843  0.01696  Biso   1.000  N
  N343     1.0000 0.55335  0.15755  0.55360  Biso   1.000  N
  N344     1.0000 0.54622  0.04188  0.55822  Biso   1.000  N
  N345     1.0000 0.61343  0.26117  0.77194  Biso   1.000  N
  N346     1.0000 0.53936  0.16726  0.75366  Biso   1.000  N
  N347     1.0000 0.58454  0.16691  0.68581  Biso   1.000  N
  N348     1.0000 0.64151  0.18601  0.78378  Biso   1.000  N
  N349     1.0000 0.73124  0.10710  0.81688  Biso   1.000  N
  N350     1.0000 0.69833  0.11971  0.81738  Biso   1.000  N
  N351     1.0000 0.79215  0.16890  0.89669  Biso   1.000  N
  N352     1.0000 0.76700  0.18896  0.90622  Biso   1.000  N
  N353     1.0000 0.78738  0.18170  0.83094  Biso   1.000  N
  N354     1.0000 0.76080  0.20147  0.83171  Biso   1.000  N
  N355     1.0000 0.71552  0.21775  0.67031  Biso   1.000  N
  N356     1.0000 0.67053  0.20784  0.65661  Biso   1.000  N
  N357     1.0000 0.70633  0.14674  0.67217  Biso   1.000  N
  N358     1.0000 0.66167  0.13057  0.66200  Biso   1.000  N
  N359     1.0000 0.69456  0.14957  0.59989  Biso   1.000  N
  N360     1.0000 0.64853  0.13157  0.58136  Biso   1.000  N
  N361     1.0000 0.34245  0.39580  0.89605  Biso   1.000  N
  N362     1.0000 0.45812  0.50434  0.01634  Biso   1.000  N
  N363     1.0000 0.23883  0.35226  0.01077  Biso   1.000  N
  N364     1.0000 0.33274  0.37210  0.08640  Biso   1.000  N
  N365     1.0000 0.33309  0.41763  0.01890  Biso   1.000  N
  N366     1.0000 0.31399  0.45550  0.09777  Biso   1.000  N
  N367     1.0000 0.39290  0.62414  0.20978  Biso   1.000  N
  N368     1.0000 0.38029  0.57862  0.19767  Biso   1.000  N
  N369     1.0000 0.33110  0.62325  0.22779  Biso   1.000  N
  N370     1.0000 0.31104  0.57804  0.21726  Biso   1.000  N
  N371     1.0000 0.31830  0.60568  0.14924  Biso   1.000  N
  N372     1.0000 0.29853  0.55933  0.13024  Biso   1.000  N
  N373     1.0000 0.28225  0.49777  0.95256  Biso   1.000  N
  N374     1.0000 0.29216  0.46269  0.94877  Biso   1.000  N
  N375     1.0000 0.35326  0.55959  0.02543  Biso   1.000  N
  N376     1.0000 0.36943  0.53110  0.03143  Biso   1.000  N
  N377     1.0000 0.35043  0.54499  0.95032  Biso   1.000  N
  N378     1.0000 0.36843  0.51696  0.94979  Biso   1.000  N
  N379     1.0000 0.15755  0.05360  0.05335  Biso   1.000  N
  N380     1.0000 0.04188  0.05822  0.04622  Biso   1.000  N
  N381     1.0000 0.26117  0.27194  0.11343  Biso   1.000  N
  N382     1.0000 0.16726  0.25366  0.03936  Biso   1.000  N
  N383     1.0000 0.16691  0.18581  0.08454  Biso   1.000  N
  N384     1.0000 0.18601  0.28378  0.14151  Biso   1.000  N
  N385     1.0000 0.10710  0.31688  0.23124  Biso   1.000  N
  N386     1.0000 0.11971  0.31738  0.19833  Biso   1.000  N
  N387     1.0000 0.16890  0.39669  0.29215  Biso   1.000  N
  N388     1.0000 0.18896  0.40622  0.26700  Biso   1.000  N
  N389     1.0000 0.18170  0.33094  0.28738  Biso   1.000  N
  N390     1.0000 0.20147  0.33171  0.26080  Biso   1.000  N
  N391     1.0000 0.21775  0.17031  0.21552  Biso   1.000  N
  N392     1.0000 0.20784  0.15661  0.17053  Biso   1.000  N
  N393     1.0000 0.14674  0.17217  0.20633  Biso   1.000  N
  N394     1.0000 0.13057  0.16200  0.16167  Biso   1.000  N
  N395     1.0000 0.14957  0.09989  0.19456  Biso   1.000  N
  N396     1.0000 0.13157  0.08136  0.14853  Biso   1.000  N
  N397     1.0000 0.50025  0.10420  0.44665  Biso   1.000  N
  N398     1.0000 0.51200  0.99566  0.45378  Biso   1.000  N
  N399     1.0000 0.65851  0.14774  0.38657  Biso   1.000  N
  N400     1.0000 0.71430  0.12790  0.46064  Biso   1.000  N
  N401     1.0000 0.60127  0.08237  0.41546  Biso   1.000  N
  N402     1.0000 0.64227  0.04450  0.35849  Biso   1.000  N
  N403     1.0000 0.58564  0.87586  0.26876  Biso   1.000  N
  N404     1.0000 0.61905  0.92138  0.30167  Biso   1.000  N
  N405     1.0000 0.60454  0.87675  0.20785  Biso   1.000  N
  N406     1.0000 0.63922  0.92196  0.23300  Biso   1.000  N
  N407     1.0000 0.54356  0.89432  0.21262  Biso   1.000  N
  N408     1.0000 0.57091  0.94067  0.23920  Biso   1.000  N
  N409     1.0000 0.45479  0.00223  0.28448  Biso   1.000  N
  N410     1.0000 0.48608  0.03731  0.32947  Biso   1.000  N
  N411     1.0000 0.46584  0.94041  0.29367  Biso   1.000  N
  N412     1.0000 0.50033  0.96890  0.33833  Biso   1.000  N
  N413     1.0000 0.40533  0.95501  0.30544  Biso   1.000  N
  N414     1.0000 0.43283  0.98304  0.35147  Biso   1.000  N
  N415     1.0000 0.99975  0.44640  0.60395  Biso   1.000  N
  N416     1.0000 0.98800  0.44178  0.48366  Biso   1.000  N
  N417     1.0000 0.84149  0.22806  0.48923  Biso   1.000  N
  N418     1.0000 0.78570  0.24634  0.41360  Biso   1.000  N
  N419     1.0000 0.89873  0.31419  0.48110  Biso   1.000  N
  N420     1.0000 0.85773  0.21622  0.40223  Biso   1.000  N
  N421     1.0000 0.91436  0.18312  0.29022  Biso   1.000  N
  N422     1.0000 0.88095  0.18262  0.30233  Biso   1.000  N
  N423     1.0000 0.89546  0.10331  0.27221  Biso   1.000  N
  N424     1.0000 0.86078  0.09378  0.28274  Biso   1.000  N
  N425     1.0000 0.95644  0.16906  0.35076  Biso   1.000  N
  N426     1.0000 0.92909  0.16829  0.36976  Biso   1.000  N
  N427     1.0000 0.04521  0.32969  0.54744  Biso   1.000  N
  N428     1.0000 0.01392  0.34339  0.55123  Biso   1.000  N
  N429     1.0000 0.03416  0.32783  0.47457  Biso   1.000  N
  N430     1.0000 0.99967  0.33800  0.46857  Biso   1.000  N
  N431     1.0000 0.09467  0.40011  0.54968  Biso   1.000  N
  N432     1.0000 0.06717  0.41864  0.55021  Biso   1.000  N
  O1       1.0000 0.50000  0.42626  0.50000  Biso   1.000  O
  O2       1.0000 0.42626  0.00000  0.00000  Biso   1.000  O
  O3       1.0000 0.07374  0.07374  0.57374  Biso   1.000  O
  O4       1.0000 0.00000  0.50000  0.92626  Biso   1.000  O
  O5       1.0000 0.50000  0.92626  0.50000  Biso   1.000  O
  O6       1.0000 0.92626  0.00000  0.00000  Biso   1.000  O
  O7       1.0000 0.00000  0.50000  0.42626  Biso   1.000  O
  O8       1.0000 0.57374  0.57374  0.07374  Biso   1.000  O
