data_image0
_cell_length_a       16.015
_cell_length_b       21.146
_cell_length_c       23.843
_cell_angle_alpha    90
_cell_angle_beta     90
_cell_angle_gamma    90

_symmetry_space_group_name_H-M    P 1
_symmetry_int_tables_number       1

loop_
  _symmetry_equiv_pos_as_xyz
  'x, y, z'

loop_
  _atom_site_label
  _atom_site_occupancy
  _atom_site_fract_x
  _atom_site_fract_y
  _atom_site_fract_z
  _atom_site_thermal_displace_type
  _atom_site_B_iso_or_equiv
  _atom_site_type_symbol
  K1       1.0000 0.11901  0.09460  0.92837  Biso   1.000  K
  K2       1.0000 0.38099  0.90540  0.42837  Biso   1.000  K
  K3       1.0000 0.88099  0.59460  0.57163  Biso   1.000  K
  K4       1.0000 0.61901  0.40540  0.07163  Biso   1.000  K
  Co1      1.0000 0.73308  0.88020  0.78581  Biso   1.000  Co
  Co2      1.0000 0.76692  0.11980  0.28581  Biso   1.000  Co
  Co3      1.0000 0.26692  0.38020  0.71419  Biso   1.000  Co
  Co4      1.0000 0.23308  0.61980  0.21419  Biso   1.000  Co
  P1       1.0000 0.49732  0.74022  0.45766  Biso   1.000  P
  P2       1.0000 0.00268  0.25978  0.95766  Biso   1.000  P
  P3       1.0000 0.50268  0.24022  0.04234  Biso   1.000  P
  P4       1.0000 0.99732  0.75978  0.54234  Biso   1.000  P
  H1       1.0000 0.03330  0.85580  0.78750  Biso   1.000  H
  H2       1.0000 0.72370  0.10230  0.84480  Biso   1.000  H
  H3       1.0000 0.59340  0.03930  0.82950  Biso   1.000  H
  H4       1.0000 0.43170  0.84760  0.82780  Biso   1.000  H
  H5       1.0000 0.76340  0.69910  0.69740  Biso   1.000  H
  H6       1.0000 0.81070  0.74610  0.80760  Biso   1.000  H
  H7       1.0000 0.78220  0.80950  0.67060  Biso   1.000  H
  H8       1.0000 0.87460  0.83620  0.66070  Biso   1.000  H
  H9       1.0000 0.85740  0.76160  0.65850  Biso   1.000  H
  H10      1.0000 0.96810  0.70370  0.70600  Biso   1.000  H
  H11      1.0000 0.00190  0.76570  0.67500  Biso   1.000  H
  H12      1.0000 0.05580  0.73380  0.72390  Biso   1.000  H
  H13      1.0000 0.93810  0.71250  0.81380  Biso   1.000  H
  H14      1.0000 0.92760  0.78120  0.84100  Biso   1.000  H
  H15      1.0000 0.10810  0.75890  0.90450  Biso   1.000  H
  H16      1.0000 0.01480  0.77200  0.91010  Biso   1.000  H
  H17      1.0000 0.99010  0.87040  0.67220  Biso   1.000  H
  H18      1.0000 0.01280  0.93220  0.70770  Biso   1.000  H
  H19      1.0000 0.12510  0.82830  0.68800  Biso   1.000  H
  H20      1.0000 0.14810  0.88670  0.72800  Biso   1.000  H
  H21      1.0000 0.16660  0.90210  0.56590  Biso   1.000  H
  H22      1.0000 0.12970  0.84280  0.59260  Biso   1.000  H
  H23      1.0000 0.99960  0.01040  0.84910  Biso   1.000  H
  H24      1.0000 0.03370  0.93950  0.84400  Biso   1.000  H
  H25      1.0000 0.03720  0.98570  0.79090  Biso   1.000  H
  H26      1.0000 0.92850  0.09420  0.79010  Biso   1.000  H
  H27      1.0000 0.88290  0.14440  0.82990  Biso   1.000  H
  H28      1.0000 0.95200  0.09780  0.85520  Biso   1.000  H
  H29      1.0000 0.77430  0.01960  0.91240  Biso   1.000  H
  H30      1.0000 0.81500  0.08770  0.92200  Biso   1.000  H
  H31      1.0000 0.93410  0.93600  0.96680  Biso   1.000  H
  H32      1.0000 0.84760  0.93380  0.94020  Biso   1.000  H
  H33      1.0000 0.80020  0.08210  0.73610  Biso   1.000  H
  H34      1.0000 0.77990  0.14940  0.76370  Biso   1.000  H
  H35      1.0000 0.65560  0.06270  0.72460  Biso   1.000  H
  H36      1.0000 0.63450  0.12900  0.75310  Biso   1.000  H
  H37      1.0000 0.73530  0.19250  0.62230  Biso   1.000  H
  H38      1.0000 0.77900  0.17940  0.67790  Biso   1.000  H
  H39      1.0000 0.43660  0.91410  0.91220  Biso   1.000  H
  H40      1.0000 0.52910  0.88610  0.90670  Biso   1.000  H
  H41      1.0000 0.51560  0.95970  0.91920  Biso   1.000  H
  H42      1.0000 0.44980  0.01240  0.78590  Biso   1.000  H
  H43      1.0000 0.37700  0.98190  0.82320  Biso   1.000  H
  H44      1.0000 0.44490  0.02730  0.85170  Biso   1.000  H
  H45      1.0000 0.44120  0.84310  0.72390  Biso   1.000  H
  H46      1.0000 0.46300  0.91670  0.72570  Biso   1.000  H
  H47      1.0000 0.31930  0.89150  0.70360  Biso   1.000  H
  H48      1.0000 0.33220  0.94430  0.75050  Biso   1.000  H
  H49      1.0000 0.24240  0.78350  0.79120  Biso   1.000  H
  H50      1.0000 0.30280  0.78820  0.74200  Biso   1.000  H
  H51      1.0000 0.44270  0.75960  0.80070  Biso   1.000  H
  H52      1.0000 0.47430  0.72950  0.74290  Biso   1.000  H
  H53      1.0000 0.50320  0.69940  0.80130  Biso   1.000  H
  H54      1.0000 0.61530  0.66440  0.83870  Biso   1.000  H
  H55      1.0000 0.67150  0.60810  0.81460  Biso   1.000  H
  H56      1.0000 0.71490  0.66840  0.84270  Biso   1.000  H
  H57      1.0000 0.64180  0.60950  0.71310  Biso   1.000  H
  H58      1.0000 0.56110  0.64290  0.73870  Biso   1.000  H
  H59      1.0000 0.64800  0.67810  0.63860  Biso   1.000  H
  H60      1.0000 0.58990  0.72920  0.66900  Biso   1.000  H
  H61      1.0000 0.58340  0.63250  0.56830  Biso   1.000  H
  H62      1.0000 0.80370  0.61900  0.79360  Biso   1.000  H
  H63      1.0000 0.87880  0.64570  0.75600  Biso   1.000  H
  H64      1.0000 0.79580  0.49110  0.71570  Biso   1.000  H
  H65      1.0000 0.80580  0.52000  0.77390  Biso   1.000  H
  H66      1.0000 0.42050  0.58790  0.57880  Biso   1.000  H
  H67      1.0000 0.48340  0.56710  0.53010  Biso   1.000  H
  H68      1.0000 0.40030  0.68590  0.53410  Biso   1.000  H
  H69      1.0000 0.36840  0.57460  0.46700  Biso   1.000  H
  H70      1.0000 0.30210  0.60960  0.50640  Biso   1.000  H
  H71      1.0000 0.33220  0.64230  0.44940  Biso   1.000  H
  H72      1.0000 0.56680  0.94830  0.55990  Biso   1.000  H
  H73      1.0000 0.64180  0.86760  0.52010  Biso   1.000  H
  H74      1.0000 0.50080  0.85400  0.50110  Biso   1.000  H
  H75      1.0000 0.47310  0.80150  0.61140  Biso   1.000  H
  H76      1.0000 0.34560  0.85490  0.60970  Biso   1.000  H
  H77      1.0000 0.35210  0.81060  0.55540  Biso   1.000  H
  H78      1.0000 0.67370  0.78680  0.57070  Biso   1.000  H
  H79      1.0000 0.31400  0.90260  0.52830  Biso   1.000  H
  H80      1.0000 0.60350  0.86660  0.69210  Biso   1.000  H
  H81      1.0000 0.86850  0.97390  0.70520  Biso   1.000  H
  H82      1.0000 0.69570  0.01320  0.54880  Biso   1.000  H
  H83      1.0000 0.97040  0.04200  0.67350  Biso   1.000  H
  H84      1.0000 0.97870  0.04340  0.60660  Biso   1.000  H
  H85      1.0000 0.93600  0.10140  0.63890  Biso   1.000  H
  H86      1.0000 0.79340  0.08040  0.50920  Biso   1.000  H
  H87      1.0000 0.84500  0.12160  0.55360  Biso   1.000  H
  H88      1.0000 0.88830  0.06270  0.52320  Biso   1.000  H
  H89      1.0000 0.46670  0.14420  0.28750  Biso   1.000  H
  H90      1.0000 0.77630  0.89770  0.34480  Biso   1.000  H
  H91      1.0000 0.90660  0.96070  0.32950  Biso   1.000  H
  H92      1.0000 0.06830  0.15240  0.32780  Biso   1.000  H
  H93      1.0000 0.73660  0.30090  0.19740  Biso   1.000  H
  H94      1.0000 0.68930  0.25390  0.30760  Biso   1.000  H
  H95      1.0000 0.71780  0.19050  0.17060  Biso   1.000  H
  H96      1.0000 0.62540  0.16380  0.16070  Biso   1.000  H
  H97      1.0000 0.64260  0.23840  0.15850  Biso   1.000  H
  H98      1.0000 0.53190  0.29630  0.20600  Biso   1.000  H
  H99      1.0000 0.49810  0.23430  0.17500  Biso   1.000  H
  H100     1.0000 0.44420  0.26620  0.22390  Biso   1.000  H
  H101     1.0000 0.56190  0.28750  0.31380  Biso   1.000  H
  H102     1.0000 0.57240  0.21880  0.34100  Biso   1.000  H
  H103     1.0000 0.39190  0.24110  0.40450  Biso   1.000  H
  H104     1.0000 0.48520  0.22800  0.41010  Biso   1.000  H
  H105     1.0000 0.50990  0.12960  0.17220  Biso   1.000  H
  H106     1.0000 0.48720  0.06780  0.20770  Biso   1.000  H
  H107     1.0000 0.37490  0.17170  0.18800  Biso   1.000  H
  H108     1.0000 0.35190  0.11330  0.22800  Biso   1.000  H
  H109     1.0000 0.33340  0.09790  0.06590  Biso   1.000  H
  H110     1.0000 0.37030  0.15720  0.09260  Biso   1.000  H
  H111     1.0000 0.50040  0.98960  0.34910  Biso   1.000  H
  H112     1.0000 0.46630  0.06050  0.34400  Biso   1.000  H
  H113     1.0000 0.46280  0.01430  0.29090  Biso   1.000  H
  H114     1.0000 0.57150  0.90580  0.29010  Biso   1.000  H
  H115     1.0000 0.61710  0.85560  0.32990  Biso   1.000  H
  H116     1.0000 0.54800  0.90220  0.35520  Biso   1.000  H
  H117     1.0000 0.72570  0.98040  0.41240  Biso   1.000  H
  H118     1.0000 0.68500  0.91230  0.42200  Biso   1.000  H
  H119     1.0000 0.56590  0.06400  0.46680  Biso   1.000  H
  H120     1.0000 0.65240  0.06620  0.44020  Biso   1.000  H
  H121     1.0000 0.69980  0.91790  0.23610  Biso   1.000  H
  H122     1.0000 0.72010  0.85060  0.26370  Biso   1.000  H
  H123     1.0000 0.84440  0.93730  0.22460  Biso   1.000  H
  H124     1.0000 0.86550  0.87100  0.25310  Biso   1.000  H
  H125     1.0000 0.76470  0.80750  0.12230  Biso   1.000  H
  H126     1.0000 0.72100  0.82060  0.17790  Biso   1.000  H
  H127     1.0000 0.06340  0.08590  0.41220  Biso   1.000  H
  H128     1.0000 0.97090  0.11390  0.40670  Biso   1.000  H
  H129     1.0000 0.98440  0.04030  0.41920  Biso   1.000  H
  H130     1.0000 0.05020  0.98760  0.28590  Biso   1.000  H
  H131     1.0000 0.12300  0.01810  0.32320  Biso   1.000  H
  H132     1.0000 0.05510  0.97270  0.35170  Biso   1.000  H
  H133     1.0000 0.05880  0.15690  0.22390  Biso   1.000  H
  H134     1.0000 0.03700  0.08330  0.22570  Biso   1.000  H
  H135     1.0000 0.18070  0.10850  0.20360  Biso   1.000  H
  H136     1.0000 0.16780  0.05570  0.25050  Biso   1.000  H
  H137     1.0000 0.25760  0.21650  0.29120  Biso   1.000  H
  H138     1.0000 0.19720  0.21180  0.24200  Biso   1.000  H
  H139     1.0000 0.05730  0.24040  0.30070  Biso   1.000  H
  H140     1.0000 0.02570  0.27050  0.24290  Biso   1.000  H
  H141     1.0000 0.99680  0.30060  0.30130  Biso   1.000  H
  H142     1.0000 0.88470  0.33560  0.33870  Biso   1.000  H
  H143     1.0000 0.82850  0.39190  0.31460  Biso   1.000  H
  H144     1.0000 0.78510  0.33160  0.34270  Biso   1.000  H
  H145     1.0000 0.85820  0.39050  0.21310  Biso   1.000  H
  H146     1.0000 0.93890  0.35710  0.23870  Biso   1.000  H
  H147     1.0000 0.85200  0.32190  0.13860  Biso   1.000  H
  H148     1.0000 0.91010  0.27080  0.16900  Biso   1.000  H
  H149     1.0000 0.91660  0.36750  0.06830  Biso   1.000  H
  H150     1.0000 0.69630  0.38100  0.29360  Biso   1.000  H
  H151     1.0000 0.62120  0.35430  0.25600  Biso   1.000  H
  H152     1.0000 0.70420  0.50890  0.21570  Biso   1.000  H
  H153     1.0000 0.69420  0.48000  0.27390  Biso   1.000  H
  H154     1.0000 0.07950  0.41210  0.07880  Biso   1.000  H
  H155     1.0000 0.01660  0.43290  0.03010  Biso   1.000  H
  H156     1.0000 0.09970  0.31410  0.03410  Biso   1.000  H
  H157     1.0000 0.13160  0.42540  0.96700  Biso   1.000  H
  H158     1.0000 0.19790  0.39040  0.00640  Biso   1.000  H
  H159     1.0000 0.16780  0.35770  0.94940  Biso   1.000  H
  H160     1.0000 0.93320  0.05170  0.05990  Biso   1.000  H
  H161     1.0000 0.85820  0.13240  0.02010  Biso   1.000  H
  H162     1.0000 0.99920  0.14600  0.00110  Biso   1.000  H
  H163     1.0000 0.02690  0.19850  0.11140  Biso   1.000  H
  H164     1.0000 0.15440  0.14510  0.10970  Biso   1.000  H
  H165     1.0000 0.14790  0.18940  0.05540  Biso   1.000  H
  H166     1.0000 0.82630  0.21320  0.07070  Biso   1.000  H
  H167     1.0000 0.18600  0.09740  0.02830  Biso   1.000  H
  H168     1.0000 0.89650  0.13340  0.19210  Biso   1.000  H
  H169     1.0000 0.63150  0.02610  0.20520  Biso   1.000  H
  H170     1.0000 0.80430  0.98680  0.04880  Biso   1.000  H
  H171     1.0000 0.52960  0.95800  0.17350  Biso   1.000  H
  H172     1.0000 0.52130  0.95660  0.10660  Biso   1.000  H
  H173     1.0000 0.56400  0.89860  0.13890  Biso   1.000  H
  H174     1.0000 0.70660  0.91960  0.00920  Biso   1.000  H
  H175     1.0000 0.65500  0.87840  0.05360  Biso   1.000  H
  H176     1.0000 0.61170  0.93730  0.02320  Biso   1.000  H
  H177     1.0000 0.96670  0.35580  0.71250  Biso   1.000  H
  H178     1.0000 0.27630  0.60230  0.65520  Biso   1.000  H
  H179     1.0000 0.40660  0.53930  0.67050  Biso   1.000  H
  H180     1.0000 0.56830  0.34760  0.67220  Biso   1.000  H
  H181     1.0000 0.23660  0.19910  0.80260  Biso   1.000  H
  H182     1.0000 0.18930  0.24610  0.69240  Biso   1.000  H
  H183     1.0000 0.21780  0.30950  0.82940  Biso   1.000  H
  H184     1.0000 0.12540  0.33620  0.83930  Biso   1.000  H
  H185     1.0000 0.14260  0.26160  0.84150  Biso   1.000  H
  H186     1.0000 0.03190  0.20370  0.79400  Biso   1.000  H
  H187     1.0000 0.99810  0.26570  0.82500  Biso   1.000  H
  H188     1.0000 0.94420  0.23380  0.77610  Biso   1.000  H
  H189     1.0000 0.06190  0.21250  0.68620  Biso   1.000  H
  H190     1.0000 0.07240  0.28120  0.65900  Biso   1.000  H
  H191     1.0000 0.89190  0.25890  0.59550  Biso   1.000  H
  H192     1.0000 0.98520  0.27200  0.58990  Biso   1.000  H
  H193     1.0000 0.00990  0.37040  0.82780  Biso   1.000  H
  H194     1.0000 0.98720  0.43220  0.79230  Biso   1.000  H
  H195     1.0000 0.87490  0.32830  0.81200  Biso   1.000  H
  H196     1.0000 0.85190  0.38670  0.77200  Biso   1.000  H
  H197     1.0000 0.83340  0.40210  0.93410  Biso   1.000  H
  H198     1.0000 0.87030  0.34280  0.90740  Biso   1.000  H
  H199     1.0000 0.00040  0.51040  0.65090  Biso   1.000  H
  H200     1.0000 0.96630  0.43950  0.65600  Biso   1.000  H
  H201     1.0000 0.96280  0.48570  0.70910  Biso   1.000  H
  H202     1.0000 0.07150  0.59420  0.70990  Biso   1.000  H
  H203     1.0000 0.11710  0.64440  0.67010  Biso   1.000  H
  H204     1.0000 0.04800  0.59780  0.64480  Biso   1.000  H
  H205     1.0000 0.22570  0.51960  0.58760  Biso   1.000  H
  H206     1.0000 0.18500  0.58770  0.57800  Biso   1.000  H
  H207     1.0000 0.06590  0.43600  0.53320  Biso   1.000  H
  H208     1.0000 0.15240  0.43380  0.55980  Biso   1.000  H
  H209     1.0000 0.19980  0.58210  0.76390  Biso   1.000  H
  H210     1.0000 0.22010  0.64940  0.73630  Biso   1.000  H
  H211     1.0000 0.34440  0.56270  0.77540  Biso   1.000  H
  H212     1.0000 0.36550  0.62900  0.74690  Biso   1.000  H
  H213     1.0000 0.26470  0.69250  0.87770  Biso   1.000  H
  H214     1.0000 0.22100  0.67940  0.82210  Biso   1.000  H
  H215     1.0000 0.56340  0.41410  0.58780  Biso   1.000  H
  H216     1.0000 0.47090  0.38610  0.59330  Biso   1.000  H
  H217     1.0000 0.48440  0.45970  0.58080  Biso   1.000  H
  H218     1.0000 0.55020  0.51240  0.71410  Biso   1.000  H
  H219     1.0000 0.62300  0.48190  0.67680  Biso   1.000  H
  H220     1.0000 0.55510  0.52730  0.64830  Biso   1.000  H
  H221     1.0000 0.55880  0.34310  0.77610  Biso   1.000  H
  H222     1.0000 0.53700  0.41670  0.77430  Biso   1.000  H
  H223     1.0000 0.68070  0.39150  0.79640  Biso   1.000  H
  H224     1.0000 0.66780  0.44430  0.74950  Biso   1.000  H
  H225     1.0000 0.75760  0.28350  0.70880  Biso   1.000  H
  H226     1.0000 0.69720  0.28820  0.75800  Biso   1.000  H
  H227     1.0000 0.55730  0.25960  0.69930  Biso   1.000  H
  H228     1.0000 0.52570  0.22950  0.75710  Biso   1.000  H
  H229     1.0000 0.49680  0.19940  0.69870  Biso   1.000  H
  H230     1.0000 0.38470  0.16440  0.66130  Biso   1.000  H
  H231     1.0000 0.32850  0.10810  0.68540  Biso   1.000  H
  H232     1.0000 0.28510  0.16840  0.65730  Biso   1.000  H
  H233     1.0000 0.35820  0.10950  0.78690  Biso   1.000  H
  H234     1.0000 0.43890  0.14290  0.76130  Biso   1.000  H
  H235     1.0000 0.35200  0.17810  0.86140  Biso   1.000  H
  H236     1.0000 0.41010  0.22920  0.83100  Biso   1.000  H
  H237     1.0000 0.41660  0.13250  0.93170  Biso   1.000  H
  H238     1.0000 0.19630  0.11900  0.70640  Biso   1.000  H
  H239     1.0000 0.12120  0.14570  0.74400  Biso   1.000  H
  H240     1.0000 0.20420  0.99110  0.78430  Biso   1.000  H
  H241     1.0000 0.19420  0.02000  0.72610  Biso   1.000  H
  H242     1.0000 0.57950  0.08790  0.92120  Biso   1.000  H
  H243     1.0000 0.51660  0.06710  0.96990  Biso   1.000  H
  H244     1.0000 0.59970  0.18590  0.96590  Biso   1.000  H
  H245     1.0000 0.63160  0.07460  0.03300  Biso   1.000  H
  H246     1.0000 0.69790  0.10960  0.99360  Biso   1.000  H
  H247     1.0000 0.66780  0.14230  0.05060  Biso   1.000  H
  H248     1.0000 0.43320  0.44830  0.94010  Biso   1.000  H
  H249     1.0000 0.35820  0.36760  0.97990  Biso   1.000  H
  H250     1.0000 0.49920  0.35400  0.99890  Biso   1.000  H
  H251     1.0000 0.52690  0.30150  0.88860  Biso   1.000  H
  H252     1.0000 0.65440  0.35490  0.89030  Biso   1.000  H
  H253     1.0000 0.64790  0.31060  0.94460  Biso   1.000  H
  H254     1.0000 0.32630  0.28680  0.92930  Biso   1.000  H
  H255     1.0000 0.68600  0.40260  0.97170  Biso   1.000  H
  H256     1.0000 0.39650  0.36660  0.80790  Biso   1.000  H
  H257     1.0000 0.13150  0.47390  0.79480  Biso   1.000  H
  H258     1.0000 0.30430  0.51320  0.95120  Biso   1.000  H
  H259     1.0000 0.02960  0.54200  0.82650  Biso   1.000  H
  H260     1.0000 0.02130  0.54340  0.89340  Biso   1.000  H
  H261     1.0000 0.06400  0.60140  0.86110  Biso   1.000  H
  H262     1.0000 0.20660  0.58040  0.99080  Biso   1.000  H
  H263     1.0000 0.15500  0.62160  0.94640  Biso   1.000  H
  H264     1.0000 0.11170  0.56270  0.97680  Biso   1.000  H
  H265     1.0000 0.53330  0.64420  0.21250  Biso   1.000  H
  H266     1.0000 0.22370  0.39770  0.15520  Biso   1.000  H
  H267     1.0000 0.09340  0.46070  0.17050  Biso   1.000  H
  H268     1.0000 0.93170  0.65240  0.17220  Biso   1.000  H
  H269     1.0000 0.26340  0.80090  0.30260  Biso   1.000  H
  H270     1.0000 0.31070  0.75390  0.19240  Biso   1.000  H
  H271     1.0000 0.28220  0.69050  0.32940  Biso   1.000  H
  H272     1.0000 0.37460  0.66380  0.33930  Biso   1.000  H
  H273     1.0000 0.35740  0.73840  0.34150  Biso   1.000  H
  H274     1.0000 0.46810  0.79630  0.29400  Biso   1.000  H
  H275     1.0000 0.50190  0.73430  0.32500  Biso   1.000  H
  H276     1.0000 0.55580  0.76620  0.27610  Biso   1.000  H
  H277     1.0000 0.43810  0.78750  0.18620  Biso   1.000  H
  H278     1.0000 0.42760  0.71880  0.15900  Biso   1.000  H
  H279     1.0000 0.60810  0.74110  0.09550  Biso   1.000  H
  H280     1.0000 0.51480  0.72800  0.08990  Biso   1.000  H
  H281     1.0000 0.49010  0.62960  0.32780  Biso   1.000  H
  H282     1.0000 0.51280  0.56780  0.29230  Biso   1.000  H
  H283     1.0000 0.62510  0.67170  0.31200  Biso   1.000  H
  H284     1.0000 0.64810  0.61330  0.27200  Biso   1.000  H
  H285     1.0000 0.66660  0.59790  0.43410  Biso   1.000  H
  H286     1.0000 0.62970  0.65720  0.40740  Biso   1.000  H
  H287     1.0000 0.49960  0.48960  0.15090  Biso   1.000  H
  H288     1.0000 0.53370  0.56050  0.15600  Biso   1.000  H
  H289     1.0000 0.53720  0.51430  0.20910  Biso   1.000  H
  H290     1.0000 0.42850  0.40580  0.20990  Biso   1.000  H
  H291     1.0000 0.38290  0.35560  0.17010  Biso   1.000  H
  H292     1.0000 0.45200  0.40220  0.14480  Biso   1.000  H
  H293     1.0000 0.27430  0.48040  0.08760  Biso   1.000  H
  H294     1.0000 0.31500  0.41230  0.07800  Biso   1.000  H
  H295     1.0000 0.43410  0.56400  0.03320  Biso   1.000  H
  H296     1.0000 0.34760  0.56620  0.05980  Biso   1.000  H
  H297     1.0000 0.30020  0.41790  0.26390  Biso   1.000  H
  H298     1.0000 0.27990  0.35060  0.23630  Biso   1.000  H
  H299     1.0000 0.15560  0.43730  0.27540  Biso   1.000  H
  H300     1.0000 0.13450  0.37100  0.24690  Biso   1.000  H
  H301     1.0000 0.23530  0.30750  0.37770  Biso   1.000  H
  H302     1.0000 0.27900  0.32060  0.32210  Biso   1.000  H
  H303     1.0000 0.93660  0.58590  0.08780  Biso   1.000  H
  H304     1.0000 0.02910  0.61390  0.09330  Biso   1.000  H
  H305     1.0000 0.01560  0.54030  0.08080  Biso   1.000  H
  H306     1.0000 0.94980  0.48760  0.21410  Biso   1.000  H
  H307     1.0000 0.87700  0.51810  0.17680  Biso   1.000  H
  H308     1.0000 0.94490  0.47270  0.14830  Biso   1.000  H
  H309     1.0000 0.94120  0.65690  0.27610  Biso   1.000  H
  H310     1.0000 0.96300  0.58330  0.27430  Biso   1.000  H
  H311     1.0000 0.81930  0.60850  0.29640  Biso   1.000  H
  H312     1.0000 0.83220  0.55570  0.24950  Biso   1.000  H
  H313     1.0000 0.74240  0.71650  0.20880  Biso   1.000  H
  H314     1.0000 0.80280  0.71180  0.25800  Biso   1.000  H
  H315     1.0000 0.94270  0.74040  0.19930  Biso   1.000  H
  H316     1.0000 0.97430  0.77050  0.25710  Biso   1.000  H
  H317     1.0000 0.00320  0.80060  0.19870  Biso   1.000  H
  H318     1.0000 0.11530  0.83560  0.16130  Biso   1.000  H
  H319     1.0000 0.17150  0.89190  0.18540  Biso   1.000  H
  H320     1.0000 0.21490  0.83160  0.15730  Biso   1.000  H
  H321     1.0000 0.14180  0.89050  0.28690  Biso   1.000  H
  H322     1.0000 0.06110  0.85710  0.26130  Biso   1.000  H
  H323     1.0000 0.14800  0.82190  0.36140  Biso   1.000  H
  H324     1.0000 0.08990  0.77080  0.33100  Biso   1.000  H
  H325     1.0000 0.08340  0.86750  0.43170  Biso   1.000  H
  H326     1.0000 0.30370  0.88100  0.20640  Biso   1.000  H
  H327     1.0000 0.37880  0.85430  0.24400  Biso   1.000  H
  H328     1.0000 0.29580  0.00890  0.28430  Biso   1.000  H
  H329     1.0000 0.30580  0.98000  0.22610  Biso   1.000  H
  H330     1.0000 0.92050  0.91210  0.42120  Biso   1.000  H
  H331     1.0000 0.98340  0.93290  0.46990  Biso   1.000  H
  H332     1.0000 0.90030  0.81410  0.46590  Biso   1.000  H
  H333     1.0000 0.86840  0.92540  0.53300  Biso   1.000  H
  H334     1.0000 0.80210  0.89040  0.49360  Biso   1.000  H
  H335     1.0000 0.83220  0.85770  0.55060  Biso   1.000  H
  H336     1.0000 0.06680  0.55170  0.44010  Biso   1.000  H
  H337     1.0000 0.14180  0.63240  0.47990  Biso   1.000  H
  H338     1.0000 0.00080  0.64600  0.49890  Biso   1.000  H
  H339     1.0000 0.97310  0.69850  0.38860  Biso   1.000  H
  H340     1.0000 0.84560  0.64510  0.39030  Biso   1.000  H
  H341     1.0000 0.85210  0.68940  0.44460  Biso   1.000  H
  H342     1.0000 0.17370  0.71320  0.42930  Biso   1.000  H
  H343     1.0000 0.81400  0.59740  0.47170  Biso   1.000  H
  H344     1.0000 0.10350  0.63340  0.30790  Biso   1.000  H
  H345     1.0000 0.36850  0.52610  0.29480  Biso   1.000  H
  H346     1.0000 0.19570  0.48680  0.45120  Biso   1.000  H
  H347     1.0000 0.47040  0.45800  0.32650  Biso   1.000  H
  H348     1.0000 0.47870  0.45660  0.39340  Biso   1.000  H
  H349     1.0000 0.43600  0.39860  0.36110  Biso   1.000  H
  H350     1.0000 0.29340  0.41960  0.49080  Biso   1.000  H
  H351     1.0000 0.34500  0.37840  0.44640  Biso   1.000  H
  H352     1.0000 0.38830  0.43730  0.47680  Biso   1.000  H
  C1       1.0000 0.75050  0.85930  0.86100  Biso   1.000  C
  C2       1.0000 0.85930  0.79680  0.74090  Biso   1.000  C
  C3       1.0000 0.95400  0.78530  0.75480  Biso   1.000  C
  C4       1.0000 0.98890  0.85420  0.75800  Biso   1.000  C
  C5       1.0000 0.91300  0.89010  0.77920  Biso   1.000  C
  C6       1.0000 0.91590  0.95080  0.80590  Biso   1.000  C
  C7       1.0000 0.84800  0.98640  0.81590  Biso   1.000  C
  C8       1.0000 0.83790  0.05250  0.84120  Biso   1.000  C
  C9       1.0000 0.75320  0.07410  0.81760  Biso   1.000  C
  C10      1.0000 0.70940  0.01040  0.81290  Biso   1.000  C
  C11      1.0000 0.62490  0.00250  0.82080  Biso   1.000  C
  C12      1.0000 0.58160  0.94660  0.81730  Biso   1.000  C
  C13      1.0000 0.49240  0.93660  0.83520  Biso   1.000  C
  C14      1.0000 0.46880  0.87460  0.80400  Biso   1.000  C
  C15      1.0000 0.55550  0.84380  0.79710  Biso   1.000  C
  C16      1.0000 0.56560  0.78270  0.78260  Biso   1.000  C
  C17      1.0000 0.64950  0.75690  0.77070  Biso   1.000  C
  C18      1.0000 0.67080  0.68720  0.76170  Biso   1.000  C
  C19      1.0000 0.76370  0.69340  0.73900  Biso   1.000  C
  C20      1.0000 0.79280  0.75610  0.76840  Biso   1.000  C
  C21      1.0000 0.84170  0.80150  0.67670  Biso   1.000  C
  C22      1.0000 0.99910  0.74330  0.71090  Biso   1.000  C
  C23      1.0000 0.96170  0.75580  0.81470  Biso   1.000  C
  C24      1.0000 0.04890  0.75240  0.83660  Biso   1.000  C
  C25      1.0000 0.02220  0.88610  0.70480  Biso   1.000  C
  C26      1.0000 0.11580  0.87400  0.69440  Biso   1.000  C
  C27      1.0000 0.14540  0.91080  0.64470  Biso   1.000  C
  C28      1.0000 0.00490  0.97370  0.82420  Biso   1.000  C
  C29      1.0000 0.90660  0.10180  0.82790  Biso   1.000  C
  C30      1.0000 0.82520  0.04520  0.90590  Biso   1.000  C
  C31      1.0000 0.89780  0.01450  0.93820  Biso   1.000  C
  C32      1.0000 0.75920  0.10560  0.75920  Biso   1.000  C
  C33      1.0000 0.67510  0.10690  0.72870  Biso   1.000  C
  C34      1.0000 0.67290  0.13810  0.67100  Biso   1.000  C
  C35      1.0000 0.49350  0.92290  0.89920  Biso   1.000  C
  C36      1.0000 0.43580  0.99500  0.82290  Biso   1.000  C
  C37      1.0000 0.43180  0.88270  0.74510  Biso   1.000  C
  C38      1.0000 0.33860  0.89860  0.74250  Biso   1.000  C
  C39      1.0000 0.28430  0.86490  0.77900  Biso   1.000  C
  C40      1.0000 0.48960  0.73880  0.78180  Biso   1.000  C
  C41      1.0000 0.66780  0.65400  0.81980  Biso   1.000  C
  C42      1.0000 0.61550  0.65100  0.72040  Biso   1.000  C
  C43      1.0000 0.59850  0.68340  0.66300  Biso   1.000  C
  C44      1.0000 0.52370  0.65640  0.63440  Biso   1.000  C
  C45      1.0000 0.81910  0.63370  0.75550  Biso   1.000  C
  C46      1.0000 0.80570  0.58190  0.71460  Biso   1.000  C
  C47      1.0000 0.46260  0.60380  0.55180  Biso   1.000  C
  C48      1.0000 0.42170  0.64840  0.51300  Biso   1.000  C
  C49      1.0000 0.34950  0.61570  0.48100  Biso   1.000  C
  C50      1.0000 0.57600  0.91160  0.58570  Biso   1.000  C
  C51      1.0000 0.60560  0.85510  0.55240  Biso   1.000  C
  C52      1.0000 0.52270  0.82870  0.53340  Biso   1.000  C
  C53      1.0000 0.46630  0.83820  0.58540  Biso   1.000  C
  C54      1.0000 0.37570  0.84850  0.57390  Biso   1.000  C
  C55      1.0000 0.64300  0.89680  0.67930  Biso   1.000  C
  C56      1.0000 0.83320  0.98240  0.67410  Biso   1.000  C
  C57      1.0000 0.85920  0.02340  0.63330  Biso   1.000  C
  C58      1.0000 0.80680  0.03620  0.58530  Biso   1.000  C
  C59      1.0000 0.73040  0.00600  0.58050  Biso   1.000  C
  C60      1.0000 0.70520  0.96460  0.62320  Biso   1.000  C
  C61      1.0000 0.75480  0.95250  0.67050  Biso   1.000  C
  C62      1.0000 0.94350  0.05540  0.63860  Biso   1.000  C
  C63      1.0000 0.83590  0.07900  0.53880  Biso   1.000  C
  C64      1.0000 0.74950  0.14070  0.36100  Biso   1.000  C
  C65      1.0000 0.64070  0.20320  0.24090  Biso   1.000  C
  C66      1.0000 0.54600  0.21470  0.25480  Biso   1.000  C
  C67      1.0000 0.51110  0.14580  0.25800  Biso   1.000  C
  C68      1.0000 0.58700  0.10990  0.27920  Biso   1.000  C
  C69      1.0000 0.58410  0.04920  0.30590  Biso   1.000  C
  C70      1.0000 0.65200  0.01360  0.31590  Biso   1.000  C
  C71      1.0000 0.66210  0.94750  0.34120  Biso   1.000  C
  C72      1.0000 0.74680  0.92590  0.31760  Biso   1.000  C
  C73      1.0000 0.79060  0.98960  0.31290  Biso   1.000  C
  C74      1.0000 0.87510  0.99750  0.32080  Biso   1.000  C
  C75      1.0000 0.91840  0.05340  0.31730  Biso   1.000  C
  C76      1.0000 0.00760  0.06340  0.33520  Biso   1.000  C
  C77      1.0000 0.03120  0.12540  0.30400  Biso   1.000  C
  C78      1.0000 0.94450  0.15620  0.29710  Biso   1.000  C
  C79      1.0000 0.93440  0.21730  0.28260  Biso   1.000  C
  C80      1.0000 0.85050  0.24310  0.27070  Biso   1.000  C
  C81      1.0000 0.82920  0.31280  0.26170  Biso   1.000  C
  C82      1.0000 0.73630  0.30660  0.23900  Biso   1.000  C
  C83      1.0000 0.70720  0.24390  0.26840  Biso   1.000  C
  C84      1.0000 0.65830  0.19850  0.17670  Biso   1.000  C
  C85      1.0000 0.50090  0.25670  0.21090  Biso   1.000  C
  C86      1.0000 0.53830  0.24420  0.31470  Biso   1.000  C
  C87      1.0000 0.45110  0.24760  0.33660  Biso   1.000  C
  C88      1.0000 0.47780  0.11390  0.20480  Biso   1.000  C
  C89      1.0000 0.38420  0.12600  0.19440  Biso   1.000  C
  C90      1.0000 0.35460  0.08920  0.14470  Biso   1.000  C
  C91      1.0000 0.49510  0.02630  0.32420  Biso   1.000  C
  C92      1.0000 0.59340  0.89820  0.32790  Biso   1.000  C
  C93      1.0000 0.67480  0.95480  0.40590  Biso   1.000  C
  C94      1.0000 0.60220  0.98550  0.43820  Biso   1.000  C
  C95      1.0000 0.74080  0.89440  0.25920  Biso   1.000  C
  C96      1.0000 0.82490  0.89310  0.22870  Biso   1.000  C
  C97      1.0000 0.82710  0.86190  0.17100  Biso   1.000  C
  C98      1.0000 0.00650  0.07710  0.39920  Biso   1.000  C
  C99      1.0000 0.06420  0.00500  0.32290  Biso   1.000  C
  C100     1.0000 0.06820  0.11730  0.24510  Biso   1.000  C
  C101     1.0000 0.16140  0.10140  0.24250  Biso   1.000  C
  C102     1.0000 0.21570  0.13510  0.27900  Biso   1.000  C
  C103     1.0000 0.01040  0.26120  0.28180  Biso   1.000  C
  C104     1.0000 0.83220  0.34600  0.31980  Biso   1.000  C
  C105     1.0000 0.88450  0.34900  0.22040  Biso   1.000  C
  C106     1.0000 0.90150  0.31660  0.16300  Biso   1.000  C
  C107     1.0000 0.97630  0.34360  0.13440  Biso   1.000  C
  C108     1.0000 0.68090  0.36630  0.25550  Biso   1.000  C
  C109     1.0000 0.69430  0.41810  0.21460  Biso   1.000  C
  C110     1.0000 0.03740  0.39620  0.05180  Biso   1.000  C
  C111     1.0000 0.07830  0.35160  0.01300  Biso   1.000  C
  C112     1.0000 0.15050  0.38430  0.98100  Biso   1.000  C
  C113     1.0000 0.92400  0.08840  0.08570  Biso   1.000  C
  C114     1.0000 0.89440  0.14490  0.05240  Biso   1.000  C
  C115     1.0000 0.97730  0.17130  0.03340  Biso   1.000  C
  C116     1.0000 0.03370  0.16180  0.08540  Biso   1.000  C
  C117     1.0000 0.12430  0.15150  0.07390  Biso   1.000  C
  C118     1.0000 0.85700  0.10320  0.17930  Biso   1.000  C
  C119     1.0000 0.66680  0.01760  0.17410  Biso   1.000  C
  C120     1.0000 0.64080  0.97660  0.13330  Biso   1.000  C
  C121     1.0000 0.69320  0.96380  0.08530  Biso   1.000  C
  C122     1.0000 0.76960  0.99400  0.08050  Biso   1.000  C
  C123     1.0000 0.79480  0.03540  0.12320  Biso   1.000  C
  C124     1.0000 0.74520  0.04750  0.17050  Biso   1.000  C
  C125     1.0000 0.55650  0.94460  0.13860  Biso   1.000  C
  C126     1.0000 0.66410  0.92100  0.03880  Biso   1.000  C
  C127     1.0000 0.24950  0.35930  0.63900  Biso   1.000  C
  C128     1.0000 0.14070  0.29680  0.75910  Biso   1.000  C
  C129     1.0000 0.04600  0.28530  0.74520  Biso   1.000  C
  C130     1.0000 0.01110  0.35420  0.74200  Biso   1.000  C
  C131     1.0000 0.08700  0.39010  0.72080  Biso   1.000  C
  C132     1.0000 0.08410  0.45080  0.69410  Biso   1.000  C
  C133     1.0000 0.15200  0.48640  0.68410  Biso   1.000  C
  C134     1.0000 0.16210  0.55250  0.65880  Biso   1.000  C
  C135     1.0000 0.24680  0.57410  0.68240  Biso   1.000  C
  C136     1.0000 0.29060  0.51040  0.68710  Biso   1.000  C
  C137     1.0000 0.37510  0.50250  0.67920  Biso   1.000  C
  C138     1.0000 0.41840  0.44660  0.68270  Biso   1.000  C
  C139     1.0000 0.50760  0.43660  0.66480  Biso   1.000  C
  C140     1.0000 0.53120  0.37460  0.69600  Biso   1.000  C
  C141     1.0000 0.44450  0.34380  0.70290  Biso   1.000  C
  C142     1.0000 0.43440  0.28270  0.71740  Biso   1.000  C
  C143     1.0000 0.35050  0.25690  0.72930  Biso   1.000  C
  C144     1.0000 0.32920  0.18720  0.73830  Biso   1.000  C
  C145     1.0000 0.23630  0.19340  0.76100  Biso   1.000  C
  C146     1.0000 0.20720  0.25610  0.73160  Biso   1.000  C
  C147     1.0000 0.15830  0.30150  0.82330  Biso   1.000  C
  C148     1.0000 0.00090  0.24330  0.78910  Biso   1.000  C
  C149     1.0000 0.03830  0.25580  0.68530  Biso   1.000  C
  C150     1.0000 0.95110  0.25240  0.66340  Biso   1.000  C
  C151     1.0000 0.97780  0.38610  0.79520  Biso   1.000  C
  C152     1.0000 0.88420  0.37400  0.80560  Biso   1.000  C
  C153     1.0000 0.85460  0.41080  0.85530  Biso   1.000  C
  C154     1.0000 0.99510  0.47370  0.67580  Biso   1.000  C
  C155     1.0000 0.09340  0.60180  0.67210  Biso   1.000  C
  C156     1.0000 0.17480  0.54520  0.59410  Biso   1.000  C
  C157     1.0000 0.10220  0.51450  0.56180  Biso   1.000  C
  C158     1.0000 0.24080  0.60560  0.74080  Biso   1.000  C
  C159     1.0000 0.32490  0.60690  0.77130  Biso   1.000  C
  C160     1.0000 0.32710  0.63810  0.82900  Biso   1.000  C
  C161     1.0000 0.50650  0.42290  0.60080  Biso   1.000  C
  C162     1.0000 0.56420  0.49500  0.67710  Biso   1.000  C
  C163     1.0000 0.56820  0.38270  0.75490  Biso   1.000  C
  C164     1.0000 0.66140  0.39860  0.75750  Biso   1.000  C
  C165     1.0000 0.71570  0.36490  0.72100  Biso   1.000  C
  C166     1.0000 0.51040  0.23880  0.71820  Biso   1.000  C
  C167     1.0000 0.33220  0.15400  0.68020  Biso   1.000  C
  C168     1.0000 0.38450  0.15100  0.77960  Biso   1.000  C
  C169     1.0000 0.40150  0.18340  0.83700  Biso   1.000  C
  C170     1.0000 0.47630  0.15640  0.86560  Biso   1.000  C
  C171     1.0000 0.18090  0.13370  0.74450  Biso   1.000  C
  C172     1.0000 0.19430  0.08190  0.78540  Biso   1.000  C
  C173     1.0000 0.53740  0.10380  0.94820  Biso   1.000  C
  C174     1.0000 0.57830  0.14840  0.98700  Biso   1.000  C
  C175     1.0000 0.65050  0.11570  0.01900  Biso   1.000  C
  C176     1.0000 0.42400  0.41160  0.91430  Biso   1.000  C
  C177     1.0000 0.39440  0.35510  0.94760  Biso   1.000  C
  C178     1.0000 0.47730  0.32870  0.96660  Biso   1.000  C
  C179     1.0000 0.53370  0.33820  0.91460  Biso   1.000  C
  C180     1.0000 0.62430  0.34850  0.92610  Biso   1.000  C
  C181     1.0000 0.35700  0.39680  0.82070  Biso   1.000  C
  C182     1.0000 0.16680  0.48240  0.82590  Biso   1.000  C
  C183     1.0000 0.14080  0.52340  0.86670  Biso   1.000  C
  C184     1.0000 0.19320  0.53620  0.91470  Biso   1.000  C
  C185     1.0000 0.26960  0.50600  0.91950  Biso   1.000  C
  C186     1.0000 0.29480  0.46460  0.87680  Biso   1.000  C
  C187     1.0000 0.24520  0.45250  0.82950  Biso   1.000  C
  C188     1.0000 0.05650  0.55540  0.86140  Biso   1.000  C
  C189     1.0000 0.16410  0.57900  0.96120  Biso   1.000  C
  C190     1.0000 0.25050  0.64070  0.13900  Biso   1.000  C
  C191     1.0000 0.35930  0.70320  0.25910  Biso   1.000  C
  C192     1.0000 0.45400  0.71470  0.24520  Biso   1.000  C
  C193     1.0000 0.48890  0.64580  0.24200  Biso   1.000  C
  C194     1.0000 0.41300  0.60990  0.22080  Biso   1.000  C
  C195     1.0000 0.41590  0.54920  0.19410  Biso   1.000  C
  C196     1.0000 0.34800  0.51360  0.18410  Biso   1.000  C
  C197     1.0000 0.33790  0.44750  0.15880  Biso   1.000  C
  C198     1.0000 0.25320  0.42590  0.18240  Biso   1.000  C
  C199     1.0000 0.20940  0.48960  0.18710  Biso   1.000  C
  C200     1.0000 0.12490  0.49750  0.17920  Biso   1.000  C
  C201     1.0000 0.08160  0.55340  0.18270  Biso   1.000  C
  C202     1.0000 0.99240  0.56340  0.16480  Biso   1.000  C
  C203     1.0000 0.96880  0.62540  0.19600  Biso   1.000  C
  C204     1.0000 0.05550  0.65620  0.20290  Biso   1.000  C
  C205     1.0000 0.06560  0.71730  0.21740  Biso   1.000  C
  C206     1.0000 0.14950  0.74310  0.22930  Biso   1.000  C
  C207     1.0000 0.17080  0.81280  0.23830  Biso   1.000  C
  C208     1.0000 0.26370  0.80660  0.26100  Biso   1.000  C
  C209     1.0000 0.29280  0.74390  0.23160  Biso   1.000  C
  C210     1.0000 0.34170  0.69850  0.32330  Biso   1.000  C
  C211     1.0000 0.49910  0.75670  0.28910  Biso   1.000  C
  C212     1.0000 0.46170  0.74420  0.18530  Biso   1.000  C
  C213     1.0000 0.54890  0.74760  0.16340  Biso   1.000  C
  C214     1.0000 0.52220  0.61390  0.29520  Biso   1.000  C
  C215     1.0000 0.61580  0.62600  0.30560  Biso   1.000  C
  C216     1.0000 0.64540  0.58920  0.35530  Biso   1.000  C
  C217     1.0000 0.50490  0.52630  0.17580  Biso   1.000  C
  C218     1.0000 0.40660  0.39820  0.17210  Biso   1.000  C
  C219     1.0000 0.32520  0.45480  0.09410  Biso   1.000  C
  C220     1.0000 0.39780  0.48550  0.06180  Biso   1.000  C
  C221     1.0000 0.25920  0.39440  0.24080  Biso   1.000  C
  C222     1.0000 0.17510  0.39310  0.27130  Biso   1.000  C
  C223     1.0000 0.17290  0.36190  0.32900  Biso   1.000  C
  C224     1.0000 0.99350  0.57710  0.10080  Biso   1.000  C
  C225     1.0000 0.93580  0.50500  0.17710  Biso   1.000  C
  C226     1.0000 0.93180  0.61730  0.25490  Biso   1.000  C
  C227     1.0000 0.83860  0.60140  0.25750  Biso   1.000  C
  C228     1.0000 0.78430  0.63510  0.22100  Biso   1.000  C
  C229     1.0000 0.98960  0.76120  0.21820  Biso   1.000  C
  C230     1.0000 0.16780  0.84600  0.18020  Biso   1.000  C
  C231     1.0000 0.11550  0.84900  0.27960  Biso   1.000  C
  C232     1.0000 0.09850  0.81660  0.33700  Biso   1.000  C
  C233     1.0000 0.02370  0.84360  0.36560  Biso   1.000  C
  C234     1.0000 0.31910  0.86630  0.24450  Biso   1.000  C
  C235     1.0000 0.30570  0.91810  0.28540  Biso   1.000  C
  C236     1.0000 0.96260  0.89620  0.44820  Biso   1.000  C
  C237     1.0000 0.92170  0.85160  0.48700  Biso   1.000  C
  C238     1.0000 0.84950  0.88430  0.51900  Biso   1.000  C
  C239     1.0000 0.07600  0.58840  0.41430  Biso   1.000  C
  C240     1.0000 0.10560  0.64490  0.44760  Biso   1.000  C
  C241     1.0000 0.02270  0.67130  0.46660  Biso   1.000  C
  C242     1.0000 0.96630  0.66180  0.41460  Biso   1.000  C
  C243     1.0000 0.87570  0.65150  0.42610  Biso   1.000  C
  C244     1.0000 0.14300  0.60320  0.32070  Biso   1.000  C
  C245     1.0000 0.33320  0.51760  0.32590  Biso   1.000  C
  C246     1.0000 0.35920  0.47660  0.36670  Biso   1.000  C
  C247     1.0000 0.30680  0.46380  0.41470  Biso   1.000  C
  C248     1.0000 0.23040  0.49400  0.41950  Biso   1.000  C
  C249     1.0000 0.20520  0.53540  0.37680  Biso   1.000  C
  C250     1.0000 0.25480  0.54750  0.32950  Biso   1.000  C
  C251     1.0000 0.44350  0.44460  0.36140  Biso   1.000  C
  C252     1.0000 0.33590  0.42100  0.46120  Biso   1.000  C
  N1       1.0000 0.76430  0.84990  0.90700  Biso   1.000  N
  N2       1.0000 0.84330  0.86020  0.76800  Biso   1.000  N
  N3       1.0000 0.76480  0.96440  0.80430  Biso   1.000  N
  N4       1.0000 0.61690  0.89070  0.80070  Biso   1.000  N
  N5       1.0000 0.71490  0.79330  0.77040  Biso   1.000  N
  N6       1.0000 0.05820  0.76210  0.88920  Biso   1.000  N
  N7       1.0000 0.14750  0.88200  0.59560  Biso   1.000  N
  N8       1.0000 0.89260  0.95520  0.94960  Biso   1.000  N
  N9       1.0000 0.73610  0.17400  0.65530  Biso   1.000  N
  N10      1.0000 0.27560  0.80620  0.76980  Biso   1.000  N
  N11      1.0000 0.53350  0.63200  0.58370  Biso   1.000  N
  N12      1.0000 0.80200  0.52450  0.73730  Biso   1.000  N
  N13      1.0000 0.63410  0.92960  0.63020  Biso   1.000  N
  N14      1.0000 0.71070  0.91090  0.70660  Biso   1.000  N
  N15      1.0000 0.73570  0.15010  0.40700  Biso   1.000  N
  N16      1.0000 0.65670  0.13980  0.26800  Biso   1.000  N
  N17      1.0000 0.73520  0.03560  0.30430  Biso   1.000  N
  N18      1.0000 0.88310  0.10930  0.30070  Biso   1.000  N
  N19      1.0000 0.78510  0.20670  0.27040  Biso   1.000  N
  N20      1.0000 0.44180  0.23790  0.38920  Biso   1.000  N
  N21      1.0000 0.35250  0.11800  0.09560  Biso   1.000  N
  N22      1.0000 0.60740  0.04480  0.44960  Biso   1.000  N
  N23      1.0000 0.76390  0.82600  0.15530  Biso   1.000  N
  N24      1.0000 0.22440  0.19380  0.26980  Biso   1.000  N
  N25      1.0000 0.96650  0.36800  0.08370  Biso   1.000  N
  N26      1.0000 0.69800  0.47550  0.23730  Biso   1.000  N
  N27      1.0000 0.86590  0.07040  0.13020  Biso   1.000  N
  N28      1.0000 0.78930  0.08910  0.20660  Biso   1.000  N
  N29      1.0000 0.23570  0.34990  0.59300  Biso   1.000  N
  N30      1.0000 0.15670  0.36020  0.73200  Biso   1.000  N
  N31      1.0000 0.23520  0.46440  0.69570  Biso   1.000  N
  N32      1.0000 0.38310  0.39070  0.69930  Biso   1.000  N
  N33      1.0000 0.28510  0.29330  0.72960  Biso   1.000  N
  N34      1.0000 0.94180  0.26210  0.61080  Biso   1.000  N
  N35      1.0000 0.85250  0.38200  0.90440  Biso   1.000  N
  N36      1.0000 0.10740  0.45520  0.55040  Biso   1.000  N
  N37      1.0000 0.26390  0.67400  0.84470  Biso   1.000  N
  N38      1.0000 0.72440  0.30620  0.73020  Biso   1.000  N
  N39      1.0000 0.46650  0.13200  0.91630  Biso   1.000  N
  N40      1.0000 0.19800  0.02450  0.76270  Biso   1.000  N
  N41      1.0000 0.36590  0.42960  0.86980  Biso   1.000  N
  N42      1.0000 0.28930  0.41090  0.79340  Biso   1.000  N
  N43      1.0000 0.26430  0.65010  0.09300  Biso   1.000  N
  N44      1.0000 0.34330  0.63980  0.23200  Biso   1.000  N
  N45      1.0000 0.26480  0.53560  0.19570  Biso   1.000  N
  N46      1.0000 0.11690  0.60930  0.19930  Biso   1.000  N
  N47      1.0000 0.21490  0.70670  0.22960  Biso   1.000  N
  N48      1.0000 0.55820  0.73790  0.11080  Biso   1.000  N
  N49      1.0000 0.64750  0.61800  0.40440  Biso   1.000  N
  N50      1.0000 0.39260  0.54480  0.05040  Biso   1.000  N
  N51      1.0000 0.23610  0.32600  0.34470  Biso   1.000  N
  N52      1.0000 0.77560  0.69380  0.23020  Biso   1.000  N
  N53      1.0000 0.03350  0.86800  0.41630  Biso   1.000  N
  N54      1.0000 0.30200  0.97550  0.26270  Biso   1.000  N
  N55      1.0000 0.13410  0.57040  0.36980  Biso   1.000  N
  N56      1.0000 0.21070  0.58910  0.29340  Biso   1.000  N
  Cl1      1.0000 0.30200  0.08260  0.96750  Biso   1.000  Cl
  Cl2      1.0000 0.19800  0.91740  0.46750  Biso   1.000  Cl
  Cl3      1.0000 0.69800  0.58260  0.53250  Biso   1.000  Cl
  Cl4      1.0000 0.80200  0.41740  0.03250  Biso   1.000  Cl
  O1       1.0000 0.11250  0.73900  0.81090  Biso   1.000  O
  O2       1.0000 0.16970  0.96740  0.65310  Biso   1.000  O
  O3       1.0000 0.96050  0.04720  0.95070  Biso   1.000  O
  O4       1.0000 0.61080  0.12910  0.64030  Biso   1.000  O
  O5       1.0000 0.24810  0.89880  0.81890  Biso   1.000  O
  O6       1.0000 0.45350  0.65730  0.65780  Biso   1.000  O
  O7       1.0000 0.80090  0.59270  0.66360  Biso   1.000  O
  O8       1.0000 0.52660  0.76380  0.51860  Biso   1.000  O
  O9       1.0000 0.48230  0.66820  0.47110  Biso   1.000  O
  O10      1.0000 0.41820  0.77320  0.44230  Biso   1.000  O
  O11      1.0000 0.56860  0.74140  0.41710  Biso   1.000  O
  O12      1.0000 0.49970  0.89490  0.61190  Biso   1.000  O
  O13      1.0000 0.64660  0.81360  0.58930  Biso   1.000  O
  O14      1.0000 0.36390  0.90150  0.53930  Biso   1.000  O
  O15      1.0000 0.38750  0.26100  0.31090  Biso   1.000  O
  O16      1.0000 0.33030  0.03260  0.15310  Biso   1.000  O
  O17      1.0000 0.53950  0.95280  0.45070  Biso   1.000  O
  O18      1.0000 0.88920  0.87090  0.14030  Biso   1.000  O
  O19      1.0000 0.25190  0.10120  0.31890  Biso   1.000  O
  O20      1.0000 0.04650  0.34270  0.15780  Biso   1.000  O
  O21      1.0000 0.69910  0.40730  0.16360  Biso   1.000  O
  O22      1.0000 0.97340  0.23620  0.01860  Biso   1.000  O
  O23      1.0000 0.01770  0.33180  0.97110  Biso   1.000  O
  O24      1.0000 0.08180  0.22680  0.94230  Biso   1.000  O
  O25      1.0000 0.93140  0.25860  0.91710  Biso   1.000  O
  O26      1.0000 0.00030  0.10510  0.11190  Biso   1.000  O
  O27      1.0000 0.85340  0.18640  0.08930  Biso   1.000  O
  O28      1.0000 0.13610  0.09850  0.03930  Biso   1.000  O
  O29      1.0000 0.88750  0.23900  0.68910  Biso   1.000  O
  O30      1.0000 0.83030  0.46740  0.84690  Biso   1.000  O
  O31      1.0000 0.03950  0.54720  0.54930  Biso   1.000  O
  O32      1.0000 0.38920  0.62910  0.85970  Biso   1.000  O
  O33      1.0000 0.75190  0.39880  0.68110  Biso   1.000  O
  O34      1.0000 0.54650  0.15730  0.84220  Biso   1.000  O
  O35      1.0000 0.19910  0.09270  0.83640  Biso   1.000  O
  O36      1.0000 0.47340  0.26380  0.98140  Biso   1.000  O
  O37      1.0000 0.51770  0.16820  0.02890  Biso   1.000  O
  O38      1.0000 0.58180  0.27320  0.05770  Biso   1.000  O
  O39      1.0000 0.43140  0.24140  0.08290  Biso   1.000  O
  O40      1.0000 0.50030  0.39490  0.88810  Biso   1.000  O
  O41      1.0000 0.35340  0.31360  0.91070  Biso   1.000  O
  O42      1.0000 0.63610  0.40150  0.96070  Biso   1.000  O
  O43      1.0000 0.61250  0.76100  0.18910  Biso   1.000  O
  O44      1.0000 0.66970  0.53260  0.34690  Biso   1.000  O
  O45      1.0000 0.46050  0.45280  0.04930  Biso   1.000  O
  O46      1.0000 0.11080  0.37090  0.35970  Biso   1.000  O
  O47      1.0000 0.74810  0.60120  0.18110  Biso   1.000  O
  O48      1.0000 0.95350  0.84270  0.34220  Biso   1.000  O
  O49      1.0000 0.30090  0.90730  0.33640  Biso   1.000  O
  O50      1.0000 0.02660  0.73620  0.48140  Biso   1.000  O
  O51      1.0000 0.98230  0.83180  0.52890  Biso   1.000  O
  O52      1.0000 0.91820  0.72680  0.55770  Biso   1.000  O
  O53      1.0000 0.06860  0.75860  0.58290  Biso   1.000  O
  O54      1.0000 0.99970  0.60510  0.38810  Biso   1.000  O
  O55      1.0000 0.14660  0.68640  0.41070  Biso   1.000  O
  O56      1.0000 0.86390  0.59850  0.46070  Biso   1.000  O
