data_image0
_cell_length_a       30.7018
_cell_length_b       30.7018
_cell_length_c       30.7018
_cell_angle_alpha    109.471
_cell_angle_beta     109.471
_cell_angle_gamma    109.471

_symmetry_space_group_name_H-M    P 1
_symmetry_int_tables_number       1

loop_
  _symmetry_equiv_pos_as_xyz
  'x, y, z'

loop_
  _atom_site_label
  _atom_site_occupancy
  _atom_site_fract_x
  _atom_site_fract_y
  _atom_site_fract_z
  _atom_site_thermal_displace_type
  _atom_site_B_iso_or_equiv
  _atom_site_type_symbol
  Mn1      1.0000 0.50000  0.00000  0.50000  Biso   1.000  Mn
  Mn2      1.0000 0.00000  0.00000  0.00000  Biso   1.000  Mn
  Mn3      1.0000 0.50000  0.50000  0.00000  Biso   1.000  Mn
  Mn4      1.0000 0.00000  0.50000  0.50000  Biso   1.000  Mn
  Mn5      1.0000 0.50000  0.00000  0.00000  Biso   1.000  Mn
  Mn6      1.0000 0.50000  0.50000  0.50000  Biso   1.000  Mn
  Mn7      1.0000 0.00000  0.00000  0.50000  Biso   1.000  Mn
  Mn8      1.0000 0.00000  0.50000  0.00000  Biso   1.000  Mn
  Mn9      1.0000 0.50000  0.13196  0.50000  Biso   1.000  Mn
  Mn10     1.0000 0.13196  0.00000  0.00000  Biso   1.000  Mn
  Mn11     1.0000 0.36804  0.36804  0.86804  Biso   1.000  Mn
  Mn12     1.0000 0.00000  0.50000  0.63196  Biso   1.000  Mn
  Mn13     1.0000 0.36804  0.00000  0.00000  Biso   1.000  Mn
  Mn14     1.0000 0.50000  0.36804  0.50000  Biso   1.000  Mn
  Mn15     1.0000 0.13196  0.13196  0.63196  Biso   1.000  Mn
  Mn16     1.0000 1.00000  0.50000  0.86804  Biso   1.000  Mn
  Mn17     1.0000 0.50000  0.86804  0.50000  Biso   1.000  Mn
  Mn18     1.0000 0.86804  0.00000  1.00000  Biso   1.000  Mn
  Mn19     1.0000 0.63196  0.63196  0.13196  Biso   1.000  Mn
  Mn20     1.0000 0.00000  0.50000  0.36804  Biso   1.000  Mn
  Mn21     1.0000 0.63196  0.00000  0.00000  Biso   1.000  Mn
  Mn22     1.0000 0.50000  0.63196  0.50000  Biso   1.000  Mn
  Mn23     1.0000 0.86804  0.86804  0.36804  Biso   1.000  Mn
  Mn24     1.0000 0.00000  0.50000  0.13196  Biso   1.000  Mn
  H1       1.0000 0.69050  0.16400  0.38750  Biso   1.000  H
  H2       1.0000 0.63380  0.15630  0.42150  Biso   1.000  H
  H3       1.0000 0.72490  0.06240  0.41950  Biso   1.000  H
  H4       1.0000 0.66720  0.05060  0.45120  Biso   1.000  H
  H5       1.0000 0.27650  0.30300  0.11250  Biso   1.000  H
  H6       1.0000 0.23480  0.21230  0.07850  Biso   1.000  H
  H7       1.0000 0.14290  0.30540  0.08050  Biso   1.000  H
  H8       1.0000 0.09940  0.21600  0.04880  Biso   1.000  H
  H9       1.0000 0.22350  0.33600  0.02650  Biso   1.000  H
  H10      1.0000 0.26520  0.34370  0.97750  Biso   1.000  H
  H11      1.0000 0.35710  0.43760  0.16250  Biso   1.000  H
  H12      1.0000 0.40060  0.44940  0.11660  Biso   1.000  H
  H13      1.0000 0.80950  0.19700  0.47350  Biso   1.000  H
  H14      1.0000 0.86620  0.28770  0.52250  Biso   1.000  H
  H15      1.0000 0.77510  0.19460  0.33750  Biso   1.000  H
  H16      1.0000 0.83280  0.28400  0.38340  Biso   1.000  H
  H17      1.0000 0.52650  0.22350  0.83600  Biso   1.000  H
  H18      1.0000 0.47750  0.26520  0.84370  Biso   1.000  H
  H19      1.0000 0.66250  0.35710  0.93760  Biso   1.000  H
  H20      1.0000 0.61660  0.40060  0.94940  Biso   1.000  H
  H21      1.0000 0.97350  0.80950  0.69700  Biso   1.000  H
  H22      1.0000 0.02250  0.86620  0.78770  Biso   1.000  H
  H23      1.0000 0.83750  0.77510  0.69460  Biso   1.000  H
  H24      1.0000 0.88340  0.83280  0.78400  Biso   1.000  H
  H25      1.0000 0.88750  0.69050  0.66400  Biso   1.000  H
  H26      1.0000 0.92150  0.63380  0.65630  Biso   1.000  H
  H27      1.0000 0.91950  0.72490  0.56240  Biso   1.000  H
  H28      1.0000 0.95120  0.66720  0.55060  Biso   1.000  H
  H29      1.0000 0.61250  0.27650  0.80300  Biso   1.000  H
  H30      1.0000 0.57850  0.23480  0.71230  Biso   1.000  H
  H31      1.0000 0.58050  0.14290  0.80540  Biso   1.000  H
  H32      1.0000 0.54880  0.09940  0.71600  Biso   1.000  H
  H33      1.0000 0.30300  0.61250  0.77650  Biso   1.000  H
  H34      1.0000 0.21230  0.57850  0.73480  Biso   1.000  H
  H35      1.0000 0.30540  0.58050  0.64290  Biso   1.000  H
  H36      1.0000 0.21600  0.54880  0.59940  Biso   1.000  H
  H37      1.0000 0.16400  0.88750  0.19050  Biso   1.000  H
  H38      1.0000 0.15630  0.92150  0.13380  Biso   1.000  H
  H39      1.0000 0.06240  0.91950  0.22490  Biso   1.000  H
  H40      1.0000 0.05060  0.95120  0.16720  Biso   1.000  H
  H41      1.0000 0.19700  0.97350  0.30950  Biso   1.000  H
  H42      1.0000 0.28770  0.02250  0.36620  Biso   1.000  H
  H43      1.0000 0.19460  0.83750  0.27510  Biso   1.000  H
  H44      1.0000 0.28400  0.88340  0.33280  Biso   1.000  H
  H45      1.0000 0.33600  0.52650  0.72350  Biso   1.000  H
  H46      1.0000 0.34370  0.47750  0.76520  Biso   1.000  H
  H47      1.0000 0.43760  0.66250  0.85710  Biso   1.000  H
  H48      1.0000 0.44940  0.61660  0.90060  Biso   1.000  H
  H49      1.0000 0.33600  0.80950  0.11250  Biso   1.000  H
  H50      1.0000 0.34370  0.86620  0.07850  Biso   1.000  H
  H51      1.0000 0.43760  0.77510  0.08050  Biso   1.000  H
  H52      1.0000 0.44940  0.83280  0.04880  Biso   1.000  H
  H53      1.0000 0.19700  0.22350  0.38750  Biso   1.000  H
  H54      1.0000 0.28770  0.26520  0.42150  Biso   1.000  H
  H55      1.0000 0.19460  0.35710  0.41950  Biso   1.000  H
  H56      1.0000 0.28400  0.40060  0.45120  Biso   1.000  H
  H57      1.0000 0.16400  0.27650  0.47350  Biso   1.000  H
  H58      1.0000 0.15630  0.23480  0.52250  Biso   1.000  H
  H59      1.0000 0.06240  0.14290  0.33750  Biso   1.000  H
  H60      1.0000 0.05060  0.09940  0.38340  Biso   1.000  H
  H61      1.0000 0.30300  0.69050  0.02650  Biso   1.000  H
  H62      1.0000 0.21230  0.63380  0.97750  Biso   1.000  H
  H63      1.0000 0.30540  0.72490  0.16250  Biso   1.000  H
  H64      1.0000 0.21600  0.66720  0.11660  Biso   1.000  H
  H65      1.0000 0.27650  0.97350  0.66400  Biso   1.000  H
  H66      1.0000 0.23480  0.02250  0.65630  Biso   1.000  H
  H67      1.0000 0.14290  0.83750  0.56240  Biso   1.000  H
  H68      1.0000 0.09940  0.88340  0.55060  Biso   1.000  H
  H69      1.0000 0.69050  0.52650  0.80300  Biso   1.000  H
  H70      1.0000 0.63380  0.47750  0.71230  Biso   1.000  H
  H71      1.0000 0.72490  0.66250  0.80540  Biso   1.000  H
  H72      1.0000 0.66720  0.61660  0.71600  Biso   1.000  H
  H73      1.0000 0.80950  0.61250  0.83600  Biso   1.000  H
  H74      1.0000 0.86620  0.57850  0.84370  Biso   1.000  H
  H75      1.0000 0.77510  0.58050  0.93760  Biso   1.000  H
  H76      1.0000 0.83280  0.54880  0.94940  Biso   1.000  H
  H77      1.0000 0.22350  0.88750  0.69700  Biso   1.000  H
  H78      1.0000 0.26520  0.92150  0.78770  Biso   1.000  H
  H79      1.0000 0.35710  0.91950  0.69460  Biso   1.000  H
  H80      1.0000 0.40060  0.95120  0.78400  Biso   1.000  H
  H81      1.0000 0.88750  0.19700  0.72350  Biso   1.000  H
  H82      1.0000 0.92150  0.28770  0.76520  Biso   1.000  H
  H83      1.0000 0.91950  0.19460  0.85710  Biso   1.000  H
  H84      1.0000 0.95120  0.28400  0.90060  Biso   1.000  H
  H85      1.0000 0.61250  0.33600  0.30950  Biso   1.000  H
  H86      1.0000 0.57850  0.34370  0.36620  Biso   1.000  H
  H87      1.0000 0.58050  0.43760  0.27510  Biso   1.000  H
  H88      1.0000 0.54880  0.44940  0.33280  Biso   1.000  H
  H89      1.0000 0.52650  0.30300  0.19050  Biso   1.000  H
  H90      1.0000 0.47750  0.21230  0.13380  Biso   1.000  H
  H91      1.0000 0.66250  0.30540  0.22490  Biso   1.000  H
  H92      1.0000 0.61660  0.21600  0.16720  Biso   1.000  H
  H93      1.0000 0.97350  0.16400  0.77650  Biso   1.000  H
  H94      1.0000 0.02250  0.15630  0.73480  Biso   1.000  H
  H95      1.0000 0.83750  0.06240  0.64290  Biso   1.000  H
  H96      1.0000 0.88340  0.05060  0.59940  Biso   1.000  H
  H97      1.0000 0.30950  0.83600  0.61250  Biso   1.000  H
  H98      1.0000 0.36620  0.84370  0.57850  Biso   1.000  H
  H99      1.0000 0.27510  0.93760  0.58050  Biso   1.000  H
  H100     1.0000 0.33280  0.94940  0.54880  Biso   1.000  H
  H101     1.0000 0.72350  0.69700  0.88750  Biso   1.000  H
  H102     1.0000 0.76520  0.78770  0.92150  Biso   1.000  H
  H103     1.0000 0.85710  0.69460  0.91950  Biso   1.000  H
  H104     1.0000 0.90060  0.78400  0.95120  Biso   1.000  H
  H105     1.0000 0.77650  0.66400  0.97350  Biso   1.000  H
  H106     1.0000 0.73480  0.65630  0.02250  Biso   1.000  H
  H107     1.0000 0.64290  0.56240  0.83750  Biso   1.000  H
  H108     1.0000 0.59940  0.55060  0.88340  Biso   1.000  H
  H109     1.0000 0.19050  0.80300  0.52650  Biso   1.000  H
  H110     1.0000 0.13380  0.71230  0.47750  Biso   1.000  H
  H111     1.0000 0.22490  0.80540  0.66250  Biso   1.000  H
  H112     1.0000 0.16720  0.71600  0.61660  Biso   1.000  H
  H113     1.0000 0.47350  0.77650  0.16400  Biso   1.000  H
  H114     1.0000 0.52250  0.73480  0.15630  Biso   1.000  H
  H115     1.0000 0.33750  0.64290  0.06240  Biso   1.000  H
  H116     1.0000 0.38340  0.59940  0.05060  Biso   1.000  H
  H117     1.0000 0.02650  0.19050  0.30300  Biso   1.000  H
  H118     1.0000 0.97750  0.13380  0.21230  Biso   1.000  H
  H119     1.0000 0.16250  0.22490  0.30540  Biso   1.000  H
  H120     1.0000 0.11660  0.16720  0.21600  Biso   1.000  H
  H121     1.0000 0.11250  0.30950  0.33600  Biso   1.000  H
  H122     1.0000 0.07850  0.36620  0.34370  Biso   1.000  H
  H123     1.0000 0.08050  0.27510  0.43760  Biso   1.000  H
  H124     1.0000 0.04880  0.33280  0.44940  Biso   1.000  H
  H125     1.0000 0.38750  0.72350  0.19700  Biso   1.000  H
  H126     1.0000 0.42150  0.76520  0.28770  Biso   1.000  H
  H127     1.0000 0.41950  0.85710  0.19460  Biso   1.000  H
  H128     1.0000 0.45120  0.90060  0.28400  Biso   1.000  H
  H129     1.0000 0.69700  0.38750  0.22350  Biso   1.000  H
  H130     1.0000 0.78770  0.42150  0.26520  Biso   1.000  H
  H131     1.0000 0.69460  0.41950  0.35710  Biso   1.000  H
  H132     1.0000 0.78400  0.45120  0.40060  Biso   1.000  H
  H133     1.0000 0.83600  0.11250  0.80950  Biso   1.000  H
  H134     1.0000 0.84370  0.07850  0.86620  Biso   1.000  H
  H135     1.0000 0.93760  0.08050  0.77510  Biso   1.000  H
  H136     1.0000 0.94940  0.04880  0.83280  Biso   1.000  H
  H137     1.0000 0.80300  0.02650  0.69050  Biso   1.000  H
  H138     1.0000 0.71230  0.97750  0.63380  Biso   1.000  H
  H139     1.0000 0.80540  0.16250  0.72490  Biso   1.000  H
  H140     1.0000 0.71600  0.11660  0.66720  Biso   1.000  H
  H141     1.0000 0.66400  0.47350  0.27650  Biso   1.000  H
  H142     1.0000 0.65630  0.52250  0.23480  Biso   1.000  H
  H143     1.0000 0.56240  0.33750  0.14290  Biso   1.000  H
  H144     1.0000 0.55060  0.38340  0.09940  Biso   1.000  H
  H145     1.0000 0.66400  0.19050  0.88750  Biso   1.000  H
  H146     1.0000 0.65630  0.13380  0.92150  Biso   1.000  H
  H147     1.0000 0.56240  0.22490  0.91950  Biso   1.000  H
  H148     1.0000 0.55060  0.16720  0.95120  Biso   1.000  H
  H149     1.0000 0.80300  0.77650  0.61250  Biso   1.000  H
  H150     1.0000 0.71230  0.73480  0.57850  Biso   1.000  H
  H151     1.0000 0.80540  0.64290  0.58050  Biso   1.000  H
  H152     1.0000 0.71600  0.59940  0.54880  Biso   1.000  H
  H153     1.0000 0.83600  0.72350  0.52650  Biso   1.000  H
  H154     1.0000 0.84370  0.76520  0.47750  Biso   1.000  H
  H155     1.0000 0.93760  0.85710  0.66250  Biso   1.000  H
  H156     1.0000 0.94940  0.90060  0.61660  Biso   1.000  H
  H157     1.0000 0.69700  0.30950  0.97350  Biso   1.000  H
  H158     1.0000 0.78770  0.36620  0.02250  Biso   1.000  H
  H159     1.0000 0.69460  0.27510  0.83750  Biso   1.000  H
  H160     1.0000 0.78400  0.33280  0.88340  Biso   1.000  H
  H161     1.0000 0.72350  0.02650  0.33600  Biso   1.000  H
  H162     1.0000 0.76520  0.97750  0.34370  Biso   1.000  H
  H163     1.0000 0.85710  0.16250  0.43760  Biso   1.000  H
  H164     1.0000 0.90060  0.11660  0.44940  Biso   1.000  H
  H165     1.0000 0.30950  0.47350  0.19700  Biso   1.000  H
  H166     1.0000 0.36620  0.52250  0.28770  Biso   1.000  H
  H167     1.0000 0.27510  0.33750  0.19460  Biso   1.000  H
  H168     1.0000 0.33280  0.38340  0.28400  Biso   1.000  H
  H169     1.0000 0.19050  0.38750  0.16400  Biso   1.000  H
  H170     1.0000 0.13380  0.42150  0.15630  Biso   1.000  H
  H171     1.0000 0.22490  0.41950  0.06240  Biso   1.000  H
  H172     1.0000 0.16720  0.45120  0.05060  Biso   1.000  H
  H173     1.0000 0.77650  0.11250  0.30300  Biso   1.000  H
  H174     1.0000 0.73480  0.07850  0.21230  Biso   1.000  H
  H175     1.0000 0.64290  0.08050  0.30540  Biso   1.000  H
  H176     1.0000 0.59940  0.04880  0.21600  Biso   1.000  H
  H177     1.0000 0.11250  0.80300  0.27650  Biso   1.000  H
  H178     1.0000 0.07850  0.71230  0.23480  Biso   1.000  H
  H179     1.0000 0.08050  0.80540  0.14290  Biso   1.000  H
  H180     1.0000 0.04880  0.71600  0.09940  Biso   1.000  H
  H181     1.0000 0.38750  0.66400  0.69050  Biso   1.000  H
  H182     1.0000 0.42150  0.65630  0.63380  Biso   1.000  H
  H183     1.0000 0.41950  0.56240  0.72490  Biso   1.000  H
  H184     1.0000 0.45120  0.55060  0.66720  Biso   1.000  H
  H185     1.0000 0.47350  0.69700  0.80950  Biso   1.000  H
  H186     1.0000 0.52250  0.78770  0.86620  Biso   1.000  H
  H187     1.0000 0.33750  0.69460  0.77510  Biso   1.000  H
  H188     1.0000 0.38340  0.78400  0.83280  Biso   1.000  H
  H189     1.0000 0.02650  0.83600  0.22350  Biso   1.000  H
  H190     1.0000 0.97750  0.84370  0.26520  Biso   1.000  H
  H191     1.0000 0.16250  0.93760  0.35710  Biso   1.000  H
  H192     1.0000 0.11660  0.94940  0.40060  Biso   1.000  H
  C1       1.0000 0.60520  0.08950  0.45610  Biso   1.000  C
  C2       1.0000 0.64210  0.09960  0.43750  Biso   1.000  C
  C3       1.0000 0.68620  0.14120  0.40140  Biso   1.000  C
  C4       1.0000 0.71450  0.11700  0.40090  Biso   1.000  C
  C5       1.0000 0.65070  0.13610  0.42040  Biso   1.000  C
  C6       1.0000 0.70650  0.08120  0.41950  Biso   1.000  C
  C7       1.0000 0.67150  0.07390  0.43780  Biso   1.000  C
  C8       1.0000 0.13340  0.14910  0.04390  Biso   1.000  C
  C9       1.0000 0.16210  0.20460  0.06250  Biso   1.000  C
  C10      1.0000 0.23980  0.28480  0.09860  Biso   1.000  C
  C11      1.0000 0.21610  0.31360  0.09910  Biso   1.000  C
  C12      1.0000 0.21570  0.23030  0.07960  Biso   1.000  C
  C13      1.0000 0.16170  0.28700  0.08050  Biso   1.000  C
  C14      1.0000 0.13610  0.23370  0.06220  Biso   1.000  C
  C15      1.0000 0.36660  0.41050  0.01570  Biso   1.000  C
  C16      1.0000 0.33790  0.40040  0.04250  Biso   1.000  C
  C17      1.0000 0.26020  0.35880  0.04500  Biso   1.000  C
  C18      1.0000 0.28390  0.38300  0.09750  Biso   1.000  C
  C19      1.0000 0.28430  0.36390  0.01460  Biso   1.000  C
  C20      1.0000 0.33830  0.41880  0.12530  Biso   1.000  C
  C21      1.0000 0.36390  0.42610  0.09760  Biso   1.000  C
  C22      1.0000 0.89480  0.35090  0.48430  Biso   1.000  C
  C23      1.0000 0.85790  0.29540  0.45750  Biso   1.000  C
  C24      1.0000 0.81380  0.21520  0.45500  Biso   1.000  C
  C25      1.0000 0.78550  0.18640  0.40250  Biso   1.000  C
  C26      1.0000 0.84930  0.26970  0.48540  Biso   1.000  C
  C27      1.0000 0.79350  0.21300  0.37470  Biso   1.000  C
  C28      1.0000 0.82850  0.26630  0.40240  Biso   1.000  C
  C29      1.0000 0.51570  0.36660  0.91050  Biso   1.000  C
  C30      1.0000 0.54250  0.33790  0.90040  Biso   1.000  C
  C31      1.0000 0.54500  0.26020  0.85880  Biso   1.000  C
  C32      1.0000 0.59750  0.28390  0.88300  Biso   1.000  C
  C33      1.0000 0.51460  0.28430  0.86390  Biso   1.000  C
  C34      1.0000 0.62530  0.33830  0.91880  Biso   1.000  C
  C35      1.0000 0.59760  0.36390  0.92610  Biso   1.000  C
  C36      1.0000 0.98430  0.89480  0.85090  Biso   1.000  C
  C37      1.0000 0.95750  0.85790  0.79540  Biso   1.000  C
  C38      1.0000 0.95500  0.81380  0.71520  Biso   1.000  C
  C39      1.0000 0.90250  0.78550  0.68640  Biso   1.000  C
  C40      1.0000 0.98540  0.84930  0.76970  Biso   1.000  C
  C41      1.0000 0.87470  0.79350  0.71300  Biso   1.000  C
  C42      1.0000 0.90240  0.82850  0.76630  Biso   1.000  C
  C43      1.0000 0.95610  0.60520  0.58950  Biso   1.000  C
  C44      1.0000 0.93750  0.64210  0.59960  Biso   1.000  C
  C45      1.0000 0.90140  0.68620  0.64120  Biso   1.000  C
  C46      1.0000 0.90090  0.71450  0.61700  Biso   1.000  C
  C47      1.0000 0.92040  0.65070  0.63610  Biso   1.000  C
  C48      1.0000 0.91950  0.70650  0.58120  Biso   1.000  C
  C49      1.0000 0.93780  0.67150  0.57390  Biso   1.000  C
  C50      1.0000 0.54390  0.13340  0.64910  Biso   1.000  C
  C51      1.0000 0.56250  0.16210  0.70460  Biso   1.000  C
  C52      1.0000 0.59860  0.23980  0.78480  Biso   1.000  C
  C53      1.0000 0.59910  0.21610  0.81360  Biso   1.000  C
  C54      1.0000 0.57960  0.21570  0.73030  Biso   1.000  C
  C55      1.0000 0.58050  0.16170  0.78700  Biso   1.000  C
  C56      1.0000 0.56220  0.13610  0.73370  Biso   1.000  C
  C57      1.0000 0.14910  0.54390  0.63340  Biso   1.000  C
  C58      1.0000 0.20460  0.56250  0.66210  Biso   1.000  C
  C59      1.0000 0.28480  0.59860  0.73980  Biso   1.000  C
  C60      1.0000 0.31360  0.59910  0.71610  Biso   1.000  C
  C61      1.0000 0.23030  0.57960  0.71570  Biso   1.000  C
  C62      1.0000 0.28700  0.58050  0.66170  Biso   1.000  C
  C63      1.0000 0.23370  0.56220  0.63610  Biso   1.000  C
  C64      1.0000 0.08950  0.95610  0.10520  Biso   1.000  C
  C65      1.0000 0.09960  0.93750  0.14210  Biso   1.000  C
  C66      1.0000 0.14120  0.90140  0.18620  Biso   1.000  C
  C67      1.0000 0.11700  0.90090  0.21450  Biso   1.000  C
  C68      1.0000 0.13610  0.92040  0.15070  Biso   1.000  C
  C69      1.0000 0.08120  0.91950  0.20650  Biso   1.000  C
  C70      1.0000 0.07390  0.93780  0.17150  Biso   1.000  C
  C71      1.0000 0.35090  0.98430  0.39480  Biso   1.000  C
  C72      1.0000 0.29540  0.95750  0.35790  Biso   1.000  C
  C73      1.0000 0.21520  0.95500  0.31380  Biso   1.000  C
  C74      1.0000 0.18640  0.90250  0.28550  Biso   1.000  C
  C75      1.0000 0.26970  0.98540  0.34930  Biso   1.000  C
  C76      1.0000 0.21300  0.87470  0.29350  Biso   1.000  C
  C77      1.0000 0.26630  0.90240  0.32850  Biso   1.000  C
  C78      1.0000 0.41050  0.51570  0.86660  Biso   1.000  C
  C79      1.0000 0.40040  0.54250  0.83790  Biso   1.000  C
  C80      1.0000 0.35880  0.54500  0.76020  Biso   1.000  C
  C81      1.0000 0.38300  0.59750  0.78390  Biso   1.000  C
  C82      1.0000 0.36390  0.51460  0.78430  Biso   1.000  C
  C83      1.0000 0.41880  0.62530  0.83830  Biso   1.000  C
  C84      1.0000 0.42610  0.59760  0.86390  Biso   1.000  C
  C85      1.0000 0.41050  0.89480  0.04390  Biso   1.000  C
  C86      1.0000 0.40040  0.85790  0.06250  Biso   1.000  C
  C87      1.0000 0.35880  0.81380  0.09860  Biso   1.000  C
  C88      1.0000 0.38300  0.78550  0.09910  Biso   1.000  C
  C89      1.0000 0.36390  0.84930  0.07960  Biso   1.000  C
  C90      1.0000 0.41880  0.79350  0.08050  Biso   1.000  C
  C91      1.0000 0.42610  0.82850  0.06220  Biso   1.000  C
  C92      1.0000 0.35090  0.36660  0.45610  Biso   1.000  C
  C93      1.0000 0.29540  0.33790  0.43750  Biso   1.000  C
  C94      1.0000 0.21520  0.26020  0.40140  Biso   1.000  C
  C95      1.0000 0.18640  0.28390  0.40090  Biso   1.000  C
  C96      1.0000 0.26970  0.28430  0.42040  Biso   1.000  C
  C97      1.0000 0.21300  0.33830  0.41950  Biso   1.000  C
  C98      1.0000 0.26630  0.36390  0.43780  Biso   1.000  C
  C99      1.0000 0.08950  0.13340  0.48430  Biso   1.000  C
  C100     1.0000 0.09960  0.16210  0.45750  Biso   1.000  C
  C101     1.0000 0.14120  0.23980  0.45500  Biso   1.000  C
  C102     1.0000 0.11700  0.21610  0.40250  Biso   1.000  C
  C103     1.0000 0.13610  0.21570  0.48540  Biso   1.000  C
  C104     1.0000 0.08120  0.16170  0.37470  Biso   1.000  C
  C105     1.0000 0.07390  0.13610  0.40240  Biso   1.000  C
  C106     1.0000 0.14910  0.60520  0.01570  Biso   1.000  C
  C107     1.0000 0.20460  0.64210  0.04250  Biso   1.000  C
  C108     1.0000 0.28480  0.68620  0.04500  Biso   1.000  C
  C109     1.0000 0.31360  0.71450  0.09750  Biso   1.000  C
  C110     1.0000 0.23030  0.65070  0.01460  Biso   1.000  C
  C111     1.0000 0.28700  0.70650  0.12530  Biso   1.000  C
  C112     1.0000 0.23370  0.67150  0.09760  Biso   1.000  C
  C113     1.0000 0.13340  0.98430  0.58950  Biso   1.000  C
  C114     1.0000 0.16210  0.95750  0.59960  Biso   1.000  C
  C115     1.0000 0.23980  0.95500  0.64120  Biso   1.000  C
  C116     1.0000 0.21610  0.90250  0.61700  Biso   1.000  C
  C117     1.0000 0.21570  0.98540  0.63610  Biso   1.000  C
  C118     1.0000 0.16170  0.87470  0.58120  Biso   1.000  C
  C119     1.0000 0.13610  0.90240  0.57390  Biso   1.000  C
  C120     1.0000 0.60520  0.51570  0.64910  Biso   1.000  C
  C121     1.0000 0.64210  0.54250  0.70460  Biso   1.000  C
  C122     1.0000 0.68620  0.54500  0.78480  Biso   1.000  C
  C123     1.0000 0.71450  0.59750  0.81360  Biso   1.000  C
  C124     1.0000 0.65070  0.51460  0.73030  Biso   1.000  C
  C125     1.0000 0.70650  0.62530  0.78700  Biso   1.000  C
  C126     1.0000 0.67150  0.59760  0.73370  Biso   1.000  C
  C127     1.0000 0.89480  0.54390  0.91050  Biso   1.000  C
  C128     1.0000 0.85790  0.56250  0.90040  Biso   1.000  C
  C129     1.0000 0.81380  0.59860  0.85880  Biso   1.000  C
  C130     1.0000 0.78550  0.59910  0.88300  Biso   1.000  C
  C131     1.0000 0.84930  0.57960  0.86390  Biso   1.000  C
  C132     1.0000 0.79350  0.58050  0.91880  Biso   1.000  C
  C133     1.0000 0.82850  0.56220  0.92610  Biso   1.000  C
  C134     1.0000 0.36660  0.95610  0.85090  Biso   1.000  C
  C135     1.0000 0.33790  0.93750  0.79540  Biso   1.000  C
  C136     1.0000 0.26020  0.90140  0.71520  Biso   1.000  C
  C137     1.0000 0.28390  0.90090  0.68640  Biso   1.000  C
  C138     1.0000 0.28430  0.92040  0.76970  Biso   1.000  C
  C139     1.0000 0.33830  0.91950  0.71300  Biso   1.000  C
  C140     1.0000 0.36390  0.93780  0.76630  Biso   1.000  C
  C141     1.0000 0.95610  0.35090  0.86660  Biso   1.000  C
  C142     1.0000 0.93750  0.29540  0.83790  Biso   1.000  C
  C143     1.0000 0.90140  0.21520  0.76020  Biso   1.000  C
  C144     1.0000 0.90090  0.18640  0.78390  Biso   1.000  C
  C145     1.0000 0.92040  0.26970  0.78430  Biso   1.000  C
  C146     1.0000 0.91950  0.21300  0.83830  Biso   1.000  C
  C147     1.0000 0.93780  0.26630  0.86390  Biso   1.000  C
  C148     1.0000 0.54390  0.41050  0.39480  Biso   1.000  C
  C149     1.0000 0.56250  0.40040  0.35790  Biso   1.000  C
  C150     1.0000 0.59860  0.35880  0.31380  Biso   1.000  C
  C151     1.0000 0.59910  0.38300  0.28550  Biso   1.000  C
  C152     1.0000 0.57960  0.36390  0.34930  Biso   1.000  C
  C153     1.0000 0.58050  0.41880  0.29350  Biso   1.000  C
  C154     1.0000 0.56220  0.42610  0.32850  Biso   1.000  C
  C155     1.0000 0.51570  0.14910  0.10520  Biso   1.000  C
  C156     1.0000 0.54250  0.20460  0.14210  Biso   1.000  C
  C157     1.0000 0.54500  0.28480  0.18620  Biso   1.000  C
  C158     1.0000 0.59750  0.31360  0.21450  Biso   1.000  C
  C159     1.0000 0.51460  0.23030  0.15070  Biso   1.000  C
  C160     1.0000 0.62530  0.28700  0.20650  Biso   1.000  C
  C161     1.0000 0.59760  0.23370  0.17150  Biso   1.000  C
  C162     1.0000 0.98430  0.08950  0.63340  Biso   1.000  C
  C163     1.0000 0.95750  0.09960  0.66210  Biso   1.000  C
  C164     1.0000 0.95500  0.14120  0.73980  Biso   1.000  C
  C165     1.0000 0.90250  0.11700  0.71610  Biso   1.000  C
  C166     1.0000 0.98540  0.13610  0.71570  Biso   1.000  C
  C167     1.0000 0.87470  0.08120  0.66170  Biso   1.000  C
  C168     1.0000 0.90240  0.07390  0.63610  Biso   1.000  C
  C169     1.0000 0.39480  0.91050  0.54390  Biso   1.000  C
  C170     1.0000 0.35790  0.90040  0.56250  Biso   1.000  C
  C171     1.0000 0.31380  0.85880  0.59860  Biso   1.000  C
  C172     1.0000 0.28550  0.88300  0.59910  Biso   1.000  C
  C173     1.0000 0.34930  0.86390  0.57960  Biso   1.000  C
  C174     1.0000 0.29350  0.91880  0.58050  Biso   1.000  C
  C175     1.0000 0.32850  0.92610  0.56220  Biso   1.000  C
  C176     1.0000 0.86660  0.85090  0.95610  Biso   1.000  C
  C177     1.0000 0.83790  0.79540  0.93750  Biso   1.000  C
  C178     1.0000 0.76020  0.71520  0.90140  Biso   1.000  C
  C179     1.0000 0.78390  0.68640  0.90090  Biso   1.000  C
  C180     1.0000 0.78430  0.76970  0.92040  Biso   1.000  C
  C181     1.0000 0.83830  0.71300  0.91950  Biso   1.000  C
  C182     1.0000 0.86390  0.76630  0.93780  Biso   1.000  C
  C183     1.0000 0.63340  0.58950  0.98430  Biso   1.000  C
  C184     1.0000 0.66210  0.59960  0.95750  Biso   1.000  C
  C185     1.0000 0.73980  0.64120  0.95500  Biso   1.000  C
  C186     1.0000 0.71610  0.61700  0.90250  Biso   1.000  C
  C187     1.0000 0.71570  0.63610  0.98540  Biso   1.000  C
  C188     1.0000 0.66170  0.58120  0.87470  Biso   1.000  C
  C189     1.0000 0.63610  0.57390  0.90240  Biso   1.000  C
  C190     1.0000 0.10520  0.64910  0.51570  Biso   1.000  C
  C191     1.0000 0.14210  0.70460  0.54250  Biso   1.000  C
  C192     1.0000 0.18620  0.78480  0.54500  Biso   1.000  C
  C193     1.0000 0.21450  0.81360  0.59750  Biso   1.000  C
  C194     1.0000 0.15070  0.73030  0.51460  Biso   1.000  C
  C195     1.0000 0.20650  0.78700  0.62530  Biso   1.000  C
  C196     1.0000 0.17150  0.73370  0.59760  Biso   1.000  C
  C197     1.0000 0.48430  0.63340  0.08950  Biso   1.000  C
  C198     1.0000 0.45750  0.66210  0.09960  Biso   1.000  C
  C199     1.0000 0.45500  0.73980  0.14120  Biso   1.000  C
  C200     1.0000 0.40250  0.71610  0.11700  Biso   1.000  C
  C201     1.0000 0.48540  0.71570  0.13610  Biso   1.000  C
  C202     1.0000 0.37470  0.66170  0.08120  Biso   1.000  C
  C203     1.0000 0.40240  0.63610  0.07390  Biso   1.000  C
  C204     1.0000 0.01570  0.10520  0.14910  Biso   1.000  C
  C205     1.0000 0.04250  0.14210  0.20460  Biso   1.000  C
  C206     1.0000 0.04500  0.18620  0.28480  Biso   1.000  C
  C207     1.0000 0.09750  0.21450  0.31360  Biso   1.000  C
  C208     1.0000 0.01460  0.15070  0.23030  Biso   1.000  C
  C209     1.0000 0.12530  0.20650  0.28700  Biso   1.000  C
  C210     1.0000 0.09760  0.17150  0.23370  Biso   1.000  C
  C211     1.0000 0.04390  0.39480  0.41050  Biso   1.000  C
  C212     1.0000 0.06250  0.35790  0.40040  Biso   1.000  C
  C213     1.0000 0.09860  0.31380  0.35880  Biso   1.000  C
  C214     1.0000 0.09910  0.28550  0.38300  Biso   1.000  C
  C215     1.0000 0.07960  0.34930  0.36390  Biso   1.000  C
  C216     1.0000 0.08050  0.29350  0.41880  Biso   1.000  C
  C217     1.0000 0.06220  0.32850  0.42610  Biso   1.000  C
  C218     1.0000 0.45610  0.86660  0.35090  Biso   1.000  C
  C219     1.0000 0.43750  0.83790  0.29540  Biso   1.000  C
  C220     1.0000 0.40140  0.76020  0.21520  Biso   1.000  C
  C221     1.0000 0.40090  0.78390  0.18640  Biso   1.000  C
  C222     1.0000 0.42040  0.78430  0.26970  Biso   1.000  C
  C223     1.0000 0.41950  0.83830  0.21300  Biso   1.000  C
  C224     1.0000 0.43780  0.86390  0.26630  Biso   1.000  C
  C225     1.0000 0.85090  0.45610  0.36660  Biso   1.000  C
  C226     1.0000 0.79540  0.43750  0.33790  Biso   1.000  C
  C227     1.0000 0.71520  0.40140  0.26020  Biso   1.000  C
  C228     1.0000 0.68640  0.40090  0.28390  Biso   1.000  C
  C229     1.0000 0.76970  0.42040  0.28430  Biso   1.000  C
  C230     1.0000 0.71300  0.41950  0.33830  Biso   1.000  C
  C231     1.0000 0.76630  0.43780  0.36390  Biso   1.000  C
  C232     1.0000 0.91050  0.04390  0.89480  Biso   1.000  C
  C233     1.0000 0.90040  0.06250  0.85790  Biso   1.000  C
  C234     1.0000 0.85880  0.09860  0.81380  Biso   1.000  C
  C235     1.0000 0.88300  0.09910  0.78550  Biso   1.000  C
  C236     1.0000 0.86390  0.07960  0.84930  Biso   1.000  C
  C237     1.0000 0.91880  0.08050  0.79350  Biso   1.000  C
  C238     1.0000 0.92610  0.06220  0.82850  Biso   1.000  C
  C239     1.0000 0.64910  0.01570  0.60520  Biso   1.000  C
  C240     1.0000 0.70460  0.04250  0.64210  Biso   1.000  C
  C241     1.0000 0.78480  0.04500  0.68620  Biso   1.000  C
  C242     1.0000 0.81360  0.09750  0.71450  Biso   1.000  C
  C243     1.0000 0.73030  0.01460  0.65070  Biso   1.000  C
  C244     1.0000 0.78700  0.12530  0.70650  Biso   1.000  C
  C245     1.0000 0.73370  0.09760  0.67150  Biso   1.000  C
  C246     1.0000 0.58950  0.48430  0.13340  Biso   1.000  C
  C247     1.0000 0.59960  0.45750  0.16210  Biso   1.000  C
  C248     1.0000 0.64120  0.45500  0.23980  Biso   1.000  C
  C249     1.0000 0.61700  0.40250  0.21610  Biso   1.000  C
  C250     1.0000 0.63610  0.48540  0.21570  Biso   1.000  C
  C251     1.0000 0.58120  0.37470  0.16170  Biso   1.000  C
  C252     1.0000 0.57390  0.40240  0.13610  Biso   1.000  C
  C253     1.0000 0.58950  0.10520  0.95610  Biso   1.000  C
  C254     1.0000 0.59960  0.14210  0.93750  Biso   1.000  C
  C255     1.0000 0.64120  0.18620  0.90140  Biso   1.000  C
  C256     1.0000 0.61700  0.21450  0.90090  Biso   1.000  C
  C257     1.0000 0.63610  0.15070  0.92040  Biso   1.000  C
  C258     1.0000 0.58120  0.20650  0.91950  Biso   1.000  C
  C259     1.0000 0.57390  0.17150  0.93780  Biso   1.000  C
  C260     1.0000 0.64910  0.63340  0.54390  Biso   1.000  C
  C261     1.0000 0.70460  0.66210  0.56250  Biso   1.000  C
  C262     1.0000 0.78480  0.73980  0.59860  Biso   1.000  C
  C263     1.0000 0.81360  0.71610  0.59910  Biso   1.000  C
  C264     1.0000 0.73030  0.71570  0.57960  Biso   1.000  C
  C265     1.0000 0.78700  0.66170  0.58050  Biso   1.000  C
  C266     1.0000 0.73370  0.63610  0.56220  Biso   1.000  C
  C267     1.0000 0.91050  0.86660  0.51570  Biso   1.000  C
  C268     1.0000 0.90040  0.83790  0.54250  Biso   1.000  C
  C269     1.0000 0.85880  0.76020  0.54500  Biso   1.000  C
  C270     1.0000 0.88300  0.78390  0.59750  Biso   1.000  C
  C271     1.0000 0.86390  0.78430  0.51460  Biso   1.000  C
  C272     1.0000 0.91880  0.83830  0.62530  Biso   1.000  C
  C273     1.0000 0.92610  0.86390  0.59760  Biso   1.000  C
  C274     1.0000 0.85090  0.39480  0.98430  Biso   1.000  C
  C275     1.0000 0.79540  0.35790  0.95750  Biso   1.000  C
  C276     1.0000 0.71520  0.31380  0.95500  Biso   1.000  C
  C277     1.0000 0.68640  0.28550  0.90250  Biso   1.000  C
  C278     1.0000 0.76970  0.34930  0.98540  Biso   1.000  C
  C279     1.0000 0.71300  0.29350  0.87470  Biso   1.000  C
  C280     1.0000 0.76630  0.32850  0.90240  Biso   1.000  C
  C281     1.0000 0.86660  0.01570  0.41050  Biso   1.000  C
  C282     1.0000 0.83790  0.04250  0.40040  Biso   1.000  C
  C283     1.0000 0.76020  0.04500  0.35880  Biso   1.000  C
  C284     1.0000 0.78390  0.09750  0.38300  Biso   1.000  C
  C285     1.0000 0.78430  0.01460  0.36390  Biso   1.000  C
  C286     1.0000 0.83830  0.12530  0.41880  Biso   1.000  C
  C287     1.0000 0.86390  0.09760  0.42610  Biso   1.000  C
  C288     1.0000 0.39480  0.48430  0.35090  Biso   1.000  C
  C289     1.0000 0.35790  0.45750  0.29540  Biso   1.000  C
  C290     1.0000 0.31380  0.45500  0.21520  Biso   1.000  C
  C291     1.0000 0.28550  0.40250  0.18640  Biso   1.000  C
  C292     1.0000 0.34930  0.48540  0.26970  Biso   1.000  C
  C293     1.0000 0.29350  0.37470  0.21300  Biso   1.000  C
  C294     1.0000 0.32850  0.40240  0.26630  Biso   1.000  C
  C295     1.0000 0.10520  0.45610  0.08950  Biso   1.000  C
  C296     1.0000 0.14210  0.43750  0.09960  Biso   1.000  C
  C297     1.0000 0.18620  0.40140  0.14120  Biso   1.000  C
  C298     1.0000 0.21450  0.40090  0.11700  Biso   1.000  C
  C299     1.0000 0.15070  0.42040  0.13610  Biso   1.000  C
  C300     1.0000 0.20650  0.41950  0.08120  Biso   1.000  C
  C301     1.0000 0.17150  0.43780  0.07390  Biso   1.000  C
  C302     1.0000 0.63340  0.04390  0.14910  Biso   1.000  C
  C303     1.0000 0.66210  0.06250  0.20460  Biso   1.000  C
  C304     1.0000 0.73980  0.09860  0.28480  Biso   1.000  C
  C305     1.0000 0.71610  0.09910  0.31360  Biso   1.000  C
  C306     1.0000 0.71570  0.07960  0.23030  Biso   1.000  C
  C307     1.0000 0.66170  0.08050  0.28700  Biso   1.000  C
  C308     1.0000 0.63610  0.06220  0.23370  Biso   1.000  C
  C309     1.0000 0.04390  0.64910  0.13340  Biso   1.000  C
  C310     1.0000 0.06250  0.70460  0.16210  Biso   1.000  C
  C311     1.0000 0.09860  0.78480  0.23980  Biso   1.000  C
  C312     1.0000 0.09910  0.81360  0.21610  Biso   1.000  C
  C313     1.0000 0.07960  0.73030  0.21570  Biso   1.000  C
  C314     1.0000 0.08050  0.78700  0.16170  Biso   1.000  C
  C315     1.0000 0.06220  0.73370  0.13610  Biso   1.000  C
  C316     1.0000 0.45610  0.58950  0.60520  Biso   1.000  C
  C317     1.0000 0.43750  0.59960  0.64210  Biso   1.000  C
  C318     1.0000 0.40140  0.64120  0.68620  Biso   1.000  C
  C319     1.0000 0.40090  0.61700  0.71450  Biso   1.000  C
  C320     1.0000 0.42040  0.63610  0.65070  Biso   1.000  C
  C321     1.0000 0.41950  0.58120  0.70650  Biso   1.000  C
  C322     1.0000 0.43780  0.57390  0.67150  Biso   1.000  C
  C323     1.0000 0.48430  0.85090  0.89480  Biso   1.000  C
  C324     1.0000 0.45750  0.79540  0.85790  Biso   1.000  C
  C325     1.0000 0.45500  0.71520  0.81380  Biso   1.000  C
  C326     1.0000 0.40250  0.68640  0.78550  Biso   1.000  C
  C327     1.0000 0.48540  0.76970  0.84930  Biso   1.000  C
  C328     1.0000 0.37470  0.71300  0.79350  Biso   1.000  C
  C329     1.0000 0.40240  0.76630  0.82850  Biso   1.000  C
  C330     1.0000 0.01570  0.91050  0.36660  Biso   1.000  C
  C331     1.0000 0.04250  0.90040  0.33790  Biso   1.000  C
  C332     1.0000 0.04500  0.85880  0.26020  Biso   1.000  C
  C333     1.0000 0.09750  0.88300  0.28390  Biso   1.000  C
  C334     1.0000 0.01460  0.86390  0.28430  Biso   1.000  C
  C335     1.0000 0.12530  0.91880  0.33830  Biso   1.000  C
  C336     1.0000 0.09760  0.92610  0.36390  Biso   1.000  C
  C337     1.0000 0.75000  0.12500  0.37500  Biso   1.000  C
  C338     1.0000 0.25000  0.37500  0.12500  Biso   1.000  C
  C339     1.0000 0.62500  0.25000  0.87500  Biso   1.000  C
  C340     1.0000 0.87500  0.75000  0.62500  Biso   1.000  C
  C341     1.0000 0.37500  0.62500  0.75000  Biso   1.000  C
  C342     1.0000 0.12500  0.87500  0.25000  Biso   1.000  C
  C343     1.0000 0.37500  0.75000  0.12500  Biso   1.000  C
  C344     1.0000 0.12500  0.25000  0.37500  Biso   1.000  C
  C345     1.0000 0.25000  0.87500  0.62500  Biso   1.000  C
  C346     1.0000 0.75000  0.62500  0.87500  Biso   1.000  C
  C347     1.0000 0.87500  0.12500  0.75000  Biso   1.000  C
  C348     1.0000 0.62500  0.37500  0.25000  Biso   1.000  C
  N1       1.0000 0.58400  0.04820  0.46580  Biso   1.000  N
  N2       1.0000 0.55160  0.05810  0.48110  Biso   1.000  N
  N3       1.0000 0.55090  0.09960  0.48090  Biso   1.000  N
  N4       1.0000 0.58330  0.12010  0.46640  Biso   1.000  N
  N5       1.0000 0.08240  0.11820  0.03420  Biso   1.000  N
  N6       1.0000 0.07700  0.07050  0.01890  Biso   1.000  N
  N7       1.0000 0.11870  0.07000  0.01910  Biso   1.000  N
  N8       1.0000 0.15370  0.11690  0.03360  Biso   1.000  N
  N9       1.0000 0.41760  0.45180  0.03580  Biso   1.000  N
  N10      1.0000 0.42300  0.44190  0.99350  Biso   1.000  N
  N11      1.0000 0.38130  0.40040  0.95130  Biso   1.000  N
  N12      1.0000 0.34630  0.37990  0.96320  Biso   1.000  N
  N13      1.0000 0.91600  0.38180  0.46420  Biso   1.000  N
  N14      1.0000 0.94840  0.42950  0.50650  Biso   1.000  N
  N15      1.0000 0.94910  0.43000  0.54870  Biso   1.000  N
  N16      1.0000 0.91670  0.38310  0.53680  Biso   1.000  N
  N17      1.0000 0.53580  0.41760  0.95180  Biso   1.000  N
  N18      1.0000 0.49350  0.42300  0.94190  Biso   1.000  N
  N19      1.0000 0.45130  0.38130  0.90040  Biso   1.000  N
  N20      1.0000 0.46320  0.34630  0.87990  Biso   1.000  N
  N21      1.0000 0.96420  0.91600  0.88180  Biso   1.000  N
  N22      1.0000 0.00650  0.94840  0.92950  Biso   1.000  N
  N23      1.0000 0.04870  0.94910  0.93000  Biso   1.000  N
  N24      1.0000 0.03680  0.91670  0.88310  Biso   1.000  N
  N25      1.0000 0.96580  0.58400  0.54820  Biso   1.000  N
  N26      1.0000 0.98110  0.55160  0.55810  Biso   1.000  N
  N27      1.0000 0.98090  0.55090  0.59960  Biso   1.000  N
  N28      1.0000 0.96640  0.58330  0.62010  Biso   1.000  N
  N29      1.0000 0.53420  0.08240  0.61820  Biso   1.000  N
  N30      1.0000 0.51890  0.07700  0.57050  Biso   1.000  N
  N31      1.0000 0.51910  0.11870  0.57000  Biso   1.000  N
  N32      1.0000 0.53360  0.15370  0.61690  Biso   1.000  N
  N33      1.0000 0.11820  0.53420  0.58240  Biso   1.000  N
  N34      1.0000 0.07050  0.51890  0.57700  Biso   1.000  N
  N35      1.0000 0.07000  0.51910  0.61870  Biso   1.000  N
  N36      1.0000 0.11690  0.53360  0.65370  Biso   1.000  N
  N37      1.0000 0.04820  0.96580  0.08400  Biso   1.000  N
  N38      1.0000 0.05810  0.98110  0.05160  Biso   1.000  N
  N39      1.0000 0.09960  0.98090  0.05090  Biso   1.000  N
  N40      1.0000 0.12010  0.96640  0.08330  Biso   1.000  N
  N41      1.0000 0.38180  0.96420  0.41600  Biso   1.000  N
  N42      1.0000 0.42950  0.00650  0.44840  Biso   1.000  N
  N43      1.0000 0.43000  0.04870  0.44910  Biso   1.000  N
  N44      1.0000 0.38310  0.03680  0.41670  Biso   1.000  N
  N45      1.0000 0.45180  0.53580  0.91760  Biso   1.000  N
  N46      1.0000 0.44190  0.49350  0.92300  Biso   1.000  N
  N47      1.0000 0.40040  0.45130  0.88130  Biso   1.000  N
  N48      1.0000 0.37990  0.46320  0.84630  Biso   1.000  N
  N49      1.0000 0.45180  0.91600  0.03420  Biso   1.000  N
  N50      1.0000 0.44190  0.94840  0.01890  Biso   1.000  N
  N51      1.0000 0.40040  0.94910  0.01910  Biso   1.000  N
  N52      1.0000 0.37990  0.91670  0.03360  Biso   1.000  N
  N53      1.0000 0.38180  0.41760  0.46580  Biso   1.000  N
  N54      1.0000 0.42950  0.42300  0.48110  Biso   1.000  N
  N55      1.0000 0.43000  0.38130  0.48090  Biso   1.000  N
  N56      1.0000 0.38310  0.34630  0.46640  Biso   1.000  N
  N57      1.0000 0.04820  0.08240  0.46420  Biso   1.000  N
  N58      1.0000 0.05810  0.07700  0.50650  Biso   1.000  N
  N59      1.0000 0.09960  0.11870  0.54870  Biso   1.000  N
  N60      1.0000 0.12010  0.15370  0.53680  Biso   1.000  N
  N61      1.0000 0.11820  0.58400  0.03580  Biso   1.000  N
  N62      1.0000 0.07050  0.55160  0.99350  Biso   1.000  N
  N63      1.0000 0.07000  0.55090  0.95130  Biso   1.000  N
  N64      1.0000 0.11690  0.58330  0.96320  Biso   1.000  N
  N65      1.0000 0.08240  0.96420  0.54820  Biso   1.000  N
  N66      1.0000 0.07700  0.00650  0.55810  Biso   1.000  N
  N67      1.0000 0.11870  0.04870  0.59960  Biso   1.000  N
  N68      1.0000 0.15370  0.03680  0.62010  Biso   1.000  N
  N69      1.0000 0.58400  0.53580  0.61820  Biso   1.000  N
  N70      1.0000 0.55160  0.49350  0.57050  Biso   1.000  N
  N71      1.0000 0.55090  0.45130  0.57000  Biso   1.000  N
  N72      1.0000 0.58330  0.46320  0.61690  Biso   1.000  N
  N73      1.0000 0.91600  0.53420  0.95180  Biso   1.000  N
  N74      1.0000 0.94840  0.51890  0.94190  Biso   1.000  N
  N75      1.0000 0.94910  0.51910  0.90040  Biso   1.000  N
  N76      1.0000 0.91670  0.53360  0.87990  Biso   1.000  N
  N77      1.0000 0.41760  0.96580  0.88180  Biso   1.000  N
  N78      1.0000 0.42300  0.98110  0.92950  Biso   1.000  N
  N79      1.0000 0.38130  0.98090  0.93000  Biso   1.000  N
  N80      1.0000 0.34630  0.96640  0.88310  Biso   1.000  N
  N81      1.0000 0.96580  0.38180  0.91760  Biso   1.000  N
  N82      1.0000 0.98110  0.42950  0.92300  Biso   1.000  N
  N83      1.0000 0.98090  0.43000  0.88130  Biso   1.000  N
  N84      1.0000 0.96640  0.38310  0.84630  Biso   1.000  N
  N85      1.0000 0.53420  0.45180  0.41600  Biso   1.000  N
  N86      1.0000 0.51890  0.44190  0.44840  Biso   1.000  N
  N87      1.0000 0.51910  0.40040  0.44910  Biso   1.000  N
  N88      1.0000 0.53360  0.37990  0.41670  Biso   1.000  N
  N89      1.0000 0.53580  0.11820  0.08400  Biso   1.000  N
  N90      1.0000 0.49350  0.07050  0.05160  Biso   1.000  N
  N91      1.0000 0.45130  0.07000  0.05090  Biso   1.000  N
  N92      1.0000 0.46320  0.11690  0.08330  Biso   1.000  N
  N93      1.0000 0.96420  0.04820  0.58240  Biso   1.000  N
  N94      1.0000 0.00650  0.05810  0.57700  Biso   1.000  N
  N95      1.0000 0.04870  0.09960  0.61870  Biso   1.000  N
  N96      1.0000 0.03680  0.12010  0.65370  Biso   1.000  N
  N97      1.0000 0.41600  0.95180  0.53420  Biso   1.000  N
  N98      1.0000 0.44840  0.94190  0.51890  Biso   1.000  N
  N99      1.0000 0.44910  0.90040  0.51910  Biso   1.000  N
  N100     1.0000 0.41670  0.87990  0.53360  Biso   1.000  N
  N101     1.0000 0.91760  0.88180  0.96580  Biso   1.000  N
  N102     1.0000 0.92300  0.92950  0.98110  Biso   1.000  N
  N103     1.0000 0.88130  0.93000  0.98090  Biso   1.000  N
  N104     1.0000 0.84630  0.88310  0.96640  Biso   1.000  N
  N105     1.0000 0.58240  0.54820  0.96420  Biso   1.000  N
  N106     1.0000 0.57700  0.55810  0.00650  Biso   1.000  N
  N107     1.0000 0.61870  0.59960  0.04870  Biso   1.000  N
  N108     1.0000 0.65370  0.62010  0.03680  Biso   1.000  N
  N109     1.0000 0.08400  0.61820  0.53580  Biso   1.000  N
  N110     1.0000 0.05160  0.57050  0.49350  Biso   1.000  N
  N111     1.0000 0.05090  0.57000  0.45130  Biso   1.000  N
  N112     1.0000 0.08330  0.61690  0.46320  Biso   1.000  N
  N113     1.0000 0.46420  0.58240  0.04820  Biso   1.000  N
  N114     1.0000 0.50650  0.57700  0.05810  Biso   1.000  N
  N115     1.0000 0.54870  0.61870  0.09960  Biso   1.000  N
  N116     1.0000 0.53680  0.65370  0.12010  Biso   1.000  N
  N117     1.0000 0.03580  0.08400  0.11820  Biso   1.000  N
  N118     1.0000 0.99350  0.05160  0.07050  Biso   1.000  N
  N119     1.0000 0.95130  0.05090  0.07000  Biso   1.000  N
  N120     1.0000 0.96320  0.08330  0.11690  Biso   1.000  N
  N121     1.0000 0.03420  0.41600  0.45180  Biso   1.000  N
  N122     1.0000 0.01890  0.44840  0.44190  Biso   1.000  N
  N123     1.0000 0.01910  0.44910  0.40040  Biso   1.000  N
  N124     1.0000 0.03360  0.41670  0.37990  Biso   1.000  N
  N125     1.0000 0.46580  0.91760  0.38180  Biso   1.000  N
  N126     1.0000 0.48110  0.92300  0.42950  Biso   1.000  N
  N127     1.0000 0.48090  0.88130  0.43000  Biso   1.000  N
  N128     1.0000 0.46640  0.84630  0.38310  Biso   1.000  N
  N129     1.0000 0.88180  0.46580  0.41760  Biso   1.000  N
  N130     1.0000 0.92950  0.48110  0.42300  Biso   1.000  N
  N131     1.0000 0.93000  0.48090  0.38130  Biso   1.000  N
  N132     1.0000 0.88310  0.46640  0.34630  Biso   1.000  N
  N133     1.0000 0.95180  0.03420  0.91600  Biso   1.000  N
  N134     1.0000 0.94190  0.01890  0.94840  Biso   1.000  N
  N135     1.0000 0.90040  0.01910  0.94910  Biso   1.000  N
  N136     1.0000 0.87990  0.03360  0.91670  Biso   1.000  N
  N137     1.0000 0.61820  0.03580  0.58400  Biso   1.000  N
  N138     1.0000 0.57050  0.99350  0.55160  Biso   1.000  N
  N139     1.0000 0.57000  0.95130  0.55090  Biso   1.000  N
  N140     1.0000 0.61690  0.96320  0.58330  Biso   1.000  N
  N141     1.0000 0.54820  0.46420  0.08240  Biso   1.000  N
  N142     1.0000 0.55810  0.50650  0.07700  Biso   1.000  N
  N143     1.0000 0.59960  0.54870  0.11870  Biso   1.000  N
  N144     1.0000 0.62010  0.53680  0.15370  Biso   1.000  N
  N145     1.0000 0.54820  0.08400  0.96580  Biso   1.000  N
  N146     1.0000 0.55810  0.05160  0.98110  Biso   1.000  N
  N147     1.0000 0.59960  0.05090  0.98090  Biso   1.000  N
  N148     1.0000 0.62010  0.08330  0.96640  Biso   1.000  N
  N149     1.0000 0.61820  0.58240  0.53420  Biso   1.000  N
  N150     1.0000 0.57050  0.57700  0.51890  Biso   1.000  N
  N151     1.0000 0.57000  0.61870  0.51910  Biso   1.000  N
  N152     1.0000 0.61690  0.65370  0.53360  Biso   1.000  N
  N153     1.0000 0.95180  0.91760  0.53580  Biso   1.000  N
  N154     1.0000 0.94190  0.92300  0.49350  Biso   1.000  N
  N155     1.0000 0.90040  0.88130  0.45130  Biso   1.000  N
  N156     1.0000 0.87990  0.84630  0.46320  Biso   1.000  N
  N157     1.0000 0.88180  0.41600  0.96420  Biso   1.000  N
  N158     1.0000 0.92950  0.44840  0.00650  Biso   1.000  N
  N159     1.0000 0.93000  0.44910  0.04870  Biso   1.000  N
  N160     1.0000 0.88310  0.41670  0.03680  Biso   1.000  N
  N161     1.0000 0.91760  0.03580  0.45180  Biso   1.000  N
  N162     1.0000 0.92300  0.99350  0.44190  Biso   1.000  N
  N163     1.0000 0.88130  0.95130  0.40040  Biso   1.000  N
  N164     1.0000 0.84630  0.96320  0.37990  Biso   1.000  N
  N165     1.0000 0.41600  0.46420  0.38180  Biso   1.000  N
  N166     1.0000 0.44840  0.50650  0.42950  Biso   1.000  N
  N167     1.0000 0.44910  0.54870  0.43000  Biso   1.000  N
  N168     1.0000 0.41670  0.53680  0.38310  Biso   1.000  N
  N169     1.0000 0.08400  0.46580  0.04820  Biso   1.000  N
  N170     1.0000 0.05160  0.48110  0.05810  Biso   1.000  N
  N171     1.0000 0.05090  0.48090  0.09960  Biso   1.000  N
  N172     1.0000 0.08330  0.46640  0.12010  Biso   1.000  N
  N173     1.0000 0.58240  0.03420  0.11820  Biso   1.000  N
  N174     1.0000 0.57700  0.01890  0.07050  Biso   1.000  N
  N175     1.0000 0.61870  0.01910  0.07000  Biso   1.000  N
  N176     1.0000 0.65370  0.03360  0.11690  Biso   1.000  N
  N177     1.0000 0.03420  0.61820  0.08240  Biso   1.000  N
  N178     1.0000 0.01890  0.57050  0.07700  Biso   1.000  N
  N179     1.0000 0.01910  0.57000  0.11870  Biso   1.000  N
  N180     1.0000 0.03360  0.61690  0.15370  Biso   1.000  N
  N181     1.0000 0.46580  0.54820  0.58400  Biso   1.000  N
  N182     1.0000 0.48110  0.55810  0.55160  Biso   1.000  N
  N183     1.0000 0.48090  0.59960  0.55090  Biso   1.000  N
  N184     1.0000 0.46640  0.62010  0.58330  Biso   1.000  N
  N185     1.0000 0.46420  0.88180  0.91600  Biso   1.000  N
  N186     1.0000 0.50650  0.92950  0.94840  Biso   1.000  N
  N187     1.0000 0.54870  0.93000  0.94910  Biso   1.000  N
  N188     1.0000 0.53680  0.88310  0.91670  Biso   1.000  N
  N189     1.0000 0.03580  0.95180  0.41760  Biso   1.000  N
  N190     1.0000 0.99350  0.94190  0.42300  Biso   1.000  N
  N191     1.0000 0.95130  0.90040  0.38130  Biso   1.000  N
  N192     1.0000 0.96320  0.87990  0.34630  Biso   1.000  N
  O1       1.0000 0.56860  0.21110  0.55030  Biso   1.000  O
  O2       1.0000 0.16080  0.01830  0.94970  Biso   1.000  O
  O3       1.0000 0.33920  0.28890  0.85750  Biso   1.000  O
  O4       1.0000 0.93140  0.48170  0.64250  Biso   1.000  O
  O5       1.0000 0.35750  0.33920  0.78890  Biso   1.000  O
  O6       1.0000 0.14250  0.93140  0.98170  Biso   1.000  O
  O7       1.0000 0.05030  0.56860  0.71110  Biso   1.000  O
  O8       1.0000 0.44970  0.16080  0.51830  Biso   1.000  O
  O9       1.0000 0.01830  0.44970  0.66080  Biso   1.000  O
  O10      1.0000 0.21110  0.05030  0.06860  Biso   1.000  O
  O11      1.0000 0.48170  0.14250  0.43140  Biso   1.000  O
  O12      1.0000 0.28890  0.35750  0.83920  Biso   1.000  O
  O13      1.0000 0.28890  0.93140  0.94970  Biso   1.000  O
  O14      1.0000 0.48170  0.33920  0.55030  Biso   1.000  O
  O15      1.0000 0.21110  0.16080  0.64250  Biso   1.000  O
  O16      1.0000 0.01830  0.56860  0.85750  Biso   1.000  O
  O17      1.0000 0.16080  0.14250  0.71110  Biso   1.000  O
  O18      1.0000 0.56860  0.35750  0.51830  Biso   1.000  O
  O19      1.0000 0.93140  0.44970  0.78890  Biso   1.000  O
  O20      1.0000 0.33920  0.05030  0.98170  Biso   1.000  O
  O21      1.0000 0.05030  0.48170  0.83920  Biso   1.000  O
  O22      1.0000 0.44970  0.28890  0.43140  Biso   1.000  O
  O23      1.0000 0.35750  0.01830  0.06860  Biso   1.000  O
  O24      1.0000 0.14250  0.21110  0.66080  Biso   1.000  O
  O25      1.0000 0.43140  0.78890  0.44970  Biso   1.000  O
  O26      1.0000 0.83920  0.98170  0.05030  Biso   1.000  O
  O27      1.0000 0.66080  0.71110  0.14250  Biso   1.000  O
  O28      1.0000 0.06860  0.51830  0.35750  Biso   1.000  O
  O29      1.0000 0.64250  0.66080  0.21110  Biso   1.000  O
  O30      1.0000 0.85750  0.06860  0.01830  Biso   1.000  O
  O31      1.0000 0.94970  0.43140  0.28890  Biso   1.000  O
  O32      1.0000 0.55030  0.83920  0.48170  Biso   1.000  O
  O33      1.0000 0.98170  0.55030  0.33920  Biso   1.000  O
  O34      1.0000 0.78890  0.94970  0.93140  Biso   1.000  O
  O35      1.0000 0.51830  0.85750  0.56860  Biso   1.000  O
  O36      1.0000 0.71110  0.64250  0.16080  Biso   1.000  O
  O37      1.0000 0.71110  0.06860  0.05030  Biso   1.000  O
  O38      1.0000 0.51830  0.66080  0.44970  Biso   1.000  O
  O39      1.0000 0.78890  0.83920  0.35750  Biso   1.000  O
  O40      1.0000 0.98170  0.43140  0.14250  Biso   1.000  O
  O41      1.0000 0.83920  0.85750  0.28890  Biso   1.000  O
  O42      1.0000 0.43140  0.64250  0.48170  Biso   1.000  O
  O43      1.0000 0.06860  0.55030  0.21110  Biso   1.000  O
  O44      1.0000 0.66080  0.94970  0.01830  Biso   1.000  O
  O45      1.0000 0.94970  0.51830  0.16080  Biso   1.000  O
  O46      1.0000 0.55030  0.71110  0.56860  Biso   1.000  O
  O47      1.0000 0.64250  0.98170  0.93140  Biso   1.000  O
  O48      1.0000 0.85750  0.78890  0.33920  Biso   1.000  O
