data_image0
_cell_length_a       17.588
_cell_length_b       29.836
_cell_length_c       29.836
_cell_angle_alpha    85.0161
_cell_angle_beta     72.8577
_cell_angle_gamma    72.8577

_symmetry_space_group_name_H-M    P 1
_symmetry_int_tables_number       1

loop_
  _symmetry_equiv_pos_as_xyz
  'x, y, z'

loop_
  _atom_site_label
  _atom_site_occupancy
  _atom_site_fract_x
  _atom_site_fract_y
  _atom_site_fract_z
  _atom_site_thermal_displace_type
  _atom_site_B_iso_or_equiv
  _atom_site_type_symbol
  Mn1      1.0000 0.91556  0.08564  0.64350  Biso   1.000  Mn
  Mn2      1.0000 0.75743  0.12161  0.52951  Biso   1.000  Mn
  Mn3      1.0000 0.20461  0.00254  0.57730  Biso   1.000  Mn
  Mn4      1.0000 0.14470  0.41436  0.85651  Biso   1.000  Mn
  Mn5      1.0000 0.90855  0.37839  0.97049  Biso   1.000  Mn
  Mn6      1.0000 0.28445  0.49746  0.92270  Biso   1.000  Mn
  Mn7      1.0000 0.55905  0.35651  0.58564  Biso   1.000  Mn
  Mn8      1.0000 0.28694  0.47049  0.62161  Biso   1.000  Mn
  Mn9      1.0000 0.78191  0.42270  0.50254  Biso   1.000  Mn
  Mn10     1.0000 0.00120  0.14349  0.91437  Biso   1.000  Mn
  Mn11     1.0000 0.87904  0.02951  0.87839  Biso   1.000  Mn
  Mn12     1.0000 0.20715  0.07730  0.99746  Biso   1.000  Mn
  Mn13     1.0000 0.08444  0.91436  0.35650  Biso   1.000  Mn
  Mn14     1.0000 0.24257  0.87839  0.47049  Biso   1.000  Mn
  Mn15     1.0000 0.79539  0.99746  0.42270  Biso   1.000  Mn
  Mn16     1.0000 0.85530  0.58564  0.14349  Biso   1.000  Mn
  Mn17     1.0000 0.09145  0.62161  0.02951  Biso   1.000  Mn
  Mn18     1.0000 0.71555  0.50254  0.07730  Biso   1.000  Mn
  Mn19     1.0000 0.44094  0.64349  0.41437  Biso   1.000  Mn
  Mn20     1.0000 0.71305  0.52952  0.37839  Biso   1.000  Mn
  Mn21     1.0000 0.21809  0.57730  0.49746  Biso   1.000  Mn
  Mn22     1.0000 0.99879  0.85651  0.08564  Biso   1.000  Mn
  Mn23     1.0000 0.12097  0.97048  0.12161  Biso   1.000  Mn
  Mn24     1.0000 0.79285  0.92270  0.00254  Biso   1.000  Mn
  H1       1.0000 0.89880  0.21860  0.69900  Biso   1.000  H
  H2       1.0000 0.82120  0.29290  0.69010  Biso   1.000  H
  H3       1.0000 0.73960  0.30880  0.63680  Biso   1.000  H
  H4       1.0000 0.73850  0.24760  0.59660  Biso   1.000  H
  H5       1.0000 0.84990  0.01040  0.53240  Biso   1.000  H
  H6       1.0000 0.91980  0.97540  0.55340  Biso   1.000  H
  H7       1.0000 0.84630  0.08680  0.75440  Biso   1.000  H
  H8       1.0000 0.73680  0.07650  0.81530  Biso   1.000  H
  H9       1.0000 0.62220  0.06630  0.71950  Biso   1.000  H
  H10      1.0000 0.73310  0.07790  0.66190  Biso   1.000  H
  H11      1.0000 0.61280  0.05360  0.84220  Biso   1.000  H
  H12      1.0000 0.58080  0.03280  0.80600  Biso   1.000  H
  H13      1.0000 0.54870  0.11160  0.64920  Biso   1.000  H
  H14      1.0000 0.44800  0.07400  0.65620  Biso   1.000  H
  H15      1.0000 0.45400  0.02650  0.59790  Biso   1.000  H
  H16      1.0000 0.56650  0.01580  0.52900  Biso   1.000  H
  H17      1.0000 0.97460  0.04670  0.40570  Biso   1.000  H
  H18      1.0000 0.91360  0.07300  0.37500  Biso   1.000  H
  H19      1.0000 0.99490  0.11960  0.41740  Biso   1.000  H
  H20      1.0000 0.02430  0.10620  0.36300  Biso   1.000  H
  H21      1.0000 0.93740  0.14430  0.38430  Biso   1.000  H
  H22      1.0000 0.77600  0.17960  0.43920  Biso   1.000  H
  H23      1.0000 0.75280  0.28310  0.40150  Biso   1.000  H
  H24      1.0000 0.78840  0.23050  0.38210  Biso   1.000  H
  H25      1.0000 0.70660  0.26450  0.37130  Biso   1.000  H
  H26      1.0000 0.28900  0.92200  0.69140  Biso   1.000  H
  H27      1.0000 0.22700  0.92040  0.77080  Biso   1.000  H
  H28      1.0000 0.08850  0.96490  0.80150  Biso   1.000  H
  H29      1.0000 0.01680  0.01140  0.75140  Biso   1.000  H
  H30      1.0000 0.02370  0.09020  0.50180  Biso   1.000  H
  H31      1.0000 0.99660  0.12880  0.54160  Biso   1.000  H
  H32      1.0000 0.11700  0.15060  0.50780  Biso   1.000  H
  H33      1.0000 0.06520  0.15500  0.47080  Biso   1.000  H
  H34      1.0000 0.14560  0.11140  0.46820  Biso   1.000  H
  H35      1.0000 0.28660  0.14940  0.93100  Biso   1.000  H
  H36      1.0000 0.39220  0.15940  0.87020  Biso   1.000  H
  H37      1.0000 0.47800  0.01870  0.86350  Biso   1.000  H
  H38      1.0000 0.37060  0.01670  0.93170  Biso   1.000  H
  H39      1.0000 0.50440  0.10520  0.79300  Biso   1.000  H
  H40      1.0000 0.53850  0.12720  0.82740  Biso   1.000  H
  H41      1.0000 0.31640  0.28140  0.80100  Biso   1.000  H
  H42      1.0000 0.30420  0.20710  0.80990  Biso   1.000  H
  H43      1.0000 0.18520  0.19120  0.86320  Biso   1.000  H
  H44      1.0000 0.08270  0.25240  0.90340  Biso   1.000  H
  H45      1.0000 0.89270  0.48960  0.96760  Biso   1.000  H
  H46      1.0000 0.94860  0.52460  0.94660  Biso   1.000  H
  H47      1.0000 0.18750  0.41320  0.74560  Biso   1.000  H
  H48      1.0000 0.12860  0.42350  0.68470  Biso   1.000  H
  H49      1.0000 0.90800  0.43370  0.78050  Biso   1.000  H
  H50      1.0000 0.97290  0.42210  0.83810  Biso   1.000  H
  H51      1.0000 0.00860  0.44640  0.65780  Biso   1.000  H
  H52      1.0000 0.91960  0.46720  0.69400  Biso   1.000  H
  H53      1.0000 0.80950  0.38840  0.85080  Biso   1.000  H
  H54      1.0000 0.67820  0.42600  0.84380  Biso   1.000  H
  H55      1.0000 0.57840  0.47350  0.90210  Biso   1.000  H
  H56      1.0000 0.61130  0.48420  0.97100  Biso   1.000  H
  H57      1.0000 0.92700  0.45330  0.09430  Biso   1.000  H
  H58      1.0000 0.86160  0.42700  0.12500  Biso   1.000  H
  H59      1.0000 0.03190  0.38040  0.08260  Biso   1.000  H
  H60      1.0000 0.99350  0.39380  0.13700  Biso   1.000  H
  H61      1.0000 0.96600  0.35570  0.11570  Biso   1.000  H
  H62      1.0000 0.89480  0.32040  0.06080  Biso   1.000  H
  H63      1.0000 0.93740  0.21690  0.09850  Biso   1.000  H
  H64      1.0000 0.90100  0.26950  0.11790  Biso   1.000  H
  H65      1.0000 0.84240  0.23550  0.12870  Biso   1.000  H
  H66      1.0000 0.40240  0.57800  0.80860  Biso   1.000  H
  H67      1.0000 0.41820  0.57960  0.72920  Biso   1.000  H
  H68      1.0000 0.35490  0.53510  0.69850  Biso   1.000  H
  H69      1.0000 0.27960  0.48860  0.74860  Biso   1.000  H
  H70      1.0000 0.11570  0.40980  0.99820  Biso   1.000  H
  H71      1.0000 0.16700  0.37120  0.95840  Biso   1.000  H
  H72      1.0000 0.27540  0.34940  0.99220  Biso   1.000  H
  H73      1.0000 0.19100  0.34500  0.02920  Biso   1.000  H
  H74      1.0000 0.22520  0.38860  0.03180  Biso   1.000  H
  H75      1.0000 0.86700  0.35060  0.56900  Biso   1.000  H
  H76      1.0000 0.92180  0.34060  0.62980  Biso   1.000  H
  H77      1.0000 0.86020  0.48130  0.63650  Biso   1.000  H
  H78      1.0000 0.81900  0.48330  0.56830  Biso   1.000  H
  H79      1.0000 0.90260  0.39480  0.70700  Biso   1.000  H
  H80      1.0000 0.99310  0.37280  0.67260  Biso   1.000  H
  H81      1.0000 0.59780  0.30100  0.71860  Biso   1.000  H
  H82      1.0000 0.51130  0.30990  0.79290  Biso   1.000  H
  H83      1.0000 0.37640  0.36320  0.80880  Biso   1.000  H
  H84      1.0000 0.33510  0.40340  0.74760  Biso   1.000  H
  H85      1.0000 0.38230  0.46760  0.51040  Biso   1.000  H
  H86      1.0000 0.47320  0.44660  0.47540  Biso   1.000  H
  H87      1.0000 0.60070  0.24560  0.58680  Biso   1.000  H
  H88      1.0000 0.55210  0.18470  0.57650  Biso   1.000  H
  H89      1.0000 0.34170  0.28050  0.56630  Biso   1.000  H
  H90      1.0000 0.39500  0.33810  0.57790  Biso   1.000  H
  H91      1.0000 0.45500  0.15780  0.55360  Biso   1.000  H
  H92      1.0000 0.38680  0.19400  0.53280  Biso   1.000  H
  H93      1.0000 0.19790  0.35080  0.61160  Biso   1.000  H
  H94      1.0000 0.10420  0.34380  0.57400  Biso   1.000  H
  H95      1.0000 0.05190  0.40210  0.52650  Biso   1.000  H
  H96      1.0000 0.09550  0.47100  0.51580  Biso   1.000  H
  H97      1.0000 0.38030  0.59430  0.54670  Biso   1.000  H
  H98      1.0000 0.28860  0.62500  0.57300  Biso   1.000  H
  H99      1.0000 0.41230  0.58260  0.61960  Biso   1.000  H
  H100     1.0000 0.38730  0.63700  0.60620  Biso   1.000  H
  H101     1.0000 0.32170  0.61570  0.64430  Biso   1.000  H
  H102     1.0000 0.21520  0.56080  0.67960  Biso   1.000  H
  H103     1.0000 0.15430  0.59850  0.78310  Biso   1.000  H
  H104     1.0000 0.17050  0.61790  0.73050  Biso   1.000  H
  H105     1.0000 0.07790  0.62870  0.76450  Biso   1.000  H
  H106     1.0000 0.98040  0.30860  0.42200  Biso   1.000  H
  H107     1.0000 0.99780  0.22920  0.42040  Biso   1.000  H
  H108     1.0000 0.89000  0.19850  0.46490  Biso   1.000  H
  H109     1.0000 0.76820  0.24860  0.51140  Biso   1.000  H
  H110     1.0000 0.52550  0.49820  0.59020  Biso   1.000  H
  H111     1.0000 0.53820  0.45840  0.62880  Biso   1.000  H
  H112     1.0000 0.62480  0.49220  0.65060  Biso   1.000  H
  H113     1.0000 0.53600  0.52920  0.65500  Biso   1.000  H
  H114     1.0000 0.61380  0.53180  0.61140  Biso   1.000  H
  H115     1.0000 0.21760  0.06900  0.64940  Biso   1.000  H
  H116     1.0000 0.26240  0.12980  0.65940  Biso   1.000  H
  H117     1.0000 0.34150  0.13650  0.51870  Biso   1.000  H
  H118     1.0000 0.30230  0.06830  0.51670  Biso   1.000  H
  H119     1.0000 0.29740  0.20700  0.60520  Biso   1.000  H
  H120     1.0000 0.36590  0.17260  0.62720  Biso   1.000  H
  H121     1.0000 0.11740  0.19900  0.78140  Biso   1.000  H
  H122     1.0000 0.11410  0.19010  0.70710  Biso   1.000  H
  H123     1.0000 0.04840  0.13680  0.69120  Biso   1.000  H
  H124     1.0000 0.98610  0.09660  0.75240  Biso   1.000  H
  H125     1.0000 0.86030  0.03240  0.98960  Biso   1.000  H
  H126     1.0000 0.89520  0.05340  0.02460  Biso   1.000  H
  H127     1.0000 0.93310  0.25440  0.91320  Biso   1.000  H
  H128     1.0000 0.81330  0.31530  0.92350  Biso   1.000  H
  H129     1.0000 0.68850  0.21950  0.93370  Biso   1.000  H
  H130     1.0000 0.81100  0.16190  0.92210  Biso   1.000  H
  H131     1.0000 0.66640  0.34220  0.94640  Biso   1.000  H
  H132     1.0000 0.61360  0.30600  0.96720  Biso   1.000  H
  H133     1.0000 0.66030  0.14920  0.88840  Biso   1.000  H
  H134     1.0000 0.52200  0.15620  0.92600  Biso   1.000  H
  H135     1.0000 0.48050  0.09790  0.97350  Biso   1.000  H
  H136     1.0000 0.58230  0.02900  0.98420  Biso   1.000  H
  H137     1.0000 0.02130  0.90570  0.95330  Biso   1.000  H
  H138     1.0000 0.98660  0.87500  0.92700  Biso   1.000  H
  H139     1.0000 0.11450  0.91740  0.88040  Biso   1.000  H
  H140     1.0000 0.13050  0.86300  0.89380  Biso   1.000  H
  H141     1.0000 0.08170  0.88430  0.85570  Biso   1.000  H
  H142     1.0000 0.95560  0.93920  0.82040  Biso   1.000  H
  H143     1.0000 0.03590  0.90150  0.71690  Biso   1.000  H
  H144     1.0000 0.01890  0.88210  0.76950  Biso   1.000  H
  H145     1.0000 0.97110  0.87130  0.73550  Biso   1.000  H
  H146     1.0000 0.21100  0.19140  0.07800  Biso   1.000  H
  H147     1.0000 0.14740  0.27080  0.07960  Biso   1.000  H
  H148     1.0000 0.05340  0.30150  0.03510  Biso   1.000  H
  H149     1.0000 0.02820  0.25140  0.98860  Biso   1.000  H
  H150     1.0000 0.11390  0.00180  0.90980  Biso   1.000  H
  H151     1.0000 0.12540  0.04160  0.87120  Biso   1.000  H
  H152     1.0000 0.26760  0.00780  0.84940  Biso   1.000  H
  H153     1.0000 0.22020  0.97080  0.84500  Biso   1.000  H
  H154     1.0000 0.25700  0.96820  0.88860  Biso   1.000  H
  H155     1.0000 0.43600  0.43100  0.85060  Biso   1.000  H
  H156     1.0000 0.55160  0.37020  0.84060  Biso   1.000  H
  H157     1.0000 0.49670  0.36350  0.98130  Biso   1.000  H
  H158     1.0000 0.38730  0.43170  0.98330  Biso   1.000  H
  H159     1.0000 0.60960  0.29300  0.89480  Biso   1.000  H
  H160     1.0000 0.66570  0.32740  0.87280  Biso   1.000  H
  H161     1.0000 0.10120  0.78140  0.30100  Biso   1.000  H
  H162     1.0000 0.17880  0.70710  0.30990  Biso   1.000  H
  H163     1.0000 0.26040  0.69120  0.36320  Biso   1.000  H
  H164     1.0000 0.26150  0.75240  0.40340  Biso   1.000  H
  H165     1.0000 0.15010  0.98960  0.46760  Biso   1.000  H
  H166     1.0000 0.08020  0.02460  0.44660  Biso   1.000  H
  H167     1.0000 0.15370  0.91320  0.24560  Biso   1.000  H
  H168     1.0000 0.26320  0.92350  0.18470  Biso   1.000  H
  H169     1.0000 0.37780  0.93370  0.28050  Biso   1.000  H
  H170     1.0000 0.26690  0.92210  0.33810  Biso   1.000  H
  H171     1.0000 0.38720  0.94640  0.15780  Biso   1.000  H
  H172     1.0000 0.41920  0.96720  0.19400  Biso   1.000  H
  H173     1.0000 0.45130  0.88840  0.35080  Biso   1.000  H
  H174     1.0000 0.55200  0.92600  0.34380  Biso   1.000  H
  H175     1.0000 0.54600  0.97350  0.40210  Biso   1.000  H
  H176     1.0000 0.43350  0.98420  0.47100  Biso   1.000  H
  H177     1.0000 0.02540  0.95330  0.59430  Biso   1.000  H
  H178     1.0000 0.08640  0.92700  0.62500  Biso   1.000  H
  H179     1.0000 0.00510  0.88040  0.58260  Biso   1.000  H
  H180     1.0000 0.97570  0.89380  0.63700  Biso   1.000  H
  H181     1.0000 0.06260  0.85570  0.61570  Biso   1.000  H
  H182     1.0000 0.22400  0.82040  0.56080  Biso   1.000  H
  H183     1.0000 0.24720  0.71690  0.59850  Biso   1.000  H
  H184     1.0000 0.21160  0.76950  0.61790  Biso   1.000  H
  H185     1.0000 0.29340  0.73550  0.62870  Biso   1.000  H
  H186     1.0000 0.71100  0.07800  0.30860  Biso   1.000  H
  H187     1.0000 0.77300  0.07960  0.22920  Biso   1.000  H
  H188     1.0000 0.91150  0.03510  0.19850  Biso   1.000  H
  H189     1.0000 0.98320  0.98860  0.24860  Biso   1.000  H
  H190     1.0000 0.97630  0.90980  0.49820  Biso   1.000  H
  H191     1.0000 0.00340  0.87120  0.45840  Biso   1.000  H
  H192     1.0000 0.88300  0.84940  0.49220  Biso   1.000  H
  H193     1.0000 0.93480  0.84500  0.52920  Biso   1.000  H
  H194     1.0000 0.85440  0.88860  0.53180  Biso   1.000  H
  H195     1.0000 0.71340  0.85060  0.06900  Biso   1.000  H
  H196     1.0000 0.60780  0.84060  0.12980  Biso   1.000  H
  H197     1.0000 0.52200  0.98130  0.13650  Biso   1.000  H
  H198     1.0000 0.62940  0.98330  0.06830  Biso   1.000  H
  H199     1.0000 0.49560  0.89480  0.20700  Biso   1.000  H
  H200     1.0000 0.46150  0.87280  0.17260  Biso   1.000  H
  H201     1.0000 0.68360  0.71860  0.19900  Biso   1.000  H
  H202     1.0000 0.69580  0.79290  0.19010  Biso   1.000  H
  H203     1.0000 0.81480  0.80880  0.13680  Biso   1.000  H
  H204     1.0000 0.91730  0.74760  0.09660  Biso   1.000  H
  H205     1.0000 0.10730  0.51040  0.03240  Biso   1.000  H
  H206     1.0000 0.05140  0.47540  0.05340  Biso   1.000  H
  H207     1.0000 0.81250  0.58680  0.25440  Biso   1.000  H
  H208     1.0000 0.87140  0.57650  0.31530  Biso   1.000  H
  H209     1.0000 0.09200  0.56630  0.21950  Biso   1.000  H
  H210     1.0000 0.02710  0.57790  0.16190  Biso   1.000  H
  H211     1.0000 0.99140  0.55360  0.34220  Biso   1.000  H
  H212     1.0000 0.08040  0.53280  0.30600  Biso   1.000  H
  H213     1.0000 0.19050  0.61160  0.14920  Biso   1.000  H
  H214     1.0000 0.32180  0.57400  0.15620  Biso   1.000  H
  H215     1.0000 0.42160  0.52650  0.09790  Biso   1.000  H
  H216     1.0000 0.38870  0.51580  0.02900  Biso   1.000  H
  H217     1.0000 0.07300  0.54670  0.90570  Biso   1.000  H
  H218     1.0000 0.13840  0.57300  0.87500  Biso   1.000  H
  H219     1.0000 0.96810  0.61960  0.91740  Biso   1.000  H
  H220     1.0000 0.00650  0.60620  0.86300  Biso   1.000  H
  H221     1.0000 0.03400  0.64430  0.88430  Biso   1.000  H
  H222     1.0000 0.10520  0.67960  0.93920  Biso   1.000  H
  H223     1.0000 0.06260  0.78310  0.90150  Biso   1.000  H
  H224     1.0000 0.09900  0.73050  0.88210  Biso   1.000  H
  H225     1.0000 0.15760  0.76450  0.87130  Biso   1.000  H
  H226     1.0000 0.59760  0.42200  0.19140  Biso   1.000  H
  H227     1.0000 0.58180  0.42040  0.27080  Biso   1.000  H
  H228     1.0000 0.64510  0.46490  0.30150  Biso   1.000  H
  H229     1.0000 0.72040  0.51140  0.25140  Biso   1.000  H
  H230     1.0000 0.88430  0.59020  0.00180  Biso   1.000  H
  H231     1.0000 0.83300  0.62880  0.04160  Biso   1.000  H
  H232     1.0000 0.72460  0.65060  0.00780  Biso   1.000  H
  H233     1.0000 0.80900  0.65500  0.97080  Biso   1.000  H
  H234     1.0000 0.77480  0.61140  0.96820  Biso   1.000  H
  H235     1.0000 0.13300  0.64940  0.43100  Biso   1.000  H
  H236     1.0000 0.07820  0.65940  0.37020  Biso   1.000  H
  H237     1.0000 0.13980  0.51870  0.36350  Biso   1.000  H
  H238     1.0000 0.18100  0.51670  0.43170  Biso   1.000  H
  H239     1.0000 0.09740  0.60520  0.29300  Biso   1.000  H
  H240     1.0000 0.00690  0.62720  0.32740  Biso   1.000  H
  H241     1.0000 0.40220  0.69900  0.28140  Biso   1.000  H
  H242     1.0000 0.48870  0.69010  0.20710  Biso   1.000  H
  H243     1.0000 0.62360  0.63680  0.19120  Biso   1.000  H
  H244     1.0000 0.66490  0.59660  0.25240  Biso   1.000  H
  H245     1.0000 0.61770  0.53240  0.48960  Biso   1.000  H
  H246     1.0000 0.52680  0.55340  0.52460  Biso   1.000  H
  H247     1.0000 0.39930  0.75440  0.41320  Biso   1.000  H
  H248     1.0000 0.44790  0.81530  0.42350  Biso   1.000  H
  H249     1.0000 0.65830  0.71950  0.43370  Biso   1.000  H
  H250     1.0000 0.60500  0.66190  0.42210  Biso   1.000  H
  H251     1.0000 0.54500  0.84220  0.44640  Biso   1.000  H
  H252     1.0000 0.61320  0.80600  0.46720  Biso   1.000  H
  H253     1.0000 0.80210  0.64920  0.38840  Biso   1.000  H
  H254     1.0000 0.89580  0.65620  0.42600  Biso   1.000  H
  H255     1.0000 0.94810  0.59790  0.47350  Biso   1.000  H
  H256     1.0000 0.90450  0.52900  0.48420  Biso   1.000  H
  H257     1.0000 0.61970  0.40570  0.45330  Biso   1.000  H
  H258     1.0000 0.71140  0.37500  0.42700  Biso   1.000  H
  H259     1.0000 0.58770  0.41740  0.38040  Biso   1.000  H
  H260     1.0000 0.61270  0.36300  0.39380  Biso   1.000  H
  H261     1.0000 0.67830  0.38430  0.35570  Biso   1.000  H
  H262     1.0000 0.78480  0.43920  0.32040  Biso   1.000  H
  H263     1.0000 0.84570  0.40150  0.21690  Biso   1.000  H
  H264     1.0000 0.82950  0.38210  0.26950  Biso   1.000  H
  H265     1.0000 0.92210  0.37130  0.23550  Biso   1.000  H
  H266     1.0000 0.01960  0.69140  0.57800  Biso   1.000  H
  H267     1.0000 0.00220  0.77080  0.57960  Biso   1.000  H
  H268     1.0000 0.11000  0.80150  0.53510  Biso   1.000  H
  H269     1.0000 0.23180  0.75140  0.48860  Biso   1.000  H
  H270     1.0000 0.47450  0.50180  0.40980  Biso   1.000  H
  H271     1.0000 0.46180  0.54160  0.37120  Biso   1.000  H
  H272     1.0000 0.37520  0.50780  0.34940  Biso   1.000  H
  H273     1.0000 0.46400  0.47080  0.34500  Biso   1.000  H
  H274     1.0000 0.38620  0.46820  0.38860  Biso   1.000  H
  H275     1.0000 0.78240  0.93100  0.35060  Biso   1.000  H
  H276     1.0000 0.73760  0.87020  0.34060  Biso   1.000  H
  H277     1.0000 0.65850  0.86350  0.48130  Biso   1.000  H
  H278     1.0000 0.69770  0.93170  0.48330  Biso   1.000  H
  H279     1.0000 0.70260  0.79300  0.39480  Biso   1.000  H
  H280     1.0000 0.63410  0.82740  0.37280  Biso   1.000  H
  H281     1.0000 0.88260  0.80100  0.21860  Biso   1.000  H
  H282     1.0000 0.88590  0.80990  0.29290  Biso   1.000  H
  H283     1.0000 0.95160  0.86320  0.30880  Biso   1.000  H
  H284     1.0000 0.01390  0.90340  0.24760  Biso   1.000  H
  H285     1.0000 0.13970  0.96760  0.01040  Biso   1.000  H
  H286     1.0000 0.10480  0.94660  0.97540  Biso   1.000  H
  H287     1.0000 0.06690  0.74560  0.08680  Biso   1.000  H
  H288     1.0000 0.18670  0.68470  0.07650  Biso   1.000  H
  H289     1.0000 0.31150  0.78050  0.06630  Biso   1.000  H
  H290     1.0000 0.18900  0.83810  0.07790  Biso   1.000  H
  H291     1.0000 0.33360  0.65780  0.05360  Biso   1.000  H
  H292     1.0000 0.38640  0.69400  0.03280  Biso   1.000  H
  H293     1.0000 0.33970  0.85080  0.11160  Biso   1.000  H
  H294     1.0000 0.47800  0.84380  0.07400  Biso   1.000  H
  H295     1.0000 0.51950  0.90210  0.02650  Biso   1.000  H
  H296     1.0000 0.41770  0.97100  0.01580  Biso   1.000  H
  H297     1.0000 0.97870  0.09430  0.04670  Biso   1.000  H
  H298     1.0000 0.01340  0.12500  0.07300  Biso   1.000  H
  H299     1.0000 0.88550  0.08260  0.11960  Biso   1.000  H
  H300     1.0000 0.86950  0.13700  0.10620  Biso   1.000  H
  H301     1.0000 0.91830  0.11570  0.14430  Biso   1.000  H
  H302     1.0000 0.04440  0.06080  0.17960  Biso   1.000  H
  H303     1.0000 0.96410  0.09850  0.28310  Biso   1.000  H
  H304     1.0000 0.98110  0.11790  0.23050  Biso   1.000  H
  H305     1.0000 0.02890  0.12870  0.26450  Biso   1.000  H
  H306     1.0000 0.78900  0.80860  0.92200  Biso   1.000  H
  H307     1.0000 0.85260  0.72920  0.92040  Biso   1.000  H
  H308     1.0000 0.94660  0.69850  0.96490  Biso   1.000  H
  H309     1.0000 0.97180  0.74860  0.01140  Biso   1.000  H
  H310     1.0000 0.88610  0.99820  0.09020  Biso   1.000  H
  H311     1.0000 0.87460  0.95840  0.12880  Biso   1.000  H
  H312     1.0000 0.73240  0.99220  0.15060  Biso   1.000  H
  H313     1.0000 0.77980  0.02920  0.15500  Biso   1.000  H
  H314     1.0000 0.74300  0.03180  0.11140  Biso   1.000  H
  H315     1.0000 0.56400  0.56900  0.14940  Biso   1.000  H
  H316     1.0000 0.44840  0.62980  0.15940  Biso   1.000  H
  H317     1.0000 0.50330  0.63650  0.01870  Biso   1.000  H
  H318     1.0000 0.61270  0.56830  0.01670  Biso   1.000  H
  H319     1.0000 0.39040  0.70700  0.10520  Biso   1.000  H
  H320     1.0000 0.33430  0.67260  0.12720  Biso   1.000  H
  C1       1.0000 0.86670  0.18636  0.65344  Biso   1.000  C
  C2       1.0000 0.86601  0.22400  0.67778  Biso   1.000  C
  C3       1.0000 0.82028  0.26813  0.67251  Biso   1.000  C
  C4       1.0000 0.77150  0.27784  0.64116  Biso   1.000  C
  C5       1.0000 0.77184  0.24135  0.61757  Biso   1.000  C
  C6       1.0000 0.81747  0.19517  0.62169  Biso   1.000  C
  C7       1.0000 0.81403  0.15900  0.59394  Biso   1.000  C
  C8       1.0000 0.87217  0.03959  0.58487  Biso   1.000  C
  C9       1.0000 0.86600  0.99988  0.56152  Biso   1.000  C
  C10      1.0000 0.79959  0.08251  0.74731  Biso   1.000  C
  C11      1.0000 0.73519  0.07588  0.78374  Biso   1.000  C
  C12      1.0000 0.66624  0.06810  0.77382  Biso   1.000  C
  C13      1.0000 0.66804  0.07005  0.72787  Biso   1.000  C
  C14      1.0000 0.73423  0.07721  0.69353  Biso   1.000  C
  C15      1.0000 0.59500  0.06054  0.81326  Biso   1.000  C
  C16      1.0000 0.61397  0.09007  0.58119  Biso   1.000  C
  C17      1.0000 0.55076  0.09351  0.62397  Biso   1.000  C
  C18      1.0000 0.49250  0.07020  0.62820  Biso   1.000  C
  C19      1.0000 0.49560  0.04190  0.59410  Biso   1.000  C
  C20      1.0000 0.56261  0.03609  0.55289  Biso   1.000  C
  C21      1.0000 0.62216  0.05916  0.54632  Biso   1.000  C
  C22      1.0000 0.68881  0.05071  0.50267  Biso   1.000  C
  C23      1.0000 0.86163  0.08551  0.44543  Biso   1.000  C
  C24      1.0000 0.93355  0.07660  0.40190  Biso   1.000  C
  C25      1.0000 0.97630  0.11510  0.39070  Biso   1.000  C
  C26      1.0000 0.72230  0.19760  0.45620  Biso   1.000  C
  C27      1.0000 0.60694  0.26877  0.46195  Biso   1.000  C
  C28      1.0000 0.73780  0.25590  0.39470  Biso   1.000  C
  C29      1.0000 0.19382  0.96934  0.67222  Biso   1.000  C
  C30      1.0000 0.23368  0.94104  0.70360  Biso   1.000  C
  C31      1.0000 0.19703  0.93936  0.75078  Biso   1.000  C
  C32      1.0000 0.11542  0.96575  0.76881  Biso   1.000  C
  C33      1.0000 0.07279  0.99374  0.73868  Biso   1.000  C
  C34      1.0000 0.10925  0.99632  0.69158  Biso   1.000  C
  C35      1.0000 0.06219  0.02777  0.66305  Biso   1.000  C
  C36      1.0000 0.08280  0.06999  0.55201  Biso   1.000  C
  C37      1.0000 0.04507  0.10603  0.52123  Biso   1.000  C
  C38      1.0000 0.09770  0.13309  0.48931  Biso   1.000  C
  C39      1.0000 0.32990  0.12180  0.91900  Biso   1.000  C
  C40      1.0000 0.39240  0.12870  0.88190  Biso   1.000  C
  C41      1.0000 0.45220  0.09260  0.86300  Biso   1.000  C
  C42      1.0000 0.44180  0.04680  0.87920  Biso   1.000  C
  C43      1.0000 0.37620  0.04620  0.91880  Biso   1.000  C
  C44      1.0000 0.52350  0.09920  0.82160  Biso   1.000  C
  C45      1.0000 0.20650  0.31364  0.84656  Biso   1.000  C
  C46      1.0000 0.26779  0.27600  0.82222  Biso   1.000  C
  C47      1.0000 0.26092  0.23187  0.82749  Biso   1.000  C
  C48      1.0000 0.19050  0.22216  0.85884  Biso   1.000  C
  C49      1.0000 0.13076  0.25865  0.88243  Biso   1.000  C
  C50      1.0000 0.13433  0.30483  0.87831  Biso   1.000  C
  C51      1.0000 0.06697  0.34100  0.90606  Biso   1.000  C
  C52      1.0000 0.99663  0.46041  0.91513  Biso   1.000  C
  C53      1.0000 0.92740  0.50012  0.93848  Biso   1.000  C
  C54      1.0000 0.12941  0.41749  0.75269  Biso   1.000  C
  C55      1.0000 0.09481  0.42412  0.71626  Biso   1.000  C
  C56      1.0000 0.00816  0.43190  0.72618  Biso   1.000  C
  C57      1.0000 0.96596  0.42995  0.77213  Biso   1.000  C
  C58      1.0000 0.00497  0.42279  0.80647  Biso   1.000  C
  C59      1.0000 0.96880  0.43946  0.68674  Biso   1.000  C
  C60      1.0000 0.78523  0.40993  0.91881  Biso   1.000  C
  C61      1.0000 0.76824  0.40649  0.87603  Biso   1.000  C
  C62      1.0000 0.69090  0.42980  0.87180  Biso   1.000  C
  C63      1.0000 0.63160  0.45810  0.90590  Biso   1.000  C
  C64      1.0000 0.65159  0.46391  0.94711  Biso   1.000  C
  C65      1.0000 0.72764  0.44084  0.95368  Biso   1.000  C
  C66      1.0000 0.74219  0.44929  0.99733  Biso   1.000  C
  C67      1.0000 0.89257  0.41449  0.05457  Biso   1.000  C
  C68      1.0000 0.91205  0.42340  0.09810  Biso   1.000  C
  C69      1.0000 0.98210  0.38490  0.10930  Biso   1.000  C
  C70      1.0000 0.87610  0.30240  0.04380  Biso   1.000  C
  C71      1.0000 0.83766  0.23123  0.03805  Biso   1.000  C
  C72      1.0000 0.88840  0.24410  0.10530  Biso   1.000  C
  C73      1.0000 0.33538  0.53066  0.82778  Biso   1.000  C
  C74      1.0000 0.37832  0.55896  0.79640  Biso   1.000  C
  C75      1.0000 0.38717  0.56064  0.74922  Biso   1.000  C
  C76      1.0000 0.34998  0.53425  0.73119  Biso   1.000  C
  C77      1.0000 0.30521  0.50626  0.76132  Biso   1.000  C
  C78      1.0000 0.29715  0.50368  0.80842  Biso   1.000  C
  C79      1.0000 0.25301  0.47223  0.83695  Biso   1.000  C
  C80      1.0000 0.20480  0.43001  0.94799  Biso   1.000  C
  C81      1.0000 0.17233  0.39397  0.97877  Biso   1.000  C
  C82      1.0000 0.22010  0.36691  0.01069  Biso   1.000  C
  C83      1.0000 0.87070  0.37820  0.58100  Biso   1.000  C
  C84      1.0000 0.90300  0.37130  0.61810  Biso   1.000  C
  C85      1.0000 0.90780  0.40740  0.63700  Biso   1.000  C
  C86      1.0000 0.86780  0.45320  0.62080  Biso   1.000  C
  C87      1.0000 0.84120  0.45380  0.58120  Biso   1.000  C
  C88      1.0000 0.94430  0.40080  0.67840  Biso   1.000  C
  C89      1.0000 0.52014  0.34656  0.68636  Biso   1.000  C
  C90      1.0000 0.54379  0.32222  0.72400  Biso   1.000  C
  C91      1.0000 0.49279  0.32749  0.76813  Biso   1.000  C
  C92      1.0000 0.41266  0.35884  0.77784  Biso   1.000  C
  C93      1.0000 0.38941  0.38243  0.74135  Biso   1.000  C
  C94      1.0000 0.43916  0.37831  0.69517  Biso   1.000  C
  C95      1.0000 0.40797  0.40606  0.65900  Biso   1.000  C
  C96      1.0000 0.45704  0.41513  0.53959  Biso   1.000  C
  C97      1.0000 0.42752  0.43848  0.49988  Biso   1.000  C
  C98      1.0000 0.54690  0.25269  0.58251  Biso   1.000  C
  C99      1.0000 0.51893  0.21626  0.57588  Biso   1.000  C
  C100     1.0000 0.44006  0.22618  0.56810  Biso   1.000  C
  C101     1.0000 0.39591  0.27213  0.57005  Biso   1.000  C
  C102     1.0000 0.42776  0.30647  0.57721  Biso   1.000  C
  C103     1.0000 0.40826  0.18674  0.56054  Biso   1.000  C
  C104     1.0000 0.19516  0.41881  0.59007  Biso   1.000  C
  C105     1.0000 0.17473  0.37603  0.59351  Biso   1.000  C
  C106     1.0000 0.12070  0.37180  0.57020  Biso   1.000  C
  C107     1.0000 0.08970  0.40590  0.54190  Biso   1.000  C
  C108     1.0000 0.11550  0.44711  0.53609  Biso   1.000  C
  C109     1.0000 0.16848  0.45368  0.55916  Biso   1.000  C
  C110     1.0000 0.19148  0.49733  0.55071  Biso   1.000  C
  C111     1.0000 0.30706  0.55457  0.58551  Biso   1.000  C
  C112     1.0000 0.33545  0.59810  0.57660  Biso   1.000  C
  C113     1.0000 0.36700  0.60930  0.61510  Biso   1.000  C
  C114     1.0000 0.17850  0.54380  0.69760  Biso   1.000  C
  C115     1.0000 0.06889  0.53805  0.76877  Biso   1.000  C
  C116     1.0000 0.13250  0.60530  0.75590  Biso   1.000  C
  C117     1.0000 0.86604  0.32778  0.46934  Biso   1.000  C
  C118     1.0000 0.93728  0.29640  0.44104  Biso   1.000  C
  C119     1.0000 0.94781  0.24922  0.43936  Biso   1.000  C
  C120     1.0000 0.88423  0.23119  0.46575  Biso   1.000  C
  C121     1.0000 0.81147  0.26132  0.49374  Biso   1.000  C
  C122     1.0000 0.80083  0.30842  0.49632  Biso   1.000  C
  C123     1.0000 0.72524  0.33695  0.52777  Biso   1.000  C
  C124     1.0000 0.63481  0.44799  0.56999  Biso   1.000  C
  C125     1.0000 0.56630  0.47877  0.60603  Biso   1.000  C
  C126     1.0000 0.58701  0.51069  0.63309  Biso   1.000  C
  C127     1.0000 0.24890  0.08100  0.62180  Biso   1.000  C
  C128     1.0000 0.27430  0.11810  0.62870  Biso   1.000  C
  C129     1.0000 0.31520  0.13700  0.59260  Biso   1.000  C
  C130     1.0000 0.32100  0.12080  0.54680  Biso   1.000  C
  C131     1.0000 0.29500  0.08120  0.54620  Biso   1.000  C
  C132     1.0000 0.34510  0.17840  0.59920  Biso   1.000  C
  C133     1.0000 0.05306  0.15344  0.81364  Biso   1.000  C
  C134     1.0000 0.09001  0.17778  0.77600  Biso   1.000  C
  C135     1.0000 0.08841  0.17251  0.73187  Biso   1.000  C
  C136     1.0000 0.04934  0.14116  0.72216  Biso   1.000  C
  C137     1.0000 0.01319  0.11757  0.75865  Biso   1.000  C
  C138     1.0000 0.01264  0.12169  0.80483  Biso   1.000  C
  C139     1.0000 0.97303  0.09394  0.84100  Biso   1.000  C
  C140     1.0000 0.91176  0.08487  0.96041  Biso   1.000  C
  C141     1.0000 0.86588  0.06152  0.00012  Biso   1.000  C
  C142     1.0000 0.88210  0.24731  0.91749  Biso   1.000  C
  C143     1.0000 0.81107  0.28374  0.92412  Biso   1.000  C
  C144     1.0000 0.73434  0.27382  0.93190  Biso   1.000  C
  C145     1.0000 0.73809  0.22787  0.92995  Biso   1.000  C
  C146     1.0000 0.81144  0.19353  0.92279  Biso   1.000  C
  C147     1.0000 0.65554  0.31326  0.93946  Biso   1.000  C
  C148     1.0000 0.70404  0.08119  0.90993  Biso   1.000  C
  C149     1.0000 0.64427  0.12397  0.90649  Biso   1.000  C
  C150     1.0000 0.56270  0.12820  0.92980  Biso   1.000  C
  C151     1.0000 0.53750  0.09410  0.95810  Biso   1.000  C
  C152     1.0000 0.59870  0.05289  0.96391  Biso   1.000  C
  C153     1.0000 0.68132  0.04632  0.94084  Biso   1.000  C
  C154     1.0000 0.73952  0.00267  0.94929  Biso   1.000  C
  C155     1.0000 0.94714  0.94543  0.91449  Biso   1.000  C
  C156     1.0000 0.01015  0.90190  0.92340  Biso   1.000  C
  C157     1.0000 0.09140  0.89070  0.88490  Biso   1.000  C
  C158     1.0000 0.91990  0.95620  0.80240  Biso   1.000  C
  C159     1.0000 0.87571  0.96195  0.73123  Biso   1.000  C
  C160     1.0000 0.99370  0.89470  0.74410  Biso   1.000  C
  C161     1.0000 0.16316  0.17222  0.03066  Biso   1.000  C
  C162     1.0000 0.17472  0.20360  0.05896  Biso   1.000  C
  C163     1.0000 0.13639  0.25078  0.06064  Biso   1.000  C
  C164     1.0000 0.08117  0.26881  0.03425  Biso   1.000  C
  C165     1.0000 0.06653  0.23868  0.00626  Biso   1.000  C
  C166     1.0000 0.10557  0.19158  0.00368  Biso   1.000  C
  C167     1.0000 0.08996  0.16305  0.97223  Biso   1.000  C
  C168     1.0000 0.15279  0.05201  0.93001  Biso   1.000  C
  C169     1.0000 0.15110  0.02123  0.89397  Biso   1.000  C
  C170     1.0000 0.23079  0.98931  0.86691  Biso   1.000  C
  C171     1.0000 0.45170  0.41900  0.87820  Biso   1.000  C
  C172     1.0000 0.52110  0.38190  0.87130  Biso   1.000  C
  C173     1.0000 0.54480  0.36300  0.90740  Biso   1.000  C
  C174     1.0000 0.48860  0.37920  0.95320  Biso   1.000  C
  C175     1.0000 0.42240  0.41880  0.95380  Biso   1.000  C
  C176     1.0000 0.62270  0.32160  0.90080  Biso   1.000  C
  C177     1.0000 0.13330  0.81364  0.34656  Biso   1.000  C
  C178     1.0000 0.13399  0.77600  0.32222  Biso   1.000  C
  C179     1.0000 0.17972  0.73187  0.32749  Biso   1.000  C
  C180     1.0000 0.22850  0.72216  0.35884  Biso   1.000  C
  C181     1.0000 0.22816  0.75865  0.38243  Biso   1.000  C
  C182     1.0000 0.18253  0.80483  0.37831  Biso   1.000  C
  C183     1.0000 0.18597  0.84100  0.40606  Biso   1.000  C
  C184     1.0000 0.12783  0.96041  0.41513  Biso   1.000  C
  C185     1.0000 0.13400  0.00012  0.43848  Biso   1.000  C
  C186     1.0000 0.20041  0.91749  0.25269  Biso   1.000  C
  C187     1.0000 0.26481  0.92412  0.21626  Biso   1.000  C
  C188     1.0000 0.33376  0.93190  0.22618  Biso   1.000  C
  C189     1.0000 0.33196  0.92995  0.27213  Biso   1.000  C
  C190     1.0000 0.26577  0.92279  0.30647  Biso   1.000  C
  C191     1.0000 0.40500  0.93946  0.18674  Biso   1.000  C
  C192     1.0000 0.38603  0.90993  0.41881  Biso   1.000  C
  C193     1.0000 0.44924  0.90649  0.37603  Biso   1.000  C
  C194     1.0000 0.50750  0.92980  0.37180  Biso   1.000  C
  C195     1.0000 0.50440  0.95810  0.40590  Biso   1.000  C
  C196     1.0000 0.43739  0.96391  0.44711  Biso   1.000  C
  C197     1.0000 0.37784  0.94084  0.45368  Biso   1.000  C
  C198     1.0000 0.31119  0.94929  0.49733  Biso   1.000  C
  C199     1.0000 0.13837  0.91449  0.55457  Biso   1.000  C
  C200     1.0000 0.06645  0.92340  0.59810  Biso   1.000  C
  C201     1.0000 0.02370  0.88490  0.60930  Biso   1.000  C
  C202     1.0000 0.27770  0.80240  0.54380  Biso   1.000  C
  C203     1.0000 0.39306  0.73123  0.53805  Biso   1.000  C
  C204     1.0000 0.26220  0.74410  0.60530  Biso   1.000  C
  C205     1.0000 0.80618  0.03066  0.32778  Biso   1.000  C
  C206     1.0000 0.76632  0.05896  0.29640  Biso   1.000  C
  C207     1.0000 0.80297  0.06064  0.24922  Biso   1.000  C
  C208     1.0000 0.88458  0.03425  0.23119  Biso   1.000  C
  C209     1.0000 0.92721  0.00626  0.26132  Biso   1.000  C
  C210     1.0000 0.89075  0.00368  0.30842  Biso   1.000  C
  C211     1.0000 0.93781  0.97223  0.33695  Biso   1.000  C
  C212     1.0000 0.91720  0.93001  0.44799  Biso   1.000  C
  C213     1.0000 0.95493  0.89397  0.47877  Biso   1.000  C
  C214     1.0000 0.90230  0.86691  0.51069  Biso   1.000  C
  C215     1.0000 0.67010  0.87820  0.08100  Biso   1.000  C
  C216     1.0000 0.60760  0.87130  0.11810  Biso   1.000  C
  C217     1.0000 0.54780  0.90740  0.13700  Biso   1.000  C
  C218     1.0000 0.55820  0.95320  0.12080  Biso   1.000  C
  C219     1.0000 0.62380  0.95380  0.08120  Biso   1.000  C
  C220     1.0000 0.47650  0.90080  0.17840  Biso   1.000  C
  C221     1.0000 0.79350  0.68636  0.15344  Biso   1.000  C
  C222     1.0000 0.73221  0.72400  0.17778  Biso   1.000  C
  C223     1.0000 0.73908  0.76813  0.17251  Biso   1.000  C
  C224     1.0000 0.80950  0.77784  0.14116  Biso   1.000  C
  C225     1.0000 0.86924  0.74135  0.11757  Biso   1.000  C
  C226     1.0000 0.86567  0.69517  0.12169  Biso   1.000  C
  C227     1.0000 0.93303  0.65900  0.09394  Biso   1.000  C
  C228     1.0000 0.00337  0.53959  0.08487  Biso   1.000  C
  C229     1.0000 0.07260  0.49988  0.06152  Biso   1.000  C
  C230     1.0000 0.87059  0.58251  0.24731  Biso   1.000  C
  C231     1.0000 0.90519  0.57588  0.28374  Biso   1.000  C
  C232     1.0000 0.99184  0.56810  0.27382  Biso   1.000  C
  C233     1.0000 0.03404  0.57005  0.22787  Biso   1.000  C
  C234     1.0000 0.99503  0.57721  0.19353  Biso   1.000  C
  C235     1.0000 0.03120  0.56054  0.31326  Biso   1.000  C
  C236     1.0000 0.21477  0.59007  0.08119  Biso   1.000  C
  C237     1.0000 0.23176  0.59351  0.12397  Biso   1.000  C
  C238     1.0000 0.30910  0.57020  0.12820  Biso   1.000  C
  C239     1.0000 0.36840  0.54190  0.09410  Biso   1.000  C
  C240     1.0000 0.34841  0.53609  0.05289  Biso   1.000  C
  C241     1.0000 0.27236  0.55916  0.04632  Biso   1.000  C
  C242     1.0000 0.25781  0.55071  0.00267  Biso   1.000  C
  C243     1.0000 0.10743  0.58551  0.94543  Biso   1.000  C
  C244     1.0000 0.08795  0.57660  0.90190  Biso   1.000  C
  C245     1.0000 0.01790  0.61510  0.89070  Biso   1.000  C
  C246     1.0000 0.12390  0.69760  0.95620  Biso   1.000  C
  C247     1.0000 0.16234  0.76877  0.96195  Biso   1.000  C
  C248     1.0000 0.11160  0.75590  0.89470  Biso   1.000  C
  C249     1.0000 0.66462  0.46934  0.17222  Biso   1.000  C
  C250     1.0000 0.62168  0.44104  0.20360  Biso   1.000  C
  C251     1.0000 0.61283  0.43936  0.25078  Biso   1.000  C
  C252     1.0000 0.65002  0.46575  0.26881  Biso   1.000  C
  C253     1.0000 0.69479  0.49374  0.23868  Biso   1.000  C
  C254     1.0000 0.70285  0.49632  0.19158  Biso   1.000  C
  C255     1.0000 0.74699  0.52777  0.16305  Biso   1.000  C
  C256     1.0000 0.79520  0.56999  0.05201  Biso   1.000  C
  C257     1.0000 0.82767  0.60603  0.02123  Biso   1.000  C
  C258     1.0000 0.77990  0.63309  0.98931  Biso   1.000  C
  C259     1.0000 0.12930  0.62180  0.41900  Biso   1.000  C
  C260     1.0000 0.09700  0.62870  0.38190  Biso   1.000  C
  C261     1.0000 0.09220  0.59260  0.36300  Biso   1.000  C
  C262     1.0000 0.13220  0.54680  0.37920  Biso   1.000  C
  C263     1.0000 0.15880  0.54620  0.41880  Biso   1.000  C
  C264     1.0000 0.05570  0.59920  0.32160  Biso   1.000  C
  C265     1.0000 0.47986  0.65344  0.31364  Biso   1.000  C
  C266     1.0000 0.45621  0.67778  0.27600  Biso   1.000  C
  C267     1.0000 0.50721  0.67251  0.23187  Biso   1.000  C
  C268     1.0000 0.58734  0.64116  0.22216  Biso   1.000  C
  C269     1.0000 0.61059  0.61757  0.25865  Biso   1.000  C
  C270     1.0000 0.56084  0.62169  0.30483  Biso   1.000  C
  C271     1.0000 0.59203  0.59394  0.34100  Biso   1.000  C
  C272     1.0000 0.54296  0.58487  0.46041  Biso   1.000  C
  C273     1.0000 0.57248  0.56152  0.50012  Biso   1.000  C
  C274     1.0000 0.45310  0.74731  0.41749  Biso   1.000  C
  C275     1.0000 0.48107  0.78374  0.42412  Biso   1.000  C
  C276     1.0000 0.55994  0.77382  0.43190  Biso   1.000  C
  C277     1.0000 0.60409  0.72787  0.42995  Biso   1.000  C
  C278     1.0000 0.57224  0.69353  0.42279  Biso   1.000  C
  C279     1.0000 0.59174  0.81326  0.43946  Biso   1.000  C
  C280     1.0000 0.80484  0.58119  0.40993  Biso   1.000  C
  C281     1.0000 0.82527  0.62397  0.40649  Biso   1.000  C
  C282     1.0000 0.87930  0.62820  0.42980  Biso   1.000  C
  C283     1.0000 0.91030  0.59410  0.45810  Biso   1.000  C
  C284     1.0000 0.88450  0.55289  0.46391  Biso   1.000  C
  C285     1.0000 0.83152  0.54632  0.44084  Biso   1.000  C
  C286     1.0000 0.80852  0.50267  0.44929  Biso   1.000  C
  C287     1.0000 0.69294  0.44543  0.41449  Biso   1.000  C
  C288     1.0000 0.66455  0.40190  0.42340  Biso   1.000  C
  C289     1.0000 0.63300  0.39070  0.38490  Biso   1.000  C
  C290     1.0000 0.82150  0.45620  0.30240  Biso   1.000  C
  C291     1.0000 0.93111  0.46195  0.23123  Biso   1.000  C
  C292     1.0000 0.86750  0.39470  0.24410  Biso   1.000  C
  C293     1.0000 0.13396  0.67222  0.53066  Biso   1.000  C
  C294     1.0000 0.06272  0.70360  0.55896  Biso   1.000  C
  C295     1.0000 0.05219  0.75078  0.56064  Biso   1.000  C
  C296     1.0000 0.11577  0.76881  0.53425  Biso   1.000  C
  C297     1.0000 0.18853  0.73868  0.50626  Biso   1.000  C
  C298     1.0000 0.19917  0.69158  0.50368  Biso   1.000  C
  C299     1.0000 0.27476  0.66305  0.47223  Biso   1.000  C
  C300     1.0000 0.36519  0.55201  0.43001  Biso   1.000  C
  C301     1.0000 0.43370  0.52123  0.39397  Biso   1.000  C
  C302     1.0000 0.41299  0.48931  0.36691  Biso   1.000  C
  C303     1.0000 0.75110  0.91900  0.37820  Biso   1.000  C
  C304     1.0000 0.72570  0.88190  0.37130  Biso   1.000  C
  C305     1.0000 0.68480  0.86300  0.40740  Biso   1.000  C
  C306     1.0000 0.67900  0.87920  0.45320  Biso   1.000  C
  C307     1.0000 0.70500  0.91880  0.45380  Biso   1.000  C
  C308     1.0000 0.65490  0.82160  0.40080  Biso   1.000  C
  C309     1.0000 0.94694  0.84656  0.18636  Biso   1.000  C
  C310     1.0000 0.90999  0.82222  0.22400  Biso   1.000  C
  C311     1.0000 0.91159  0.82749  0.26813  Biso   1.000  C
  C312     1.0000 0.95066  0.85884  0.27784  Biso   1.000  C
  C313     1.0000 0.98681  0.88243  0.24135  Biso   1.000  C
  C314     1.0000 0.98736  0.87831  0.19517  Biso   1.000  C
  C315     1.0000 0.02697  0.90606  0.15900  Biso   1.000  C
  C316     1.0000 0.08824  0.91513  0.03959  Biso   1.000  C
  C317     1.0000 0.13412  0.93848  0.99988  Biso   1.000  C
  C318     1.0000 0.11790  0.75269  0.08251  Biso   1.000  C
  C319     1.0000 0.18893  0.71626  0.07588  Biso   1.000  C
  C320     1.0000 0.26566  0.72618  0.06810  Biso   1.000  C
  C321     1.0000 0.26191  0.77213  0.07005  Biso   1.000  C
  C322     1.0000 0.18856  0.80647  0.07721  Biso   1.000  C
  C323     1.0000 0.34446  0.68674  0.06054  Biso   1.000  C
  C324     1.0000 0.29596  0.91881  0.09007  Biso   1.000  C
  C325     1.0000 0.35573  0.87603  0.09351  Biso   1.000  C
  C326     1.0000 0.43730  0.87180  0.07020  Biso   1.000  C
  C327     1.0000 0.46250  0.90590  0.04190  Biso   1.000  C
  C328     1.0000 0.40130  0.94711  0.03609  Biso   1.000  C
  C329     1.0000 0.31868  0.95368  0.05916  Biso   1.000  C
  C330     1.0000 0.26048  0.99733  0.05071  Biso   1.000  C
  C331     1.0000 0.05286  0.05457  0.08551  Biso   1.000  C
  C332     1.0000 0.98985  0.09810  0.07660  Biso   1.000  C
  C333     1.0000 0.90860  0.10930  0.11510  Biso   1.000  C
  C334     1.0000 0.08010  0.04380  0.19760  Biso   1.000  C
  C335     1.0000 0.12429  0.03805  0.26877  Biso   1.000  C
  C336     1.0000 0.00630  0.10530  0.25590  Biso   1.000  C
  C337     1.0000 0.83684  0.82778  0.96934  Biso   1.000  C
  C338     1.0000 0.82528  0.79640  0.94104  Biso   1.000  C
  C339     1.0000 0.86361  0.74922  0.93936  Biso   1.000  C
  C340     1.0000 0.91883  0.73119  0.96575  Biso   1.000  C
  C341     1.0000 0.93347  0.76132  0.99374  Biso   1.000  C
  C342     1.0000 0.89443  0.80842  0.99632  Biso   1.000  C
  C343     1.0000 0.91004  0.83695  0.02777  Biso   1.000  C
  C344     1.0000 0.84721  0.94799  0.06999  Biso   1.000  C
  C345     1.0000 0.84890  0.97877  0.10603  Biso   1.000  C
  C346     1.0000 0.76921  0.01069  0.13309  Biso   1.000  C
  C347     1.0000 0.54830  0.58100  0.12180  Biso   1.000  C
  C348     1.0000 0.47890  0.61810  0.12870  Biso   1.000  C
  C349     1.0000 0.45520  0.63700  0.09260  Biso   1.000  C
  C350     1.0000 0.51140  0.62080  0.04680  Biso   1.000  C
  C351     1.0000 0.57760  0.58120  0.04620  Biso   1.000  C
  C352     1.0000 0.37730  0.67840  0.09920  Biso   1.000  C
  N1       1.0000 0.85129  0.11452  0.60050  Biso   1.000  N
  N2       1.0000 0.84090  0.08232  0.57248  Biso   1.000  N
  N3       1.0000 0.80017  0.08323  0.70243  Biso   1.000  N
  N4       1.0000 0.74742  0.07250  0.49526  Biso   1.000  N
  N5       1.0000 0.80945  0.06067  0.45183  Biso   1.000  N
  N6       1.0000 0.68770  0.24052  0.43688  Biso   1.000  N
  N7       1.0000 0.09550  0.03395  0.61865  Biso   1.000  N
  N8       1.0000 0.04657  0.06830  0.59556  Biso   1.000  N
  N9       1.0000 0.32101  0.08461  0.93957  Biso   1.000  N
  N10      1.0000 0.06631  0.38548  0.89950  Biso   1.000  N
  N11      1.0000 0.99570  0.41768  0.92752  Biso   1.000  N
  N12      1.0000 0.08583  0.41677  0.79757  Biso   1.000  N
  N13      1.0000 0.81518  0.42750  0.00474  Biso   1.000  N
  N14      1.0000 0.82195  0.43933  0.04817  Biso   1.000  N
  N15      1.0000 0.86510  0.25948  0.06312  Biso   1.000  N
  N16      1.0000 0.24810  0.46605  0.88135  Biso   1.000  N
  N17      1.0000 0.21043  0.43170  0.90444  Biso   1.000  N
  N18      1.0000 0.84519  0.41539  0.56043  Biso   1.000  N
  N19      1.0000 0.45179  0.39950  0.61452  Biso   1.000  N
  N20      1.0000 0.41338  0.42752  0.58232  Biso   1.000  N
  N21      1.0000 0.50260  0.29757  0.58323  Biso   1.000  N
  N22      1.0000 0.24268  0.50474  0.57250  Biso   1.000  N
  N23      1.0000 0.26128  0.54817  0.56067  Biso   1.000  N
  N24      1.0000 0.12458  0.56312  0.74052  Biso   1.000  N
  N25      1.0000 0.71415  0.38135  0.53395  Biso   1.000  N
  N26      1.0000 0.64213  0.40444  0.56830  Biso   1.000  N
  N27      1.0000 0.26058  0.06043  0.58461  Biso   1.000  N
  N28      1.0000 0.96581  0.10050  0.88548  Biso   1.000  N
  N29      1.0000 0.92322  0.07248  0.91768  Biso   1.000  N
  N30      1.0000 0.88340  0.20243  0.91677  Biso   1.000  N
  N31      1.0000 0.81992  0.99526  0.92750  Biso   1.000  N
  N32      1.0000 0.87012  0.95183  0.93933  Biso   1.000  N
  N33      1.0000 0.92822  0.93688  0.75948  Biso   1.000  N
  N34      1.0000 0.12945  0.11865  0.96605  Biso   1.000  N
  N35      1.0000 0.11487  0.09556  0.93170  Biso   1.000  N
  N36      1.0000 0.40562  0.43957  0.91539  Biso   1.000  N
  N37      1.0000 0.14871  0.88548  0.39950  Biso   1.000  N
  N38      1.0000 0.15910  0.91768  0.42752  Biso   1.000  N
  N39      1.0000 0.19983  0.91677  0.29757  Biso   1.000  N
  N40      1.0000 0.25258  0.92750  0.50474  Biso   1.000  N
  N41      1.0000 0.19055  0.93933  0.54817  Biso   1.000  N
  N42      1.0000 0.31230  0.75948  0.56312  Biso   1.000  N
  N43      1.0000 0.90450  0.96605  0.38135  Biso   1.000  N
  N44      1.0000 0.95343  0.93170  0.40444  Biso   1.000  N
  N45      1.0000 0.67899  0.91539  0.06043  Biso   1.000  N
  N46      1.0000 0.93369  0.61452  0.10050  Biso   1.000  N
  N47      1.0000 0.00430  0.58232  0.07248  Biso   1.000  N
  N48      1.0000 0.91417  0.58323  0.20243  Biso   1.000  N
  N49      1.0000 0.18482  0.57250  0.99526  Biso   1.000  N
  N50      1.0000 0.17805  0.56067  0.95183  Biso   1.000  N
  N51      1.0000 0.13490  0.74052  0.93688  Biso   1.000  N
  N52      1.0000 0.75190  0.53395  0.11865  Biso   1.000  N
  N53      1.0000 0.78957  0.56830  0.09556  Biso   1.000  N
  N54      1.0000 0.15481  0.58461  0.43957  Biso   1.000  N
  N55      1.0000 0.54821  0.60050  0.38548  Biso   1.000  N
  N56      1.0000 0.58662  0.57248  0.41768  Biso   1.000  N
  N57      1.0000 0.49740  0.70243  0.41677  Biso   1.000  N
  N58      1.0000 0.75732  0.49526  0.42750  Biso   1.000  N
  N59      1.0000 0.73872  0.45183  0.43933  Biso   1.000  N
  N60      1.0000 0.87542  0.43688  0.25948  Biso   1.000  N
  N61      1.0000 0.28585  0.61865  0.46605  Biso   1.000  N
  N62      1.0000 0.35787  0.59556  0.43170  Biso   1.000  N
  N63      1.0000 0.73942  0.93957  0.41539  Biso   1.000  N
  N64      1.0000 0.03419  0.89950  0.11452  Biso   1.000  N
  N65      1.0000 0.07678  0.92752  0.08232  Biso   1.000  N
  N66      1.0000 0.11660  0.79757  0.08323  Biso   1.000  N
  N67      1.0000 0.18008  0.00474  0.07250  Biso   1.000  N
  N68      1.0000 0.12988  0.04817  0.06067  Biso   1.000  N
  N69      1.0000 0.07178  0.06312  0.24052  Biso   1.000  N
  N70      1.0000 0.87055  0.88135  0.03395  Biso   1.000  N
  N71      1.0000 0.88513  0.90444  0.06830  Biso   1.000  N
  N72      1.0000 0.59438  0.56043  0.08461  Biso   1.000  N
  O1       1.0000 0.91305  0.14417  0.66133  Biso   1.000  O
  O2       1.0000 0.77373  0.17039  0.56275  Biso   1.000  O
  O3       1.0000 0.90985  0.03037  0.61793  Biso   1.000  O
  O4       1.0000 0.66357  0.11823  0.57703  Biso   1.000  O
  O5       1.0000 0.69085  0.02199  0.47237  Biso   1.000  O
  O6       1.0000 0.85304  0.11704  0.47512  Biso   1.000  O
  O7       1.0000 0.68885  0.18167  0.49303  Biso   1.000  O
  O8       1.0000 0.23486  0.96975  0.62793  Biso   1.000  O
  O9       1.0000 0.98550  0.04996  0.68292  Biso   1.000  O
  O10      1.0000 0.15718  0.04237  0.53247  Biso   1.000  O
  O11      1.0000 0.21855  0.35583  0.83867  Biso   1.000  O
  O12      1.0000 0.00687  0.32961  0.93725  Biso   1.000  O
  O13      1.0000 0.05815  0.46963  0.88207  Biso   1.000  O
  O14      1.0000 0.85883  0.38177  0.92297  Biso   1.000  O
  O15      1.0000 0.68521  0.47801  0.02763  Biso   1.000  O
  O16      1.0000 0.94520  0.38296  0.02488  Biso   1.000  O
  O17      1.0000 0.86355  0.31833  0.00697  Biso   1.000  O
  O18      1.0000 0.33254  0.53025  0.87207  Biso   1.000  O
  O19      1.0000 0.21838  0.45004  0.81708  Biso   1.000  O
  O20      1.0000 0.23202  0.45763  0.96753  Biso   1.000  O
  O21      1.0000 0.57438  0.33867  0.64417  Biso   1.000  O
  O22      1.0000 0.33648  0.43725  0.67039  Biso   1.000  O
  O23      1.0000 0.52778  0.38207  0.53037  Biso   1.000  O
  O24      1.0000 0.24060  0.42297  0.61823  Biso   1.000  O
  O25      1.0000 0.16322  0.52763  0.52199  Biso   1.000  O
  O26      1.0000 0.32816  0.52488  0.61704  Biso   1.000  O
  O27      1.0000 0.18188  0.50697  0.68167  Biso   1.000  O
  O28      1.0000 0.86279  0.37207  0.46975  Biso   1.000  O
  O29      1.0000 0.66842  0.31708  0.54996  Biso   1.000  O
  O30      1.0000 0.68965  0.46753  0.54237  Biso   1.000  O
  O31      1.0000 0.05722  0.16133  0.85583  Biso   1.000  O
  O32      1.0000 0.94412  0.06275  0.82961  Biso   1.000  O
  O33      1.0000 0.94022  0.11793  0.96963  Biso   1.000  O
  O34      1.0000 0.78180  0.07703  0.88177  Biso   1.000  O
  O35      1.0000 0.71284  0.97237  0.97801  Biso   1.000  O
  O36      1.0000 0.97008  0.97512  0.88296  Biso   1.000  O
  O37      1.0000 0.87052  0.99303  0.81833  Biso   1.000  O
  O38      1.0000 0.20461  0.12793  0.03025  Biso   1.000  O
  O39      1.0000 0.03546  0.18292  0.95004  Biso   1.000  O
  O40      1.0000 0.19955  0.03247  0.95763  Biso   1.000  O
  O41      1.0000 0.08695  0.85583  0.33867  Biso   1.000  O
  O42      1.0000 0.22627  0.82961  0.43725  Biso   1.000  O
  O43      1.0000 0.09015  0.96963  0.38207  Biso   1.000  O
  O44      1.0000 0.33643  0.88177  0.42297  Biso   1.000  O
  O45      1.0000 0.30915  0.97801  0.52763  Biso   1.000  O
  O46      1.0000 0.14696  0.88296  0.52488  Biso   1.000  O
  O47      1.0000 0.31115  0.81833  0.50697  Biso   1.000  O
  O48      1.0000 0.76514  0.03025  0.37207  Biso   1.000  O
  O49      1.0000 0.01450  0.95004  0.31708  Biso   1.000  O
  O50      1.0000 0.84282  0.95763  0.46753  Biso   1.000  O
  O51      1.0000 0.78145  0.64417  0.16133  Biso   1.000  O
  O52      1.0000 0.99313  0.67039  0.06275  Biso   1.000  O
  O53      1.0000 0.94185  0.53037  0.11793  Biso   1.000  O
  O54      1.0000 0.14117  0.61823  0.07703  Biso   1.000  O
  O55      1.0000 0.31479  0.52199  0.97237  Biso   1.000  O
  O56      1.0000 0.05480  0.61704  0.97512  Biso   1.000  O
  O57      1.0000 0.13645  0.68167  0.99303  Biso   1.000  O
  O58      1.0000 0.66746  0.46975  0.12793  Biso   1.000  O
  O59      1.0000 0.78162  0.54996  0.18292  Biso   1.000  O
  O60      1.0000 0.76798  0.54237  0.03247  Biso   1.000  O
  O61      1.0000 0.42562  0.66133  0.35583  Biso   1.000  O
  O62      1.0000 0.66352  0.56275  0.32961  Biso   1.000  O
  O63      1.0000 0.47222  0.61793  0.46963  Biso   1.000  O
  O64      1.0000 0.75940  0.57703  0.38177  Biso   1.000  O
  O65      1.0000 0.83678  0.47237  0.47801  Biso   1.000  O
  O66      1.0000 0.67184  0.47512  0.38296  Biso   1.000  O
  O67      1.0000 0.81812  0.49303  0.31833  Biso   1.000  O
  O68      1.0000 0.13721  0.62793  0.53025  Biso   1.000  O
  O69      1.0000 0.33158  0.68292  0.45004  Biso   1.000  O
  O70      1.0000 0.31035  0.53247  0.45763  Biso   1.000  O
  O71      1.0000 0.94278  0.83867  0.14417  Biso   1.000  O
  O72      1.0000 0.05588  0.93725  0.17039  Biso   1.000  O
  O73      1.0000 0.05978  0.88207  0.03037  Biso   1.000  O
  O74      1.0000 0.21820  0.92297  0.11823  Biso   1.000  O
  O75      1.0000 0.28716  0.02763  0.02199  Biso   1.000  O
  O76      1.0000 0.02992  0.02488  0.11704  Biso   1.000  O
  O77      1.0000 0.12948  0.00697  0.18167  Biso   1.000  O
  O78      1.0000 0.79539  0.87207  0.96975  Biso   1.000  O
  O79      1.0000 0.96454  0.81708  0.04996  Biso   1.000  O
  O80      1.0000 0.80045  0.96753  0.04237  Biso   1.000  O
