data_image0
_cell_length_a       17.5642
_cell_length_b       30.0541
_cell_length_c       30.0541
_cell_angle_alpha    85.1018
_cell_angle_beta     73.0097
_cell_angle_gamma    73.0097

_symmetry_space_group_name_H-M    P 1
_symmetry_int_tables_number       1

loop_
  _symmetry_equiv_pos_as_xyz
  'x, y, z'

loop_
  _atom_site_label
  _atom_site_occupancy
  _atom_site_fract_x
  _atom_site_fract_y
  _atom_site_fract_z
  _atom_site_thermal_displace_type
  _atom_site_B_iso_or_equiv
  _atom_site_type_symbol
  Mn1      1.0000 0.24251  0.87892  0.47038  Biso   1.000  Mn
  Mn2      1.0000 0.20687  0.00269  0.57636  Biso   1.000  Mn
  Mn3      1.0000 0.08263  0.91465  0.35701  Biso   1.000  Mn
  Mn4      1.0000 0.09181  0.62108  0.02962  Biso   1.000  Mn
  Mn5      1.0000 0.28593  0.49731  0.92364  Biso   1.000  Mn
  Mn6      1.0000 0.85429  0.58535  0.14299  Biso   1.000  Mn
  Mn7      1.0000 0.71289  0.52962  0.37892  Biso   1.000  Mn
  Mn8      1.0000 0.78324  0.42364  0.50268  Biso   1.000  Mn
  Mn9      1.0000 0.43964  0.64299  0.41465  Biso   1.000  Mn
  Mn10     1.0000 0.12143  0.97038  0.12108  Biso   1.000  Mn
  Mn11     1.0000 0.20956  0.07636  0.99732  Biso   1.000  Mn
  Mn12     1.0000 0.99728  0.85701  0.08535  Biso   1.000  Mn
  Mn13     1.0000 0.75749  0.12108  0.52962  Biso   1.000  Mn
  Mn14     1.0000 0.79313  0.99731  0.42364  Biso   1.000  Mn
  Mn15     1.0000 0.91737  0.08535  0.64299  Biso   1.000  Mn
  Mn16     1.0000 0.90819  0.37892  0.97038  Biso   1.000  Mn
  Mn17     1.0000 0.71407  0.50269  0.07636  Biso   1.000  Mn
  Mn18     1.0000 0.14571  0.41465  0.85701  Biso   1.000  Mn
  Mn19     1.0000 0.28711  0.47038  0.62108  Biso   1.000  Mn
  Mn20     1.0000 0.21676  0.57636  0.49732  Biso   1.000  Mn
  Mn21     1.0000 0.56036  0.35701  0.58535  Biso   1.000  Mn
  Mn22     1.0000 0.87857  0.02962  0.87892  Biso   1.000  Mn
  Mn23     1.0000 0.79044  0.92364  0.00268  Biso   1.000  Mn
  Mn24     1.0000 0.00272  0.14299  0.91465  Biso   1.000  Mn
  H1       1.0000 0.45260  0.88640  0.35300  Biso   1.000  H
  H2       1.0000 0.54940  0.92620  0.34220  Biso   1.000  H
  H3       1.0000 0.54780  0.97260  0.40180  Biso   1.000  H
  H4       1.0000 0.43730  0.98310  0.47110  Biso   1.000  H
  H5       1.0000 0.09120  0.92210  0.62470  Biso   1.000  H
  H6       1.0000 0.03090  0.95380  0.59640  Biso   1.000  H
  H7       1.0000 0.05620  0.85610  0.60830  Biso   1.000  H
  H8       1.0000 0.97640  0.89450  0.63710  Biso   1.000  H
  H9       1.0000 0.99290  0.88910  0.58230  Biso   1.000  H
  H10      1.0000 0.22290  0.81580  0.55800  Biso   1.000  H
  H11      1.0000 0.42910  0.75240  0.52360  Biso   1.000  H
  H12      1.0000 0.41650  0.71270  0.56190  Biso   1.000  H
  H13      1.0000 0.39050  0.71290  0.51510  Biso   1.000  H
  H14      1.0000 0.24870  0.71620  0.59260  Biso   1.000  H
  H15      1.0000 0.30130  0.72880  0.62260  Biso   1.000  H
  H16      1.0000 0.21780  0.76590  0.61750  Biso   1.000  H
  H17      1.0000 0.29640  0.92670  0.69010  Biso   1.000  H
  H18      1.0000 0.23540  0.92600  0.76820  Biso   1.000  H
  H19      1.0000 0.09540  0.96860  0.80040  Biso   1.000  H
  H20      1.0000 0.02140  0.01260  0.75080  Biso   1.000  H
  H21      1.0000 0.02120  0.09130  0.50230  Biso   1.000  H
  H22      1.0000 0.99730  0.12950  0.54170  Biso   1.000  H
  H23      1.0000 0.15030  0.10850  0.46950  Biso   1.000  H
  H24      1.0000 0.07350  0.15320  0.46960  Biso   1.000  H
  H25      1.0000 0.12250  0.14840  0.50780  Biso   1.000  H
  H26      1.0000 0.22080  0.06780  0.64940  Biso   1.000  H
  H27      1.0000 0.26780  0.12930  0.65870  Biso   1.000  H
  H28      1.0000 0.34390  0.13720  0.51780  Biso   1.000  H
  H29      1.0000 0.30370  0.06970  0.51450  Biso   1.000  H
  H30      1.0000 0.35990  0.17890  0.62430  Biso   1.000  H
  H31      1.0000 0.29620  0.20900  0.59740  Biso   1.000  H
  H32      1.0000 0.10020  0.78290  0.30050  Biso   1.000  H
  H33      1.0000 0.17850  0.70770  0.31010  Biso   1.000  H
  H34      1.0000 0.25850  0.69260  0.36160  Biso   1.000  H
  H35      1.0000 0.26000  0.75270  0.40470  Biso   1.000  H
  H36      1.0000 0.14490  0.99020  0.46860  Biso   1.000  H
  H37      1.0000 0.07720  0.02470  0.44590  Biso   1.000  H
  H38      1.0000 0.39590  0.33760  0.57780  Biso   1.000  H
  H39      1.0000 0.34140  0.27980  0.56760  Biso   1.000  H
  H40      1.0000 0.55230  0.18580  0.57700  Biso   1.000  H
  H41      1.0000 0.60140  0.24670  0.58710  Biso   1.000  H
  H42      1.0000 0.45490  0.15850  0.55350  Biso   1.000  H
  H43      1.0000 0.39110  0.19520  0.53040  Biso   1.000  H
  H44      1.0000 0.19200  0.61360  0.14700  Biso   1.000  H
  H45      1.0000 0.31780  0.57380  0.15780  Biso   1.000  H
  H46      1.0000 0.42220  0.52740  0.09820  Biso   1.000  H
  H47      1.0000 0.39150  0.51690  0.02890  Biso   1.000  H
  H48      1.0000 0.13800  0.57790  0.87530  Biso   1.000  H
  H49      1.0000 0.08110  0.54620  0.90360  Biso   1.000  H
  H50      1.0000 0.02060  0.64390  0.89170  Biso   1.000  H
  H51      1.0000 0.00800  0.60550  0.86290  Biso   1.000  H
  H52      1.0000 0.96430  0.61090  0.91770  Biso   1.000  H
  H53      1.0000 0.09670  0.68420  0.94200  Biso   1.000  H
  H54      1.0000 0.20510  0.74760  0.97640  Biso   1.000  H
  H55      1.0000 0.19110  0.78730  0.93810  Biso   1.000  H
  H56      1.0000 0.11850  0.78710  0.98490  Biso   1.000  H
  H57      1.0000 0.05750  0.78380  0.90740  Biso   1.000  H
  H58      1.0000 0.15270  0.77120  0.87740  Biso   1.000  H
  H59      1.0000 0.10120  0.73410  0.88250  Biso   1.000  H
  H60      1.0000 0.41320  0.57330  0.80990  Biso   1.000  H
  H61      1.0000 0.42960  0.57400  0.73180  Biso   1.000  H
  H62      1.0000 0.36440  0.53140  0.69960  Biso   1.000  H
  H63      1.0000 0.28480  0.48740  0.74920  Biso   1.000  H
  H64      1.0000 0.11480  0.40870  0.99770  Biso   1.000  H
  H65      1.0000 0.16850  0.37050  0.95830  Biso   1.000  H
  H66      1.0000 0.22830  0.39150  0.03050  Biso   1.000  H
  H67      1.0000 0.19630  0.34680  0.03040  Biso   1.000  H
  H68      1.0000 0.27870  0.35160  0.99220  Biso   1.000  H
  H69      1.0000 0.43800  0.43220  0.85060  Biso   1.000  H
  H70      1.0000 0.55580  0.37070  0.84130  Biso   1.000  H
  H71      1.0000 0.49890  0.36280  0.98220  Biso   1.000  H
  H72      1.0000 0.38790  0.43030  0.98550  Biso   1.000  H
  H73      1.0000 0.66310  0.32110  0.87570  Biso   1.000  H
  H74      1.0000 0.60260  0.29100  0.90260  Biso   1.000  H
  H75      1.0000 0.68360  0.71710  0.19950  Biso   1.000  H
  H76      1.0000 0.69630  0.79230  0.18990  Biso   1.000  H
  H77      1.0000 0.81270  0.80740  0.13840  Biso   1.000  H
  H78      1.0000 0.91740  0.74730  0.09530  Biso   1.000  H
  H79      1.0000 0.10370  0.50980  0.03140  Biso   1.000  H
  H80      1.0000 0.04780  0.47530  0.05410  Biso   1.000  H
  H81      1.0000 0.81130  0.16240  0.92220  Biso   1.000  H
  H82      1.0000 0.68880  0.22020  0.93240  Biso   1.000  H
  H83      1.0000 0.81510  0.31420  0.92300  Biso   1.000  H
  H84      1.0000 0.93520  0.25330  0.91290  Biso   1.000  H
  H85      1.0000 0.66690  0.34150  0.94650  Biso   1.000  H
  H86      1.0000 0.61670  0.30480  0.96960  Biso   1.000  H
  H87      1.0000 0.80560  0.64700  0.38640  Biso   1.000  H
  H88      1.0000 0.89160  0.65780  0.42620  Biso   1.000  H
  H89      1.0000 0.94960  0.59820  0.47260  Biso   1.000  H
  H90      1.0000 0.90840  0.52890  0.48310  Biso   1.000  H
  H91      1.0000 0.71590  0.37530  0.42210  Biso   1.000  H
  H92      1.0000 0.62730  0.40360  0.45380  Biso   1.000  H
  H93      1.0000 0.66450  0.39170  0.35610  Biso   1.000  H
  H94      1.0000 0.61350  0.36290  0.39450  Biso   1.000  H
  H95      1.0000 0.57520  0.41770  0.38910  Biso   1.000  H
  H96      1.0000 0.78090  0.44200  0.31580  Biso   1.000  H
  H97      1.0000 0.95270  0.47640  0.25240  Biso   1.000  H
  H98      1.0000 0.97840  0.43810  0.21270  Biso   1.000  H
  H99      1.0000 0.90560  0.48490  0.21290  Biso   1.000  H
  H100     1.0000 0.84130  0.40740  0.21620  Biso   1.000  H
  H101     1.0000 0.92390  0.37740  0.22880  Biso   1.000  H
  H102     1.0000 0.83530  0.38250  0.26590  Biso   1.000  H
  H103     1.0000 0.98650  0.30990  0.42670  Biso   1.000  H
  H104     1.0000 0.00360  0.23180  0.42600  Biso   1.000  H
  H105     1.0000 0.89580  0.19960  0.46860  Biso   1.000  H
  H106     1.0000 0.77220  0.24920  0.51260  Biso   1.000  H
  H107     1.0000 0.52350  0.49770  0.59130  Biso   1.000  H
  H108     1.0000 0.53900  0.45830  0.62950  Biso   1.000  H
  H109     1.0000 0.61980  0.53050  0.60850  Biso   1.000  H
  H110     1.0000 0.54310  0.53040  0.65320  Biso   1.000  H
  H111     1.0000 0.63030  0.49220  0.64840  Biso   1.000  H
  H112     1.0000 0.87020  0.35060  0.56780  Biso   1.000  H
  H113     1.0000 0.92650  0.34130  0.62930  Biso   1.000  H
  H114     1.0000 0.86170  0.48220  0.63720  Biso   1.000  H
  H115     1.0000 0.81820  0.48550  0.56970  Biso   1.000  H
  H116     1.0000 0.98420  0.37570  0.67890  Biso   1.000  H
  H117     1.0000 0.89360  0.40260  0.70900  Biso   1.000  H
  H118     1.0000 0.40070  0.69950  0.28290  Biso   1.000  H
  H119     1.0000 0.48860  0.68990  0.20770  Biso   1.000  H
  H120     1.0000 0.62010  0.63840  0.19260  Biso   1.000  H
  H121     1.0000 0.66470  0.59530  0.25270  Biso   1.000  H
  H122     1.0000 0.61350  0.53140  0.49020  Biso   1.000  H
  H123     1.0000 0.52310  0.55410  0.52470  Biso   1.000  H
  H124     1.0000 0.97370  0.42220  0.83760  Biso   1.000  H
  H125     1.0000 0.90900  0.43240  0.77980  Biso   1.000  H
  H126     1.0000 0.12930  0.42300  0.68580  Biso   1.000  H
  H127     1.0000 0.18850  0.41290  0.74670  Biso   1.000  H
  H128     1.0000 0.00840  0.44650  0.65850  Biso   1.000  H
  H129     1.0000 0.92150  0.46960  0.69520  Biso   1.000  H
  H130     1.0000 0.33900  0.85300  0.11360  Biso   1.000  H
  H131     1.0000 0.47560  0.84220  0.07380  Biso   1.000  H
  H132     1.0000 0.52040  0.90180  0.02740  Biso   1.000  H
  H133     1.0000 0.42040  0.97110  0.01690  Biso   1.000  H
  H134     1.0000 0.01330  0.12470  0.07790  Biso   1.000  H
  H135     1.0000 0.98470  0.09640  0.04620  Biso   1.000  H
  H136     1.0000 0.91230  0.10830  0.14390  Biso   1.000  H
  H137     1.0000 0.87090  0.13710  0.10550  Biso   1.000  H
  H138     1.0000 0.88200  0.08230  0.11090  Biso   1.000  H
  H139     1.0000 0.03870  0.05800  0.18420  Biso   1.000  H
  H140     1.0000 0.18150  0.02360  0.24760  Biso   1.000  H
  H141     1.0000 0.12920  0.06190  0.28730  Biso   1.000  H
  H142     1.0000 0.10340  0.01510  0.28710  Biso   1.000  H
  H143     1.0000 0.96490  0.09260  0.28380  Biso   1.000  H
  H144     1.0000 0.03010  0.12260  0.27120  Biso   1.000  H
  H145     1.0000 0.98370  0.11750  0.23410  Biso   1.000  H
  H146     1.0000 0.22310  0.19010  0.07330  Biso   1.000  H
  H147     1.0000 0.16140  0.26820  0.07400  Biso   1.000  H
  H148     1.0000 0.06400  0.30040  0.03140  Biso   1.000  H
  H149     1.0000 0.03400  0.25080  0.98740  Biso   1.000  H
  H150     1.0000 0.11250  0.00230  0.90870  Biso   1.000  H
  H151     1.0000 0.12680  0.04170  0.87050  Biso   1.000  H
  H152     1.0000 0.25880  0.96950  0.89150  Biso   1.000  H
  H153     1.0000 0.22670  0.96960  0.84680  Biso   1.000  H
  H154     1.0000 0.27090  0.00780  0.85160  Biso   1.000  H
  H155     1.0000 0.28860  0.14940  0.93220  Biso   1.000  H
  H156     1.0000 0.39710  0.15870  0.87070  Biso   1.000  H
  H157     1.0000 0.48110  0.01780  0.86280  Biso   1.000  H
  H158     1.0000 0.37340  0.01450  0.93030  Biso   1.000  H
  H159     1.0000 0.53880  0.12430  0.82110  Biso   1.000  H
  H160     1.0000 0.50520  0.09740  0.79100  Biso   1.000  H
  H161     1.0000 0.88310  0.80050  0.21710  Biso   1.000  H
  H162     1.0000 0.88620  0.81010  0.29230  Biso   1.000  H
  H163     1.0000 0.95110  0.86160  0.30740  Biso   1.000  H
  H164     1.0000 0.01270  0.90470  0.24730  Biso   1.000  H
  H165     1.0000 0.13510  0.96860  0.00980  Biso   1.000  H
  H166     1.0000 0.10190  0.94590  0.97530  Biso   1.000  H
  H167     1.0000 0.73350  0.07780  0.66240  Biso   1.000  H
  H168     1.0000 0.62120  0.06760  0.72020  Biso   1.000  H
  H169     1.0000 0.73810  0.07700  0.81420  Biso   1.000  H
  H170     1.0000 0.84810  0.08710  0.75330  Biso   1.000  H
  H171     1.0000 0.61340  0.05350  0.84150  Biso   1.000  H
  H172     1.0000 0.58630  0.03040  0.80480  Biso   1.000  H
  H173     1.0000 0.54740  0.11360  0.64700  Biso   1.000  H
  H174     1.0000 0.45060  0.07380  0.65780  Biso   1.000  H
  H175     1.0000 0.45220  0.02740  0.59820  Biso   1.000  H
  H176     1.0000 0.56270  0.01690  0.52890  Biso   1.000  H
  H177     1.0000 0.90880  0.07790  0.37530  Biso   1.000  H
  H178     1.0000 0.96910  0.04620  0.40360  Biso   1.000  H
  H179     1.0000 0.94380  0.14390  0.39170  Biso   1.000  H
  H180     1.0000 0.02360  0.10550  0.36290  Biso   1.000  H
  H181     1.0000 0.00710  0.11090  0.41770  Biso   1.000  H
  H182     1.0000 0.77710  0.18420  0.44200  Biso   1.000  H
  H183     1.0000 0.57090  0.24760  0.47640  Biso   1.000  H
  H184     1.0000 0.58350  0.28730  0.43810  Biso   1.000  H
  H185     1.0000 0.60950  0.28710  0.48490  Biso   1.000  H
  H186     1.0000 0.75130  0.28380  0.40740  Biso   1.000  H
  H187     1.0000 0.69870  0.27120  0.37740  Biso   1.000  H
  H188     1.0000 0.78220  0.23410  0.38250  Biso   1.000  H
  H189     1.0000 0.70360  0.07330  0.30990  Biso   1.000  H
  H190     1.0000 0.76460  0.07400  0.23180  Biso   1.000  H
  H191     1.0000 0.90460  0.03140  0.19960  Biso   1.000  H
  H192     1.0000 0.97860  0.98740  0.24920  Biso   1.000  H
  H193     1.0000 0.97880  0.90870  0.49770  Biso   1.000  H
  H194     1.0000 0.00270  0.87050  0.45830  Biso   1.000  H
  H195     1.0000 0.84970  0.89150  0.53050  Biso   1.000  H
  H196     1.0000 0.92650  0.84680  0.53040  Biso   1.000  H
  H197     1.0000 0.87750  0.85160  0.49220  Biso   1.000  H
  H198     1.0000 0.77920  0.93220  0.35060  Biso   1.000  H
  H199     1.0000 0.73220  0.87070  0.34130  Biso   1.000  H
  H200     1.0000 0.65610  0.86280  0.48220  Biso   1.000  H
  H201     1.0000 0.69630  0.93030  0.48550  Biso   1.000  H
  H202     1.0000 0.64010  0.82110  0.37570  Biso   1.000  H
  H203     1.0000 0.70380  0.79100  0.40260  Biso   1.000  H
  H204     1.0000 0.89980  0.21710  0.69950  Biso   1.000  H
  H205     1.0000 0.82150  0.29230  0.68990  Biso   1.000  H
  H206     1.0000 0.74150  0.30740  0.63840  Biso   1.000  H
  H207     1.0000 0.74000  0.24730  0.59530  Biso   1.000  H
  H208     1.0000 0.85510  0.00980  0.53140  Biso   1.000  H
  H209     1.0000 0.92280  0.97530  0.55410  Biso   1.000  H
  H210     1.0000 0.60410  0.66240  0.42220  Biso   1.000  H
  H211     1.0000 0.65860  0.72020  0.43240  Biso   1.000  H
  H212     1.0000 0.44770  0.81420  0.42300  Biso   1.000  H
  H213     1.0000 0.39860  0.75330  0.41290  Biso   1.000  H
  H214     1.0000 0.54510  0.84150  0.44650  Biso   1.000  H
  H215     1.0000 0.60890  0.80480  0.46960  Biso   1.000  H
  H216     1.0000 0.80800  0.38640  0.85300  Biso   1.000  H
  H217     1.0000 0.68220  0.42620  0.84220  Biso   1.000  H
  H218     1.0000 0.57780  0.47260  0.90180  Biso   1.000  H
  H219     1.0000 0.60850  0.48310  0.97110  Biso   1.000  H
  H220     1.0000 0.86200  0.42210  0.12470  Biso   1.000  H
  H221     1.0000 0.91890  0.45380  0.09640  Biso   1.000  H
  H222     1.0000 0.97940  0.35610  0.10830  Biso   1.000  H
  H223     1.0000 0.99200  0.39450  0.13710  Biso   1.000  H
  H224     1.0000 0.03570  0.38910  0.08230  Biso   1.000  H
  H225     1.0000 0.90330  0.31580  0.05800  Biso   1.000  H
  H226     1.0000 0.79490  0.25240  0.02360  Biso   1.000  H
  H227     1.0000 0.80890  0.21270  0.06190  Biso   1.000  H
  H228     1.0000 0.88150  0.21290  0.01510  Biso   1.000  H
  H229     1.0000 0.94250  0.21620  0.09260  Biso   1.000  H
  H230     1.0000 0.84730  0.22880  0.12260  Biso   1.000  H
  H231     1.0000 0.89880  0.26590  0.11750  Biso   1.000  H
  H232     1.0000 0.58680  0.42670  0.19010  Biso   1.000  H
  H233     1.0000 0.57040  0.42600  0.26820  Biso   1.000  H
  H234     1.0000 0.63560  0.46860  0.30040  Biso   1.000  H
  H235     1.0000 0.71520  0.51260  0.25080  Biso   1.000  H
  H236     1.0000 0.88520  0.59130  0.00230  Biso   1.000  H
  H237     1.0000 0.83150  0.62950  0.04170  Biso   1.000  H
  H238     1.0000 0.77170  0.60850  0.96950  Biso   1.000  H
  H239     1.0000 0.80370  0.65320  0.96960  Biso   1.000  H
  H240     1.0000 0.72130  0.64840  0.00780  Biso   1.000  H
  H241     1.0000 0.56200  0.56780  0.14940  Biso   1.000  H
  H242     1.0000 0.44420  0.62930  0.15870  Biso   1.000  H
  H243     1.0000 0.50110  0.63720  0.01780  Biso   1.000  H
  H244     1.0000 0.61210  0.56970  0.01450  Biso   1.000  H
  H245     1.0000 0.33690  0.67890  0.12430  Biso   1.000  H
  H246     1.0000 0.39740  0.70900  0.09740  Biso   1.000  H
  H247     1.0000 0.31640  0.28290  0.80050  Biso   1.000  H
  H248     1.0000 0.30370  0.20770  0.81010  Biso   1.000  H
  H249     1.0000 0.18730  0.19260  0.86160  Biso   1.000  H
  H250     1.0000 0.08260  0.25270  0.90470  Biso   1.000  H
  H251     1.0000 0.89630  0.49020  0.96860  Biso   1.000  H
  H252     1.0000 0.95220  0.52470  0.94590  Biso   1.000  H
  H253     1.0000 0.18870  0.83760  0.07780  Biso   1.000  H
  H254     1.0000 0.31120  0.77980  0.06760  Biso   1.000  H
  H255     1.0000 0.18490  0.68580  0.07700  Biso   1.000  H
  H256     1.0000 0.06480  0.74670  0.08710  Biso   1.000  H
  H257     1.0000 0.33310  0.65850  0.05350  Biso   1.000  H
  H258     1.0000 0.38330  0.69520  0.03040  Biso   1.000  H
  H259     1.0000 0.19440  0.35300  0.61360  Biso   1.000  H
  H260     1.0000 0.10840  0.34220  0.57380  Biso   1.000  H
  H261     1.0000 0.05040  0.40180  0.52740  Biso   1.000  H
  H262     1.0000 0.09160  0.47110  0.51690  Biso   1.000  H
  H263     1.0000 0.28410  0.62470  0.57790  Biso   1.000  H
  H264     1.0000 0.37270  0.59640  0.54620  Biso   1.000  H
  H265     1.0000 0.33550  0.60830  0.64390  Biso   1.000  H
  H266     1.0000 0.38650  0.63710  0.60550  Biso   1.000  H
  H267     1.0000 0.42480  0.58230  0.61090  Biso   1.000  H
  H268     1.0000 0.21910  0.55800  0.68420  Biso   1.000  H
  H269     1.0000 0.04730  0.52360  0.74760  Biso   1.000  H
  H270     1.0000 0.02160  0.56190  0.78730  Biso   1.000  H
  H271     1.0000 0.09440  0.51510  0.78710  Biso   1.000  H
  H272     1.0000 0.15870  0.59260  0.78380  Biso   1.000  H
  H273     1.0000 0.07610  0.62260  0.77120  Biso   1.000  H
  H274     1.0000 0.16470  0.61750  0.73410  Biso   1.000  H
  H275     1.0000 0.01350  0.69010  0.57330  Biso   1.000  H
  H276     1.0000 0.99640  0.76820  0.57400  Biso   1.000  H
  H277     1.0000 0.10420  0.80040  0.53140  Biso   1.000  H
  H278     1.0000 0.22780  0.75080  0.48740  Biso   1.000  H
  H279     1.0000 0.47650  0.50230  0.40870  Biso   1.000  H
  H280     1.0000 0.46100  0.54170  0.37050  Biso   1.000  H
  H281     1.0000 0.38020  0.46950  0.39150  Biso   1.000  H
  H282     1.0000 0.45690  0.46960  0.34680  Biso   1.000  H
  H283     1.0000 0.36970  0.50780  0.35160  Biso   1.000  H
  H284     1.0000 0.12980  0.64940  0.43220  Biso   1.000  H
  H285     1.0000 0.07350  0.65870  0.37070  Biso   1.000  H
  H286     1.0000 0.13830  0.51780  0.36280  Biso   1.000  H
  H287     1.0000 0.18180  0.51450  0.43030  Biso   1.000  H
  H288     1.0000 0.01580  0.62430  0.32110  Biso   1.000  H
  H289     1.0000 0.10640  0.59740  0.29100  Biso   1.000  H
  H290     1.0000 0.59930  0.30050  0.71710  Biso   1.000  H
  H291     1.0000 0.51140  0.31010  0.79230  Biso   1.000  H
  H292     1.0000 0.37990  0.36160  0.80740  Biso   1.000  H
  H293     1.0000 0.33530  0.40470  0.74730  Biso   1.000  H
  H294     1.0000 0.38650  0.46860  0.50980  Biso   1.000  H
  H295     1.0000 0.47690  0.44590  0.47530  Biso   1.000  H
  H296     1.0000 0.02630  0.57780  0.16240  Biso   1.000  H
  H297     1.0000 0.09100  0.56760  0.22020  Biso   1.000  H
  H298     1.0000 0.87070  0.57700  0.31420  Biso   1.000  H
  H299     1.0000 0.81150  0.58710  0.25330  Biso   1.000  H
  H300     1.0000 0.99160  0.55350  0.34150  Biso   1.000  H
  H301     1.0000 0.07850  0.53040  0.30480  Biso   1.000  H
  H302     1.0000 0.66100  0.14700  0.88640  Biso   1.000  H
  H303     1.0000 0.52440  0.15780  0.92620  Biso   1.000  H
  H304     1.0000 0.47960  0.09820  0.97260  Biso   1.000  H
  H305     1.0000 0.57960  0.02890  0.98310  Biso   1.000  H
  H306     1.0000 0.98670  0.87530  0.92210  Biso   1.000  H
  H307     1.0000 0.01530  0.90360  0.95380  Biso   1.000  H
  H308     1.0000 0.08770  0.89170  0.85610  Biso   1.000  H
  H309     1.0000 0.12910  0.86290  0.89450  Biso   1.000  H
  H310     1.0000 0.11800  0.91770  0.88910  Biso   1.000  H
  H311     1.0000 0.96130  0.94200  0.81580  Biso   1.000  H
  H312     1.0000 0.81850  0.97640  0.75240  Biso   1.000  H
  H313     1.0000 0.87080  0.93810  0.71270  Biso   1.000  H
  H314     1.0000 0.89660  0.98490  0.71290  Biso   1.000  H
  H315     1.0000 0.03510  0.90740  0.71620  Biso   1.000  H
  H316     1.0000 0.96990  0.87740  0.72880  Biso   1.000  H
  H317     1.0000 0.01630  0.88250  0.76590  Biso   1.000  H
  H318     1.0000 0.77690  0.80990  0.92670  Biso   1.000  H
  H319     1.0000 0.83860  0.73180  0.92600  Biso   1.000  H
  H320     1.0000 0.93600  0.69960  0.96860  Biso   1.000  H
  H321     1.0000 0.96600  0.74920  0.01260  Biso   1.000  H
  H322     1.0000 0.88750  0.99770  0.09130  Biso   1.000  H
  H323     1.0000 0.87320  0.95830  0.12950  Biso   1.000  H
  H324     1.0000 0.74120  0.03050  0.10850  Biso   1.000  H
  H325     1.0000 0.77330  0.03040  0.15320  Biso   1.000  H
  H326     1.0000 0.72910  0.99220  0.14840  Biso   1.000  H
  H327     1.0000 0.71140  0.85060  0.06780  Biso   1.000  H
  H328     1.0000 0.60290  0.84130  0.12930  Biso   1.000  H
  H329     1.0000 0.51890  0.98220  0.13720  Biso   1.000  H
  H330     1.0000 0.62660  0.98550  0.06970  Biso   1.000  H
  H331     1.0000 0.46120  0.87570  0.17890  Biso   1.000  H
  H332     1.0000 0.49480  0.90260  0.20900  Biso   1.000  H
  H333     1.0000 0.11690  0.19950  0.78290  Biso   1.000  H
  H334     1.0000 0.11380  0.18990  0.70770  Biso   1.000  H
  H335     1.0000 0.04890  0.13840  0.69260  Biso   1.000  H
  H336     1.0000 0.98730  0.09530  0.75270  Biso   1.000  H
  H337     1.0000 0.86490  0.03140  0.99020  Biso   1.000  H
  H338     1.0000 0.89810  0.05410  0.02470  Biso   1.000  H
  H339     1.0000 0.26650  0.92220  0.33760  Biso   1.000  H
  H340     1.0000 0.37880  0.93240  0.27980  Biso   1.000  H
  H341     1.0000 0.26190  0.92300  0.18580  Biso   1.000  H
  H342     1.0000 0.15190  0.91290  0.24670  Biso   1.000  H
  H343     1.0000 0.38660  0.94650  0.15850  Biso   1.000  H
  H344     1.0000 0.41370  0.96960  0.19520  Biso   1.000  H
  C1       1.0000 0.38512  0.90904  0.41872  Biso   1.000  C
  C2       1.0000 0.44945  0.90566  0.37724  Biso   1.000  C
  C3       1.0000 0.50731  0.92912  0.37086  Biso   1.000  C
  C4       1.0000 0.50573  0.95748  0.40586  Biso   1.000  C
  C5       1.0000 0.44034  0.96312  0.44740  Biso   1.000  C
  C6       1.0000 0.38049  0.93975  0.45387  Biso   1.000  C
  C7       1.0000 0.31263  0.94851  0.49703  Biso   1.000  C
  C8       1.0000 0.13955  0.91497  0.55447  Biso   1.000  C
  C9       1.0000 0.06902  0.92245  0.59791  Biso   1.000  C
  C10      1.0000 0.01930  0.88741  0.60719  Biso   1.000  C
  C11      1.0000 0.27853  0.80019  0.54215  Biso   1.000  C
  C12      1.0000 0.39347  0.73249  0.53857  Biso   1.000  C
  C13      1.0000 0.26660  0.74124  0.60156  Biso   1.000  C
  C14      1.0000 0.19745  0.97126  0.67164  Biso   1.000  C
  C15      1.0000 0.24044  0.94463  0.70229  Biso   1.000  C
  C16      1.0000 0.20432  0.94391  0.74845  Biso   1.000  C
  C17      1.0000 0.12097  0.96934  0.76792  Biso   1.000  C
  C18      1.0000 0.07768  0.99539  0.73825  Biso   1.000  C
  C19      1.0000 0.11444  0.99701  0.69051  Biso   1.000  C
  C20      1.0000 0.06397  0.02826  0.66208  Biso   1.000  C
  C21      1.0000 0.08463  0.07013  0.55121  Biso   1.000  C
  C22      1.0000 0.04419  0.10629  0.52133  Biso   1.000  C
  C23      1.0000 0.10284  0.13132  0.48920  Biso   1.000  C
  C24      1.0000 0.25032  0.08061  0.62215  Biso   1.000  C
  C25      1.0000 0.27696  0.11814  0.62834  Biso   1.000  C
  C26      1.0000 0.31483  0.13767  0.59167  Biso   1.000  C
  C27      1.0000 0.32249  0.12157  0.54525  Biso   1.000  C
  C28      1.0000 0.29657  0.08224  0.54382  Biso   1.000  C
  C29      1.0000 0.34403  0.18107  0.59507  Biso   1.000  C
  C30      1.0000 0.13192  0.81451  0.34705  Biso   1.000  C
  C31      1.0000 0.13252  0.77730  0.32186  Biso   1.000  C
  C32      1.0000 0.17921  0.73243  0.32755  Biso   1.000  C
  C33      1.0000 0.22638  0.72344  0.35800  Biso   1.000  C
  C34      1.0000 0.22722  0.75926  0.38350  Biso   1.000  C
  C35      1.0000 0.18038  0.80543  0.37857  Biso   1.000  C
  C36      1.0000 0.18439  0.84184  0.40682  Biso   1.000  C
  C37      1.0000 0.12621  0.96059  0.41539  Biso   1.000  C
  C38      1.0000 0.13086  0.00027  0.43901  Biso   1.000  C
  C39      1.0000 0.42881  0.30626  0.57732  Biso   1.000  C
  C40      1.0000 0.39606  0.27190  0.57078  Biso   1.000  C
  C41      1.0000 0.44176  0.22665  0.56883  Biso   1.000  C
  C42      1.0000 0.51938  0.21696  0.57628  Biso   1.000  C
  C43      1.0000 0.54777  0.25359  0.58267  Biso   1.000  C
  C44      1.0000 0.40929  0.18773  0.55909  Biso   1.000  C
  C45      1.0000 0.21288  0.59096  0.08128  Biso   1.000  C
  C46      1.0000 0.23235  0.59434  0.12276  Biso   1.000  C
  C47      1.0000 0.30729  0.57088  0.12914  Biso   1.000  C
  C48      1.0000 0.36907  0.54252  0.09414  Biso   1.000  C
  C49      1.0000 0.35086  0.53688  0.05260  Biso   1.000  C
  C50      1.0000 0.27411  0.56025  0.04613  Biso   1.000  C
  C51      1.0000 0.25817  0.55149  0.00297  Biso   1.000  C
  C52      1.0000 0.10899  0.58503  0.94553  Biso   1.000  C
  C53      1.0000 0.08938  0.57755  0.90209  Biso   1.000  C
  C54      1.0000 0.01390  0.61259  0.89281  Biso   1.000  C
  C55      1.0000 0.12087  0.69981  0.95785  Biso   1.000  C
  C56      1.0000 0.16453  0.76751  0.96143  Biso   1.000  C
  C57      1.0000 0.10940  0.75876  0.89844  Biso   1.000  C
  C58      1.0000 0.34035  0.52874  0.82836  Biso   1.000  C
  C59      1.0000 0.38736  0.55537  0.79771  Biso   1.000  C
  C60      1.0000 0.39668  0.55609  0.75155  Biso   1.000  C
  C61      1.0000 0.35823  0.53066  0.73208  Biso   1.000  C
  C62      1.0000 0.31132  0.50461  0.76175  Biso   1.000  C
  C63      1.0000 0.30196  0.50299  0.80949  Biso   1.000  C
  C64      1.0000 0.25431  0.47174  0.83792  Biso   1.000  C
  C65      1.0000 0.20597  0.42987  0.94879  Biso   1.000  C
  C66      1.0000 0.17181  0.39371  0.97867  Biso   1.000  C
  C67      1.0000 0.22336  0.36868  0.01080  Biso   1.000  C
  C68      1.0000 0.45308  0.41939  0.87785  Biso   1.000  C
  C69      1.0000 0.52344  0.38186  0.87166  Biso   1.000  C
  C70      1.0000 0.54417  0.36233  0.90833  Biso   1.000  C
  C71      1.0000 0.48931  0.37843  0.95475  Biso   1.000  C
  C72      1.0000 0.42263  0.41776  0.95618  Biso   1.000  C
  C73      1.0000 0.62017  0.31893  0.90493  Biso   1.000  C
  C74      1.0000 0.79348  0.68549  0.15295  Biso   1.000  C
  C75      1.0000 0.73168  0.72270  0.17814  Biso   1.000  C
  C76      1.0000 0.73919  0.76757  0.17245  Biso   1.000  C
  C77      1.0000 0.80782  0.77656  0.14200  Biso   1.000  C
  C78      1.0000 0.86998  0.74074  0.11650  Biso   1.000  C
  C79      1.0000 0.86438  0.69457  0.12143  Biso   1.000  C
  C80      1.0000 0.93305  0.65816  0.09318  Biso   1.000  C
  C81      1.0000 0.00219  0.53941  0.08461  Biso   1.000  C
  C82      1.0000 0.07014  0.49973  0.06099  Biso   1.000  C
  C83      1.0000 0.81239  0.19374  0.92268  Biso   1.000  C
  C84      1.0000 0.73874  0.22810  0.92922  Biso   1.000  C
  C85      1.0000 0.73724  0.27335  0.93117  Biso   1.000  C
  C86      1.0000 0.81262  0.28304  0.92372  Biso   1.000  C
  C87      1.0000 0.88403  0.24641  0.91733  Biso   1.000  C
  C88      1.0000 0.65611  0.31227  0.94091  Biso   1.000  C
  C89      1.0000 0.80384  0.58128  0.40904  Biso   1.000  C
  C90      1.0000 0.82669  0.62276  0.40566  Biso   1.000  C
  C91      1.0000 0.87817  0.62914  0.42912  Biso   1.000  C
  C92      1.0000 0.91159  0.59414  0.45748  Biso   1.000  C
  C93      1.0000 0.88774  0.55260  0.46312  Biso   1.000  C
  C94      1.0000 0.83436  0.54613  0.43975  Biso   1.000  C
  C95      1.0000 0.80966  0.50297  0.44851  Biso   1.000  C
  C96      1.0000 0.69402  0.44553  0.41497  Biso   1.000  C
  C97      1.0000 0.66693  0.40209  0.42245  Biso   1.000  C
  C98      1.0000 0.62649  0.39281  0.38741  Biso   1.000  C
  C99      1.0000 0.82068  0.45785  0.30019  Biso   1.000  C
  C100     1.0000 0.93204  0.46143  0.23249  Biso   1.000  C
  C101     1.0000 0.86816  0.39844  0.24124  Biso   1.000  C
  C102     1.0000 0.86909  0.32836  0.47126  Biso   1.000  C
  C103     1.0000 0.94273  0.29771  0.44463  Biso   1.000  C
  C104     1.0000 0.95277  0.25155  0.44391  Biso   1.000  C
  C105     1.0000 0.88889  0.23208  0.46934  Biso   1.000  C
  C106     1.0000 0.81593  0.26175  0.49539  Biso   1.000  C
  C107     1.0000 0.80495  0.30949  0.49701  Biso   1.000  C
  C108     1.0000 0.72605  0.33792  0.52826  Biso   1.000  C
  C109     1.0000 0.63584  0.44879  0.57013  Biso   1.000  C
  C110     1.0000 0.56552  0.47867  0.60629  Biso   1.000  C
  C111     1.0000 0.59204  0.51080  0.63132  Biso   1.000  C
  C112     1.0000 0.87247  0.37785  0.58061  Biso   1.000  C
  C113     1.0000 0.90530  0.37166  0.61814  Biso   1.000  C
  C114     1.0000 0.90650  0.40833  0.63767  Biso   1.000  C
  C115     1.0000 0.86774  0.45475  0.62157  Biso   1.000  C
  C116     1.0000 0.84039  0.45618  0.58224  Biso   1.000  C
  C117     1.0000 0.93910  0.40493  0.68107  Biso   1.000  C
  C118     1.0000 0.47897  0.65295  0.31451  Biso   1.000  C
  C119     1.0000 0.45438  0.67814  0.27730  Biso   1.000  C
  C120     1.0000 0.50676  0.67245  0.23243  Biso   1.000  C
  C121     1.0000 0.58438  0.64200  0.22344  Biso   1.000  C
  C122     1.0000 0.61072  0.61650  0.25926  Biso   1.000  C
  C123     1.0000 0.55895  0.62143  0.30543  Biso   1.000  C
  C124     1.0000 0.59121  0.59318  0.34184  Biso   1.000  C
  C125     1.0000 0.54160  0.58461  0.46059  Biso   1.000  C
  C126     1.0000 0.56987  0.56099  0.50027  Biso   1.000  C
  C127     1.0000 0.00613  0.42268  0.80626  Biso   1.000  C
  C128     1.0000 0.96684  0.42922  0.77190  Biso   1.000  C
  C129     1.0000 0.01059  0.43117  0.72665  Biso   1.000  C
  C130     1.0000 0.09566  0.42372  0.71696  Biso   1.000  C
  C131     1.0000 0.13044  0.41733  0.75359  Biso   1.000  C
  C132     1.0000 0.96838  0.44091  0.68773  Biso   1.000  C
  C133     1.0000 0.29416  0.91872  0.09096  Biso   1.000  C
  C134     1.0000 0.35511  0.87724  0.09434  Biso   1.000  C
  C135     1.0000 0.43643  0.87086  0.07088  Biso   1.000  C
  C136     1.0000 0.46321  0.90586  0.04252  Biso   1.000  C
  C137     1.0000 0.40346  0.94740  0.03688  Biso   1.000  C
  C138     1.0000 0.32024  0.95387  0.06025  Biso   1.000  C
  C139     1.0000 0.26114  0.99703  0.05149  Biso   1.000  C
  C140     1.0000 0.05452  0.05447  0.08503  Biso   1.000  C
  C141     1.0000 0.99147  0.09791  0.07755  Biso   1.000  C
  C142     1.0000 0.90671  0.10719  0.11259  Biso   1.000  C
  C143     1.0000 0.07872  0.04215  0.19981  Biso   1.000  C
  C144     1.0000 0.12596  0.03857  0.26751  Biso   1.000  C
  C145     1.0000 0.00784  0.10156  0.25876  Biso   1.000  C
  C146     1.0000 0.16871  0.17164  0.02874  Biso   1.000  C
  C147     1.0000 0.18507  0.20229  0.05537  Biso   1.000  C
  C148     1.0000 0.14823  0.24845  0.05609  Biso   1.000  C
  C149     1.0000 0.09031  0.26792  0.03066  Biso   1.000  C
  C150     1.0000 0.07307  0.23825  0.00461  Biso   1.000  C
  C151     1.0000 0.11145  0.19051  0.00299  Biso   1.000  C
  C152     1.0000 0.09223  0.16208  0.97174  Biso   1.000  C
  C153     1.0000 0.15476  0.05121  0.92987  Biso   1.000  C
  C154     1.0000 0.15048  0.02133  0.89371  Biso   1.000  C
  C155     1.0000 0.23416  0.98920  0.86868  Biso   1.000  C
  C156     1.0000 0.33093  0.12215  0.91939  Biso   1.000  C
  C157     1.0000 0.39510  0.12834  0.88186  Biso   1.000  C
  C158     1.0000 0.45250  0.09167  0.86233  Biso   1.000  C
  C159     1.0000 0.44406  0.04525  0.87843  Biso   1.000  C
  C160     1.0000 0.37881  0.04382  0.91776  Biso   1.000  C
  C161     1.0000 0.52510  0.09507  0.81893  Biso   1.000  C
  C162     1.0000 0.94643  0.84705  0.18549  Biso   1.000  C
  C163     1.0000 0.90982  0.82186  0.22270  Biso   1.000  C
  C164     1.0000 0.91164  0.82755  0.26757  Biso   1.000  C
  C165     1.0000 0.94982  0.85800  0.27656  Biso   1.000  C
  C166     1.0000 0.98648  0.88350  0.24074  Biso   1.000  C
  C167     1.0000 0.98581  0.87857  0.19457  Biso   1.000  C
  C168     1.0000 0.02623  0.90682  0.15816  Biso   1.000  C
  C169     1.0000 0.08680  0.91539  0.03941  Biso   1.000  C
  C170     1.0000 0.13113  0.93901  0.99973  Biso   1.000  C
  C171     1.0000 0.73507  0.07732  0.69374  Biso   1.000  C
  C172     1.0000 0.66796  0.07078  0.72810  Biso   1.000  C
  C173     1.0000 0.66841  0.06883  0.77335  Biso   1.000  C
  C174     1.0000 0.73634  0.07628  0.78304  Biso   1.000  C
  C175     1.0000 0.80136  0.08267  0.74641  Biso   1.000  C
  C176     1.0000 0.59702  0.05909  0.81227  Biso   1.000  C
  C177     1.0000 0.61488  0.09096  0.58128  Biso   1.000  C
  C178     1.0000 0.55055  0.09434  0.62276  Biso   1.000  C
  C179     1.0000 0.49269  0.07088  0.62914  Biso   1.000  C
  C180     1.0000 0.49427  0.04252  0.59414  Biso   1.000  C
  C181     1.0000 0.55966  0.03688  0.55260  Biso   1.000  C
  C182     1.0000 0.61951  0.06025  0.54613  Biso   1.000  C
  C183     1.0000 0.68737  0.05149  0.50297  Biso   1.000  C
  C184     1.0000 0.86045  0.08503  0.44553  Biso   1.000  C
  C185     1.0000 0.93098  0.07755  0.40209  Biso   1.000  C
  C186     1.0000 0.98070  0.11259  0.39281  Biso   1.000  C
  C187     1.0000 0.72147  0.19981  0.45785  Biso   1.000  C
  C188     1.0000 0.60653  0.26751  0.46143  Biso   1.000  C
  C189     1.0000 0.73340  0.25876  0.39844  Biso   1.000  C
  C190     1.0000 0.80255  0.02874  0.32836  Biso   1.000  C
  C191     1.0000 0.75956  0.05537  0.29771  Biso   1.000  C
  C192     1.0000 0.79568  0.05609  0.25155  Biso   1.000  C
  C193     1.0000 0.87903  0.03066  0.23208  Biso   1.000  C
  C194     1.0000 0.92232  0.00461  0.26175  Biso   1.000  C
  C195     1.0000 0.88556  0.00299  0.30949  Biso   1.000  C
  C196     1.0000 0.93603  0.97174  0.33792  Biso   1.000  C
  C197     1.0000 0.91537  0.92987  0.44879  Biso   1.000  C
  C198     1.0000 0.95581  0.89371  0.47867  Biso   1.000  C
  C199     1.0000 0.89716  0.86868  0.51080  Biso   1.000  C
  C200     1.0000 0.74968  0.91939  0.37785  Biso   1.000  C
  C201     1.0000 0.72304  0.88186  0.37166  Biso   1.000  C
  C202     1.0000 0.68517  0.86233  0.40833  Biso   1.000  C
  C203     1.0000 0.67751  0.87843  0.45475  Biso   1.000  C
  C204     1.0000 0.70343  0.91776  0.45618  Biso   1.000  C
  C205     1.0000 0.65597  0.81893  0.40493  Biso   1.000  C
  C206     1.0000 0.86808  0.18549  0.65295  Biso   1.000  C
  C207     1.0000 0.86748  0.22270  0.67814  Biso   1.000  C
  C208     1.0000 0.82079  0.26757  0.67245  Biso   1.000  C
  C209     1.0000 0.77362  0.27656  0.64200  Biso   1.000  C
  C210     1.0000 0.77278  0.24074  0.61650  Biso   1.000  C
  C211     1.0000 0.81962  0.19457  0.62143  Biso   1.000  C
  C212     1.0000 0.81561  0.15816  0.59318  Biso   1.000  C
  C213     1.0000 0.87379  0.03941  0.58461  Biso   1.000  C
  C214     1.0000 0.86914  0.99973  0.56099  Biso   1.000  C
  C215     1.0000 0.57119  0.69374  0.42268  Biso   1.000  C
  C216     1.0000 0.60394  0.72810  0.42922  Biso   1.000  C
  C217     1.0000 0.55824  0.77335  0.43117  Biso   1.000  C
  C218     1.0000 0.48062  0.78304  0.42372  Biso   1.000  C
  C219     1.0000 0.45223  0.74641  0.41733  Biso   1.000  C
  C220     1.0000 0.59071  0.81227  0.44091  Biso   1.000  C
  C221     1.0000 0.78712  0.40904  0.91872  Biso   1.000  C
  C222     1.0000 0.76765  0.40566  0.87724  Biso   1.000  C
  C223     1.0000 0.69271  0.42912  0.87086  Biso   1.000  C
  C224     1.0000 0.63093  0.45748  0.90586  Biso   1.000  C
  C225     1.0000 0.64914  0.46312  0.94740  Biso   1.000  C
  C226     1.0000 0.72589  0.43975  0.95387  Biso   1.000  C
  C227     1.0000 0.74183  0.44851  0.99703  Biso   1.000  C
  C228     1.0000 0.89101  0.41497  0.05447  Biso   1.000  C
  C229     1.0000 0.91062  0.42245  0.09791  Biso   1.000  C
  C230     1.0000 0.98610  0.38741  0.10719  Biso   1.000  C
  C231     1.0000 0.87913  0.30019  0.04215  Biso   1.000  C
  C232     1.0000 0.83547  0.23249  0.03857  Biso   1.000  C
  C233     1.0000 0.89060  0.24124  0.10156  Biso   1.000  C
  C234     1.0000 0.65965  0.47126  0.17164  Biso   1.000  C
  C235     1.0000 0.61264  0.44463  0.20229  Biso   1.000  C
  C236     1.0000 0.60332  0.44391  0.24845  Biso   1.000  C
  C237     1.0000 0.64177  0.46934  0.26792  Biso   1.000  C
  C238     1.0000 0.68868  0.49539  0.23825  Biso   1.000  C
  C239     1.0000 0.69804  0.49701  0.19051  Biso   1.000  C
  C240     1.0000 0.74569  0.52826  0.16208  Biso   1.000  C
  C241     1.0000 0.79403  0.57013  0.05121  Biso   1.000  C
  C242     1.0000 0.82819  0.60629  0.02133  Biso   1.000  C
  C243     1.0000 0.77664  0.63132  0.98920  Biso   1.000  C
  C244     1.0000 0.54692  0.58061  0.12215  Biso   1.000  C
  C245     1.0000 0.47656  0.61814  0.12834  Biso   1.000  C
  C246     1.0000 0.45583  0.63767  0.09167  Biso   1.000  C
  C247     1.0000 0.51069  0.62157  0.04525  Biso   1.000  C
  C248     1.0000 0.57737  0.58224  0.04382  Biso   1.000  C
  C249     1.0000 0.37983  0.68107  0.09507  Biso   1.000  C
  C250     1.0000 0.20652  0.31451  0.84705  Biso   1.000  C
  C251     1.0000 0.26832  0.27730  0.82186  Biso   1.000  C
  C252     1.0000 0.26081  0.23243  0.82755  Biso   1.000  C
  C253     1.0000 0.19218  0.22344  0.85800  Biso   1.000  C
  C254     1.0000 0.13002  0.25926  0.88350  Biso   1.000  C
  C255     1.0000 0.13562  0.30543  0.87857  Biso   1.000  C
  C256     1.0000 0.06695  0.34184  0.90682  Biso   1.000  C
  C257     1.0000 0.99781  0.46059  0.91539  Biso   1.000  C
  C258     1.0000 0.92986  0.50027  0.93901  Biso   1.000  C
  C259     1.0000 0.18761  0.80626  0.07732  Biso   1.000  C
  C260     1.0000 0.26126  0.77190  0.07078  Biso   1.000  C
  C261     1.0000 0.26276  0.72665  0.06883  Biso   1.000  C
  C262     1.0000 0.18738  0.71696  0.07628  Biso   1.000  C
  C263     1.0000 0.11597  0.75359  0.08267  Biso   1.000  C
  C264     1.0000 0.34389  0.68773  0.05909  Biso   1.000  C
  C265     1.0000 0.19616  0.41872  0.59096  Biso   1.000  C
  C266     1.0000 0.17331  0.37724  0.59434  Biso   1.000  C
  C267     1.0000 0.12183  0.37086  0.57088  Biso   1.000  C
  C268     1.0000 0.08841  0.40586  0.54252  Biso   1.000  C
  C269     1.0000 0.11226  0.44740  0.53688  Biso   1.000  C
  C270     1.0000 0.16564  0.45387  0.56025  Biso   1.000  C
  C271     1.0000 0.19034  0.49703  0.55149  Biso   1.000  C
  C272     1.0000 0.30598  0.55447  0.58503  Biso   1.000  C
  C273     1.0000 0.33307  0.59791  0.57755  Biso   1.000  C
  C274     1.0000 0.37351  0.60719  0.61259  Biso   1.000  C
  C275     1.0000 0.17932  0.54215  0.69981  Biso   1.000  C
  C276     1.0000 0.06796  0.53857  0.76751  Biso   1.000  C
  C277     1.0000 0.13184  0.60156  0.75876  Biso   1.000  C
  C278     1.0000 0.13091  0.67164  0.52874  Biso   1.000  C
  C279     1.0000 0.05727  0.70229  0.55537  Biso   1.000  C
  C280     1.0000 0.04723  0.74845  0.55609  Biso   1.000  C
  C281     1.0000 0.11111  0.76792  0.53066  Biso   1.000  C
  C282     1.0000 0.18407  0.73825  0.50461  Biso   1.000  C
  C283     1.0000 0.19505  0.69051  0.50299  Biso   1.000  C
  C284     1.0000 0.27395  0.66208  0.47174  Biso   1.000  C
  C285     1.0000 0.36416  0.55121  0.42987  Biso   1.000  C
  C286     1.0000 0.43448  0.52133  0.39371  Biso   1.000  C
  C287     1.0000 0.40796  0.48920  0.36868  Biso   1.000  C
  C288     1.0000 0.12753  0.62215  0.41939  Biso   1.000  C
  C289     1.0000 0.09470  0.62834  0.38186  Biso   1.000  C
  C290     1.0000 0.09350  0.59167  0.36233  Biso   1.000  C
  C291     1.0000 0.13226  0.54525  0.37843  Biso   1.000  C
  C292     1.0000 0.15961  0.54382  0.41776  Biso   1.000  C
  C293     1.0000 0.06090  0.59507  0.31893  Biso   1.000  C
  C294     1.0000 0.52103  0.34705  0.68549  Biso   1.000  C
  C295     1.0000 0.54562  0.32186  0.72270  Biso   1.000  C
  C296     1.0000 0.49324  0.32755  0.76757  Biso   1.000  C
  C297     1.0000 0.41562  0.35800  0.77656  Biso   1.000  C
  C298     1.0000 0.38928  0.38350  0.74074  Biso   1.000  C
  C299     1.0000 0.44105  0.37857  0.69457  Biso   1.000  C
  C300     1.0000 0.40879  0.40682  0.65816  Biso   1.000  C
  C301     1.0000 0.45840  0.41539  0.53941  Biso   1.000  C
  C302     1.0000 0.43013  0.43901  0.49973  Biso   1.000  C
  C303     1.0000 0.99387  0.57732  0.19374  Biso   1.000  C
  C304     1.0000 0.03316  0.57078  0.22810  Biso   1.000  C
  C305     1.0000 0.98941  0.56883  0.27335  Biso   1.000  C
  C306     1.0000 0.90434  0.57628  0.28304  Biso   1.000  C
  C307     1.0000 0.86956  0.58267  0.24641  Biso   1.000  C
  C308     1.0000 0.03162  0.55909  0.31227  Biso   1.000  C
  C309     1.0000 0.70584  0.08128  0.90904  Biso   1.000  C
  C310     1.0000 0.64489  0.12276  0.90566  Biso   1.000  C
  C311     1.0000 0.56357  0.12914  0.92912  Biso   1.000  C
  C312     1.0000 0.53679  0.09414  0.95748  Biso   1.000  C
  C313     1.0000 0.59654  0.05260  0.96312  Biso   1.000  C
  C314     1.0000 0.67976  0.04613  0.93975  Biso   1.000  C
  C315     1.0000 0.73886  0.00297  0.94851  Biso   1.000  C
  C316     1.0000 0.94548  0.94553  0.91497  Biso   1.000  C
  C317     1.0000 0.00853  0.90209  0.92245  Biso   1.000  C
  C318     1.0000 0.09329  0.89281  0.88741  Biso   1.000  C
  C319     1.0000 0.92128  0.95785  0.80019  Biso   1.000  C
  C320     1.0000 0.87404  0.96143  0.73249  Biso   1.000  C
  C321     1.0000 0.99216  0.89844  0.74124  Biso   1.000  C
  C322     1.0000 0.83129  0.82836  0.97126  Biso   1.000  C
  C323     1.0000 0.81493  0.79771  0.94463  Biso   1.000  C
  C324     1.0000 0.85177  0.75155  0.94391  Biso   1.000  C
  C325     1.0000 0.90969  0.73208  0.96934  Biso   1.000  C
  C326     1.0000 0.92693  0.76175  0.99539  Biso   1.000  C
  C327     1.0000 0.88855  0.80949  0.99701  Biso   1.000  C
  C328     1.0000 0.90777  0.83792  0.02826  Biso   1.000  C
  C329     1.0000 0.84524  0.94879  0.07013  Biso   1.000  C
  C330     1.0000 0.84952  0.97867  0.10629  Biso   1.000  C
  C331     1.0000 0.76584  0.01080  0.13132  Biso   1.000  C
  C332     1.0000 0.66907  0.87785  0.08061  Biso   1.000  C
  C333     1.0000 0.60490  0.87166  0.11814  Biso   1.000  C
  C334     1.0000 0.54750  0.90833  0.13767  Biso   1.000  C
  C335     1.0000 0.55594  0.95475  0.12157  Biso   1.000  C
  C336     1.0000 0.62119  0.95618  0.08224  Biso   1.000  C
  C337     1.0000 0.47490  0.90493  0.18107  Biso   1.000  C
  C338     1.0000 0.05357  0.15295  0.81451  Biso   1.000  C
  C339     1.0000 0.09018  0.17814  0.77730  Biso   1.000  C
  C340     1.0000 0.08836  0.17245  0.73243  Biso   1.000  C
  C341     1.0000 0.05018  0.14200  0.72344  Biso   1.000  C
  C342     1.0000 0.01352  0.11650  0.75926  Biso   1.000  C
  C343     1.0000 0.01419  0.12143  0.80543  Biso   1.000  C
  C344     1.0000 0.97377  0.09318  0.84184  Biso   1.000  C
  C345     1.0000 0.91320  0.08461  0.96059  Biso   1.000  C
  C346     1.0000 0.86887  0.06099  0.00027  Biso   1.000  C
  C347     1.0000 0.26493  0.92268  0.30626  Biso   1.000  C
  C348     1.0000 0.33204  0.92922  0.27190  Biso   1.000  C
  C349     1.0000 0.33159  0.93117  0.22665  Biso   1.000  C
  C350     1.0000 0.26366  0.92372  0.21696  Biso   1.000  C
  C351     1.0000 0.19864  0.91733  0.25359  Biso   1.000  C
  C352     1.0000 0.40298  0.94091  0.18773  Biso   1.000  C
  N1       1.0000 0.25450  0.92716  0.50520  Biso   1.000  N
  N2       1.0000 0.19228  0.93956  0.54756  Biso   1.000  N
  N3       1.0000 0.31410  0.76019  0.56021  Biso   1.000  N
  N4       1.0000 0.09845  0.03362  0.61754  Biso   1.000  N
  N5       1.0000 0.04756  0.06821  0.59523  Biso   1.000  N
  N6       1.0000 0.26152  0.06135  0.58281  Biso   1.000  N
  N7       1.0000 0.14749  0.88596  0.39976  Biso   1.000  N
  N8       1.0000 0.15856  0.91807  0.42779  Biso   1.000  N
  N9       1.0000 0.50410  0.29801  0.58297  Biso   1.000  N
  N10      1.0000 0.18686  0.57284  0.99480  Biso   1.000  N
  N11      1.0000 0.17940  0.56044  0.95244  Biso   1.000  N
  N12      1.0000 0.13450  0.73981  0.93979  Biso   1.000  N
  N13      1.0000 0.24961  0.46638  0.88246  Biso   1.000  N
  N14      1.0000 0.21100  0.43179  0.90477  Biso   1.000  N
  N15      1.0000 0.40568  0.43865  0.91719  Biso   1.000  N
  N16      1.0000 0.93321  0.61404  0.10024  Biso   1.000  N
  N17      1.0000 0.00442  0.58193  0.07221  Biso   1.000  N
  N18      1.0000 0.88508  0.20199  0.91703  Biso   1.000  N
  N19      1.0000 0.75970  0.49480  0.42716  Biso   1.000  N
  N20      1.0000 0.73984  0.45244  0.43956  Biso   1.000  N
  N21      1.0000 0.87431  0.43979  0.26019  Biso   1.000  N
  N22      1.0000 0.71599  0.38246  0.53362  Biso   1.000  N
  N23      1.0000 0.64279  0.40477  0.56821  Biso   1.000  N
  N24      1.0000 0.84433  0.41719  0.56135  Biso   1.000  N
  N25      1.0000 0.54725  0.60024  0.38596  Biso   1.000  N
  N26      1.0000 0.58635  0.57221  0.41807  Biso   1.000  N
  N27      1.0000 0.08707  0.41703  0.79801  Biso   1.000  N
  N28      1.0000 0.18166  0.00520  0.07284  Biso   1.000  N
  N29      1.0000 0.13184  0.04756  0.06044  Biso   1.000  N
  N30      1.0000 0.07429  0.06021  0.23981  Biso   1.000  N
  N31      1.0000 0.13207  0.11754  0.96638  Biso   1.000  N
  N32      1.0000 0.11577  0.09523  0.93179  Biso   1.000  N
  N33      1.0000 0.32287  0.08281  0.93865  Biso   1.000  N
  N34      1.0000 0.03345  0.89976  0.11404  Biso   1.000  N
  N35      1.0000 0.07663  0.92779  0.08193  Biso   1.000  N
  N36      1.0000 0.80211  0.08297  0.70199  Biso   1.000  N
  N37      1.0000 0.74550  0.07284  0.49480  Biso   1.000  N
  N38      1.0000 0.80772  0.06044  0.45244  Biso   1.000  N
  N39      1.0000 0.68590  0.23981  0.43979  Biso   1.000  N
  N40      1.0000 0.90155  0.96638  0.38246  Biso   1.000  N
  N41      1.0000 0.95244  0.93179  0.40477  Biso   1.000  N
  N42      1.0000 0.73848  0.93865  0.41719  Biso   1.000  N
  N43      1.0000 0.85251  0.11404  0.60024  Biso   1.000  N
  N44      1.0000 0.84144  0.08193  0.57221  Biso   1.000  N
  N45      1.0000 0.49590  0.70199  0.41703  Biso   1.000  N
  N46      1.0000 0.81314  0.42716  0.00520  Biso   1.000  N
  N47      1.0000 0.82060  0.43956  0.04756  Biso   1.000  N
  N48      1.0000 0.86550  0.26019  0.06021  Biso   1.000  N
  N49      1.0000 0.75039  0.53362  0.11754  Biso   1.000  N
  N50      1.0000 0.78900  0.56821  0.09523  Biso   1.000  N
  N51      1.0000 0.59432  0.56135  0.08281  Biso   1.000  N
  N52      1.0000 0.06679  0.38596  0.89976  Biso   1.000  N
  N53      1.0000 0.99558  0.41807  0.92779  Biso   1.000  N
  N54      1.0000 0.11492  0.79801  0.08297  Biso   1.000  N
  N55      1.0000 0.24030  0.50520  0.57284  Biso   1.000  N
  N56      1.0000 0.26016  0.54756  0.56044  Biso   1.000  N
  N57      1.0000 0.12569  0.56021  0.73981  Biso   1.000  N
  N58      1.0000 0.28401  0.61754  0.46638  Biso   1.000  N
  N59      1.0000 0.35721  0.59523  0.43179  Biso   1.000  N
  N60      1.0000 0.15567  0.58281  0.43865  Biso   1.000  N
  N61      1.0000 0.45275  0.39976  0.61404  Biso   1.000  N
  N62      1.0000 0.41365  0.42779  0.58193  Biso   1.000  N
  N63      1.0000 0.91293  0.58297  0.20199  Biso   1.000  N
  N64      1.0000 0.81834  0.99480  0.92716  Biso   1.000  N
  N65      1.0000 0.86816  0.95244  0.93956  Biso   1.000  N
  N66      1.0000 0.92571  0.93979  0.76019  Biso   1.000  N
  N67      1.0000 0.86793  0.88246  0.03362  Biso   1.000  N
  N68      1.0000 0.88423  0.90477  0.06821  Biso   1.000  N
  N69      1.0000 0.67713  0.91719  0.06135  Biso   1.000  N
  N70      1.0000 0.96655  0.10024  0.88596  Biso   1.000  N
  N71      1.0000 0.92337  0.07221  0.91807  Biso   1.000  N
  N72      1.0000 0.19789  0.91703  0.29801  Biso   1.000  N
  O1       1.0000 0.33617  0.88273  0.42301  Biso   1.000  O
  O2       1.0000 0.31145  0.97784  0.52678  Biso   1.000  O
  O3       1.0000 0.14770  0.88334  0.52454  Biso   1.000  O
  O4       1.0000 0.31245  0.81867  0.50625  Biso   1.000  O
  O5       1.0000 0.23916  0.97042  0.62666  Biso   1.000  O
  O6       1.0000 0.98835  0.04938  0.68222  Biso   1.000  O
  O7       1.0000 0.15772  0.04226  0.53180  Biso   1.000  O
  O8       1.0000 0.08496  0.85645  0.33881  Biso   1.000  O
  O9       1.0000 0.22489  0.83038  0.43744  Biso   1.000  O
  O10      1.0000 0.08988  0.96994  0.38224  Biso   1.000  O
  O11      1.0000 0.14191  0.61727  0.07699  Biso   1.000  O
  O12      1.0000 0.31607  0.52216  0.97322  Biso   1.000  O
  O13      1.0000 0.05558  0.61666  0.97546  Biso   1.000  O
  O14      1.0000 0.13737  0.68133  0.99375  Biso   1.000  O
  O15      1.0000 0.33624  0.52958  0.87334  Biso   1.000  O
  O16      1.0000 0.21995  0.45062  0.81778  Biso   1.000  O
  O17      1.0000 0.23178  0.45774  0.96820  Biso   1.000  O
  O18      1.0000 0.78022  0.64355  0.16119  Biso   1.000  O
  O19      1.0000 0.99271  0.66962  0.06256  Biso   1.000  O
  O20      1.0000 0.94206  0.53006  0.11776  Biso   1.000  O
  O21      1.0000 0.75918  0.57699  0.38273  Biso   1.000  O
  O22      1.0000 0.83823  0.47322  0.47784  Biso   1.000  O
  O23      1.0000 0.67224  0.47546  0.38334  Biso   1.000  O
  O24      1.0000 0.81870  0.49375  0.31867  Biso   1.000  O
  O25      1.0000 0.86582  0.37334  0.47042  Biso   1.000  O
  O26      1.0000 0.67057  0.31778  0.54938  Biso   1.000  O
  O27      1.0000 0.68952  0.46820  0.54226  Biso   1.000  O
  O28      1.0000 0.42377  0.66119  0.35645  Biso   1.000  O
  O29      1.0000 0.66233  0.56256  0.33038  Biso   1.000  O
  O30      1.0000 0.47212  0.61776  0.46994  Biso   1.000  O
  O31      1.0000 0.21890  0.92301  0.11727  Biso   1.000  O
  O32      1.0000 0.28929  0.02678  0.02216  Biso   1.000  O
  O33      1.0000 0.03104  0.02454  0.11666  Biso   1.000  O
  O34      1.0000 0.13112  0.00625  0.18133  Biso   1.000  O
  O35      1.0000 0.20958  0.12666  0.02958  Biso   1.000  O
  O36      1.0000 0.03773  0.18222  0.95062  Biso   1.000  O
  O37      1.0000 0.19998  0.03180  0.95774  Biso   1.000  O
  O38      1.0000 0.94141  0.83881  0.14355  Biso   1.000  O
  O39      1.0000 0.05527  0.93744  0.16962  Biso   1.000  O
  O40      1.0000 0.05982  0.88224  0.03006  Biso   1.000  O
  O41      1.0000 0.66383  0.11727  0.57699  Biso   1.000  O
  O42      1.0000 0.68855  0.02216  0.47322  Biso   1.000  O
  O43      1.0000 0.85230  0.11666  0.47546  Biso   1.000  O
  O44      1.0000 0.68755  0.18133  0.49375  Biso   1.000  O
  O45      1.0000 0.76084  0.02958  0.37334  Biso   1.000  O
  O46      1.0000 0.01165  0.95062  0.31778  Biso   1.000  O
  O47      1.0000 0.84228  0.95774  0.46820  Biso   1.000  O
  O48      1.0000 0.91504  0.14355  0.66119  Biso   1.000  O
  O49      1.0000 0.77511  0.16962  0.56256  Biso   1.000  O
  O50      1.0000 0.91012  0.03006  0.61776  Biso   1.000  O
  O51      1.0000 0.85809  0.38273  0.92301  Biso   1.000  O
  O52      1.0000 0.68393  0.47784  0.02678  Biso   1.000  O
  O53      1.0000 0.94442  0.38334  0.02454  Biso   1.000  O
  O54      1.0000 0.86263  0.31867  0.00625  Biso   1.000  O
  O55      1.0000 0.66376  0.47042  0.12666  Biso   1.000  O
  O56      1.0000 0.78005  0.54938  0.18222  Biso   1.000  O
  O57      1.0000 0.76822  0.54226  0.03180  Biso   1.000  O
  O58      1.0000 0.21978  0.35645  0.83881  Biso   1.000  O
  O59      1.0000 0.00729  0.33038  0.93744  Biso   1.000  O
  O60      1.0000 0.05794  0.46994  0.88224  Biso   1.000  O
  O61      1.0000 0.24082  0.42301  0.61727  Biso   1.000  O
  O62      1.0000 0.16177  0.52678  0.52216  Biso   1.000  O
  O63      1.0000 0.32776  0.52454  0.61666  Biso   1.000  O
  O64      1.0000 0.18130  0.50625  0.68133  Biso   1.000  O
  O65      1.0000 0.13418  0.62666  0.52958  Biso   1.000  O
  O66      1.0000 0.32943  0.68222  0.45062  Biso   1.000  O
  O67      1.0000 0.31048  0.53180  0.45774  Biso   1.000  O
  O68      1.0000 0.57623  0.33881  0.64355  Biso   1.000  O
  O69      1.0000 0.33767  0.43744  0.66962  Biso   1.000  O
  O70      1.0000 0.52788  0.38224  0.53006  Biso   1.000  O
  O71      1.0000 0.78110  0.07699  0.88273  Biso   1.000  O
  O72      1.0000 0.71071  0.97322  0.97784  Biso   1.000  O
  O73      1.0000 0.96896  0.97546  0.88334  Biso   1.000  O
  O74      1.0000 0.86888  0.99375  0.81867  Biso   1.000  O
  O75      1.0000 0.79042  0.87334  0.97042  Biso   1.000  O
  O76      1.0000 0.96227  0.81778  0.04938  Biso   1.000  O
  O77      1.0000 0.80002  0.96820  0.04226  Biso   1.000  O
  O78      1.0000 0.05859  0.16119  0.85645  Biso   1.000  O
  O79      1.0000 0.94473  0.06256  0.83038  Biso   1.000  O
  O80      1.0000 0.94018  0.11776  0.96994  Biso   1.000  O
