data_image0
_cell_length_a       17.4132
_cell_length_b       30.0058
_cell_length_c       30.0058
_cell_angle_alpha    85.1702
_cell_angle_beta     73.1322
_cell_angle_gamma    73.1322

_symmetry_space_group_name_H-M    P 1
_symmetry_int_tables_number       1

loop_
  _symmetry_equiv_pos_as_xyz
  'x, y, z'

loop_
  _atom_site_label
  _atom_site_occupancy
  _atom_site_fract_x
  _atom_site_fract_y
  _atom_site_fract_z
  _atom_site_thermal_displace_type
  _atom_site_B_iso_or_equiv
  _atom_site_type_symbol
  Mn1      1.0000 0.37312  0.87948  0.02894  Biso   1.000  Mn
  Mn2      1.0000 0.29325  0.00181  0.92077  Biso   1.000  Mn
  Mn3      1.0000 0.49675  0.91596  0.14278  Biso   1.000  Mn
  Mn4      1.0000 0.78154  0.62052  0.47106  Biso   1.000  Mn
  Mn5      1.0000 0.71583  0.49819  0.57923  Biso   1.000  Mn
  Mn6      1.0000 0.05549  0.58404  0.35722  Biso   1.000  Mn
  Mn7      1.0000 0.40206  0.97106  0.37948  Biso   1.000  Mn
  Mn8      1.0000 0.21402  0.07923  0.50181  Biso   1.000  Mn
  Mn9      1.0000 0.63953  0.85722  0.41596  Biso   1.000  Mn
  Mn10     1.0000 0.25260  0.52894  0.12052  Biso   1.000  Mn
  Mn11     1.0000 0.29506  0.42077  0.99819  Biso   1.000  Mn
  Mn12     1.0000 0.41271  0.64278  0.08404  Biso   1.000  Mn
  Mn13     1.0000 0.62688  0.12052  0.97106  Biso   1.000  Mn
  Mn14     1.0000 0.70675  0.99819  0.07923  Biso   1.000  Mn
  Mn15     1.0000 0.50325  0.08404  0.85722  Biso   1.000  Mn
  Mn16     1.0000 0.21846  0.37948  0.52894  Biso   1.000  Mn
  Mn17     1.0000 0.28417  0.50181  0.42077  Biso   1.000  Mn
  Mn18     1.0000 0.94451  0.41596  0.64278  Biso   1.000  Mn
  Mn19     1.0000 0.59794  0.02894  0.62052  Biso   1.000  Mn
  Mn20     1.0000 0.78598  0.92077  0.49819  Biso   1.000  Mn
  Mn21     1.0000 0.36047  0.14278  0.58404  Biso   1.000  Mn
  Mn22     1.0000 0.74740  0.47106  0.87948  Biso   1.000  Mn
  Mn23     1.0000 0.70494  0.57923  0.00181  Biso   1.000  Mn
  Mn24     1.0000 0.58729  0.35722  0.91596  Biso   1.000  Mn
  H1       1.0000 0.14630  0.89080  0.14300  Biso   1.000  H
  H2       1.0000 0.01320  0.93420  0.15100  Biso   1.000  H
  H3       1.0000 0.97270  0.97860  0.09140  Biso   1.000  H
  H4       1.0000 0.07810  0.98320  0.02040  Biso   1.000  H
  H5       1.0000 0.52300  0.95170  0.90710  Biso   1.000  H
  H6       1.0000 0.48710  0.92680  0.87600  Biso   1.000  H
  H7       1.0000 0.58260  0.85970  0.87630  Biso   1.000  H
  H8       1.0000 0.63320  0.89760  0.87020  Biso   1.000  H
  H9       1.0000 0.60530  0.87420  0.92000  Biso   1.000  H
  H10      1.0000 0.42060  0.82730  0.93830  Biso   1.000  H
  H11      1.0000 0.31930  0.73590  0.94370  Biso   1.000  H
  H12      1.0000 0.34710  0.72640  0.99080  Biso   1.000  H
  H13      1.0000 0.30090  0.77820  0.97800  Biso   1.000  H
  H14      1.0000 0.46880  0.72460  0.88000  Biso   1.000  H
  H15      1.0000 0.50130  0.76760  0.88660  Biso   1.000  H
  H16      1.0000 0.53140  0.71890  0.91130  Biso   1.000  H
  H17      1.0000 0.28120  0.92780  0.80600  Biso   1.000  H
  H18      1.0000 0.34430  0.92760  0.72740  Biso   1.000  H
  H19      1.0000 0.44070  0.97110  0.69730  Biso   1.000  H
  H20      1.0000 0.47470  0.01070  0.74810  Biso   1.000  H
  H21      1.0000 0.38090  0.12560  0.95840  Biso   1.000  H
  H22      1.0000 0.39490  0.08660  0.99720  Biso   1.000  H
  H23      1.0000 0.24400  0.10510  0.02550  Biso   1.000  H
  H24      1.0000 0.28510  0.14350  0.03470  Biso   1.000  H
  H25      1.0000 0.24220  0.15050  0.99310  Biso   1.000  H
  H26      1.0000 0.13340  0.06880  0.98040  Biso   1.000  H
  H27      1.0000 0.02690  0.13790  0.97790  Biso   1.000  H
  H28      1.0000 0.11000  0.13310  0.84210  Biso   1.000  H
  H29      1.0000 0.21260  0.06710  0.84890  Biso   1.000  H
  H30      1.0000 0.96650  0.17480  0.87040  Biso   1.000  H
  H31      1.0000 0.99990  0.20790  0.89450  Biso   1.000  H
  H32      1.0000 0.61650  0.78430  0.19690  Biso   1.000  H
  H33      1.0000 0.61260  0.70980  0.18840  Biso   1.000  H
  H34      1.0000 0.54500  0.69390  0.13630  Biso   1.000  H
  H35      1.0000 0.48380  0.75420  0.09460  Biso   1.000  H
  H36      1.0000 0.34560  0.99160  0.03580  Biso   1.000  H
  H37      1.0000 0.37820  0.02710  0.05770  Biso   1.000  H
  H38      1.0000 0.24040  0.99300  0.11960  Biso   1.000  H
  H39      1.0000 0.21610  0.03630  0.08650  Biso   1.000  H
  H40      1.0000 0.25920  0.04090  0.12570  Biso   1.000  H
  H41      1.0000 0.65680  0.24800  0.91060  Biso   1.000  H
  H42      1.0000 0.76590  0.18640  0.92080  Biso   1.000  H
  H43      1.0000 0.88430  0.28020  0.93060  Biso   1.000  H
  H44      1.0000 0.77240  0.33780  0.92240  Biso   1.000  H
  H45      1.0000 0.89170  0.15840  0.94000  Biso   1.000  H
  H46      1.0000 0.92330  0.19320  0.96300  Biso   1.000  H
  H47      1.0000 0.68010  0.60920  0.35700  Biso   1.000  H
  H48      1.0000 0.59840  0.56580  0.34900  Biso   1.000  H
  H49      1.0000 0.54270  0.52140  0.40860  Biso   1.000  H
  H50      1.0000 0.58170  0.51680  0.47960  Biso   1.000  H
  H51      1.0000 0.88180  0.54830  0.59290  Biso   1.000  H
  H52      1.0000 0.78990  0.57320  0.62400  Biso   1.000  H
  H53      1.0000 0.81860  0.64030  0.62370  Biso   1.000  H
  H54      1.0000 0.90100  0.60240  0.62980  Biso   1.000  H
  H55      1.0000 0.89950  0.62580  0.58000  Biso   1.000  H
  H56      1.0000 0.68620  0.67270  0.56170  Biso   1.000  H
  H57      1.0000 0.49890  0.76410  0.55630  Biso   1.000  H
  H58      1.0000 0.56430  0.77360  0.50920  Biso   1.000  H
  H59      1.0000 0.55710  0.72180  0.52200  Biso   1.000  H
  H60      1.0000 0.57340  0.77540  0.62000  Biso   1.000  H
  H61      1.0000 0.65550  0.73240  0.61340  Biso   1.000  H
  H62      1.0000 0.66160  0.78110  0.58870  Biso   1.000  H
  H63      1.0000 0.51500  0.57220  0.69400  Biso   1.000  H
  H64      1.0000 0.49930  0.57240  0.77260  Biso   1.000  H
  H65      1.0000 0.60910  0.52890  0.80270  Biso   1.000  H
  H66      1.0000 0.73350  0.48930  0.75190  Biso   1.000  H
  H67      1.0000 0.96490  0.37440  0.54160  Biso   1.000  H
  H68      1.0000 0.97870  0.41340  0.50280  Biso   1.000  H
  H69      1.0000 0.87460  0.39490  0.47450  Biso   1.000  H
  H70      1.0000 0.96330  0.35650  0.46530  Biso   1.000  H
  H71      1.0000 0.88580  0.34950  0.50690  Biso   1.000  H
  H72      1.0000 0.68260  0.43120  0.51960  Biso   1.000  H
  H73      1.0000 0.64270  0.36210  0.52210  Biso   1.000  H
  H74      1.0000 0.58520  0.36690  0.65790  Biso   1.000  H
  H75      1.0000 0.62860  0.43290  0.65110  Biso   1.000  H
  H76      1.0000 0.51170  0.32520  0.62960  Biso   1.000  H
  H77      1.0000 0.60230  0.29210  0.60550  Biso   1.000  H
  H78      1.0000 0.09770  0.71570  0.30310  Biso   1.000  H
  H79      1.0000 0.01080  0.79020  0.31160  Biso   1.000  H
  H80      1.0000 0.87520  0.80610  0.36370  Biso   1.000  H
  H81      1.0000 0.83260  0.74580  0.40540  Biso   1.000  H
  H82      1.0000 0.87300  0.50840  0.46420  Biso   1.000  H
  H83      1.0000 0.96300  0.47290  0.44230  Biso   1.000  H
  H84      1.0000 0.85300  0.50700  0.38040  Biso   1.000  H
  H85      1.0000 0.83890  0.46370  0.41350  Biso   1.000  H
  H86      1.0000 0.92580  0.45910  0.37430  Biso   1.000  H
  H87      1.0000 0.31540  0.25200  0.58940  Biso   1.000  H
  H88      1.0000 0.37310  0.31360  0.57920  Biso   1.000  H
  H89      1.0000 0.59510  0.21980  0.56940  Biso   1.000  H
  H90      1.0000 0.53260  0.16220  0.57760  Biso   1.000  H
  H91      1.0000 0.49010  0.34160  0.56000  Biso   1.000  H
  H92      1.0000 0.57950  0.30680  0.53700  Biso   1.000  H
  H93      1.0000 0.28930  0.85700  0.39080  Biso   1.000  H
  H94      1.0000 0.16420  0.84900  0.43420  Biso   1.000  H
  H95      1.0000 0.06410  0.90860  0.47860  Biso   1.000  H
  H96      1.0000 0.09850  0.97960  0.48320  Biso   1.000  H
  H97      1.0000 0.43010  0.09290  0.45170  Biso   1.000  H
  H98      1.0000 0.36310  0.12400  0.42680  Biso   1.000  H
  H99      1.0000 0.45890  0.12370  0.35970  Biso   1.000  H
  H100     1.0000 0.50340  0.12980  0.39760  Biso   1.000  H
  H101     1.0000 0.52530  0.08000  0.37420  Biso   1.000  H
  H102     1.0000 0.35890  0.06170  0.32730  Biso   1.000  H
  H103     1.0000 0.26300  0.05630  0.23590  Biso   1.000  H
  H104     1.0000 0.33790  0.00920  0.22640  Biso   1.000  H
  H105     1.0000 0.27890  0.02200  0.27820  Biso   1.000  H
  H106     1.0000 0.34880  0.12000  0.22460  Biso   1.000  H
  H107     1.0000 0.38790  0.11340  0.26760  Biso   1.000  H
  H108     1.0000 0.44270  0.08870  0.21890  Biso   1.000  H
  H109     1.0000 0.08720  0.19400  0.42780  Biso   1.000  H
  H110     1.0000 0.07170  0.27260  0.42760  Biso   1.000  H
  H111     1.0000 0.13800  0.30270  0.47110  Biso   1.000  H
  H112     1.0000 0.22280  0.25190  0.51070  Biso   1.000  H
  H113     1.0000 0.33930  0.04160  0.62560  Biso   1.000  H
  H114     1.0000 0.39210  0.00280  0.58660  Biso   1.000  H
  H115     1.0000 0.26950  0.97450  0.60510  Biso   1.000  H
  H116     1.0000 0.31980  0.96530  0.64350  Biso   1.000  H
  H117     1.0000 0.23530  0.00690  0.65050  Biso   1.000  H
  H118     1.0000 0.11380  0.01960  0.56880  Biso   1.000  H
  H119     1.0000 0.00480  0.02210  0.63790  Biso   1.000  H
  H120     1.0000 0.95210  0.15790  0.63310  Biso   1.000  H
  H121     1.0000 0.06150  0.15110  0.56710  Biso   1.000  H
  H122     1.0000 0.83690  0.12960  0.67480  Biso   1.000  H
  H123     1.0000 0.89440  0.10550  0.70790  Biso   1.000  H
  H124     1.0000 0.81340  0.80310  0.28430  Biso   1.000  H
  H125     1.0000 0.80100  0.81160  0.20980  Biso   1.000  H
  H126     1.0000 0.68130  0.86370  0.19390  Biso   1.000  H
  H127     1.0000 0.57840  0.90540  0.25420  Biso   1.000  H
  H128     1.0000 0.38140  0.96420  0.49160  Biso   1.000  H
  H129     1.0000 0.43590  0.94230  0.52710  Biso   1.000  H
  H130     1.0000 0.36000  0.88040  0.49300  Biso   1.000  H
  H131     1.0000 0.30260  0.91350  0.53630  Biso   1.000  H
  H132     1.0000 0.38490  0.87430  0.54090  Biso   1.000  H
  H133     1.0000 0.56740  0.08940  0.74800  Biso   1.000  H
  H134     1.0000 0.68670  0.07920  0.68640  Biso   1.000  H
  H135     1.0000 0.81490  0.06940  0.78020  Biso   1.000  H
  H136     1.0000 0.69480  0.07760  0.83780  Biso   1.000  H
  H137     1.0000 0.83170  0.06000  0.65840  Biso   1.000  H
  H138     1.0000 0.88630  0.03700  0.69320  Biso   1.000  H
  H139     1.0000 0.03710  0.64300  0.10920  Biso   1.000  H
  H140     1.0000 0.94740  0.65100  0.06580  Biso   1.000  H
  H141     1.0000 0.95130  0.59140  0.02140  Biso   1.000  H
  H142     1.0000 0.06130  0.52040  0.01680  Biso   1.000  H
  H143     1.0000 0.47470  0.40710  0.04830  Biso   1.000  H
  H144     1.0000 0.41390  0.37600  0.07320  Biso   1.000  H
  H145     1.0000 0.44230  0.37630  0.14030  Biso   1.000  H
  H146     1.0000 0.53080  0.37020  0.10240  Biso   1.000  H
  H147     1.0000 0.47950  0.42000  0.12580  Biso   1.000  H
  H148     1.0000 0.24790  0.43830  0.17270  Biso   1.000  H
  H149     1.0000 0.05520  0.44370  0.26410  Biso   1.000  H
  H150     1.0000 0.07350  0.49080  0.27360  Biso   1.000  H
  H151     1.0000 0.07910  0.47800  0.22180  Biso   1.000  H
  H152     1.0000 0.19340  0.38000  0.27540  Biso   1.000  H
  H153     1.0000 0.26890  0.38660  0.23240  Biso   1.000  H
  H154     1.0000 0.25030  0.41130  0.28110  Biso   1.000  H
  H155     1.0000 0.20900  0.30600  0.07220  Biso   1.000  H
  H156     1.0000 0.27190  0.22740  0.07240  Biso   1.000  H
  H157     1.0000 0.41180  0.19730  0.02890  Biso   1.000  H
  H158     1.0000 0.48540  0.24810  0.98930  Biso   1.000  H
  H159     1.0000 0.50650  0.45840  0.87440  Biso   1.000  H
  H160     1.0000 0.48150  0.49720  0.91340  Biso   1.000  H
  H161     1.0000 0.34910  0.52550  0.89490  Biso   1.000  H
  H162     1.0000 0.42860  0.53470  0.85650  Biso   1.000  H
  H163     1.0000 0.39270  0.49310  0.84950  Biso   1.000  H
  H164     1.0000 0.20220  0.48040  0.93120  Biso   1.000  H
  H165     1.0000 0.16480  0.47790  0.86210  Biso   1.000  H
  H166     1.0000 0.24310  0.34210  0.86690  Biso   1.000  H
  H167     1.0000 0.27970  0.34890  0.93290  Biso   1.000  H
  H168     1.0000 0.14130  0.37040  0.82520  Biso   1.000  H
  H169     1.0000 0.20780  0.39450  0.79210  Biso   1.000  H
  H170     1.0000 0.40080  0.69690  0.21570  Biso   1.000  H
  H171     1.0000 0.32240  0.68840  0.29020  Biso   1.000  H
  H172     1.0000 0.23890  0.63630  0.30610  Biso   1.000  H
  H173     1.0000 0.23800  0.59460  0.24580  Biso   1.000  H
  H174     1.0000 0.33720  0.53580  0.00840  Biso   1.000  H
  H175     1.0000 0.40530  0.55770  0.97290  Biso   1.000  H
  H176     1.0000 0.23340  0.61960  0.00700  Biso   1.000  H
  H177     1.0000 0.25240  0.58650  0.96370  Biso   1.000  H
  H178     1.0000 0.30010  0.62570  0.95910  Biso   1.000  H
  H179     1.0000 0.90480  0.41060  0.75200  Biso   1.000  H
  H180     1.0000 0.95230  0.42080  0.81360  Biso   1.000  H
  H181     1.0000 0.16450  0.43060  0.71980  Biso   1.000  H
  H182     1.0000 0.11020  0.42240  0.66220  Biso   1.000  H
  H183     1.0000 0.05010  0.44000  0.84160  Biso   1.000  H
  H184     1.0000 0.11650  0.46300  0.80680  Biso   1.000  H
  H185     1.0000 0.85370  0.10920  0.85700  Biso   1.000  H
  H186     1.0000 0.98680  0.06580  0.84900  Biso   1.000  H
  H187     1.0000 0.02730  0.02140  0.90860  Biso   1.000  H
  H188     1.0000 0.92190  0.01680  0.97960  Biso   1.000  H
  H189     1.0000 0.47700  0.04830  0.09290  Biso   1.000  H
  H190     1.0000 0.51290  0.07320  0.12400  Biso   1.000  H
  H191     1.0000 0.41740  0.14030  0.12370  Biso   1.000  H
  H192     1.0000 0.36680  0.10240  0.12980  Biso   1.000  H
  H193     1.0000 0.39470  0.12580  0.08000  Biso   1.000  H
  H194     1.0000 0.57940  0.17270  0.06170  Biso   1.000  H
  H195     1.0000 0.68070  0.26410  0.05630  Biso   1.000  H
  H196     1.0000 0.65290  0.27360  0.00920  Biso   1.000  H
  H197     1.0000 0.69910  0.22180  0.02200  Biso   1.000  H
  H198     1.0000 0.53120  0.27540  0.12000  Biso   1.000  H
  H199     1.0000 0.49870  0.23240  0.11340  Biso   1.000  H
  H200     1.0000 0.46860  0.28110  0.08870  Biso   1.000  H
  H201     1.0000 0.71880  0.07220  0.19400  Biso   1.000  H
  H202     1.0000 0.65570  0.07240  0.27260  Biso   1.000  H
  H203     1.0000 0.55930  0.02890  0.30270  Biso   1.000  H
  H204     1.0000 0.52530  0.98930  0.25190  Biso   1.000  H
  H205     1.0000 0.61910  0.87440  0.04160  Biso   1.000  H
  H206     1.0000 0.60510  0.91340  0.00280  Biso   1.000  H
  H207     1.0000 0.75600  0.89490  0.97450  Biso   1.000  H
  H208     1.0000 0.71490  0.85650  0.96530  Biso   1.000  H
  H209     1.0000 0.75780  0.84950  0.00690  Biso   1.000  H
  H210     1.0000 0.86660  0.93120  0.01960  Biso   1.000  H
  H211     1.0000 0.97310  0.86210  0.02210  Biso   1.000  H
  H212     1.0000 0.89000  0.86690  0.15790  Biso   1.000  H
  H213     1.0000 0.78740  0.93290  0.15110  Biso   1.000  H
  H214     1.0000 0.03350  0.82520  0.12960  Biso   1.000  H
  H215     1.0000 0.00010  0.79210  0.10550  Biso   1.000  H
  H216     1.0000 0.38350  0.21570  0.80310  Biso   1.000  H
  H217     1.0000 0.38740  0.29020  0.81160  Biso   1.000  H
  H218     1.0000 0.45500  0.30610  0.86370  Biso   1.000  H
  H219     1.0000 0.51620  0.24580  0.90540  Biso   1.000  H
  H220     1.0000 0.65440  0.00840  0.96420  Biso   1.000  H
  H221     1.0000 0.62180  0.97290  0.94230  Biso   1.000  H
  H222     1.0000 0.75960  0.00700  0.88040  Biso   1.000  H
  H223     1.0000 0.78390  0.96370  0.91350  Biso   1.000  H
  H224     1.0000 0.74080  0.95910  0.87430  Biso   1.000  H
  H225     1.0000 0.34320  0.75200  0.08940  Biso   1.000  H
  H226     1.0000 0.23410  0.81360  0.07920  Biso   1.000  H
  H227     1.0000 0.11570  0.71980  0.06940  Biso   1.000  H
  H228     1.0000 0.22760  0.66220  0.07760  Biso   1.000  H
  H229     1.0000 0.10830  0.84160  0.06000  Biso   1.000  H
  H230     1.0000 0.07670  0.80680  0.03700  Biso   1.000  H
  H231     1.0000 0.31990  0.39080  0.64300  Biso   1.000  H
  H232     1.0000 0.40160  0.43420  0.65100  Biso   1.000  H
  H233     1.0000 0.45730  0.47860  0.59140  Biso   1.000  H
  H234     1.0000 0.41830  0.48320  0.52040  Biso   1.000  H
  H235     1.0000 0.11820  0.45170  0.40710  Biso   1.000  H
  H236     1.0000 0.21010  0.42680  0.37600  Biso   1.000  H
  H237     1.0000 0.18140  0.35970  0.37630  Biso   1.000  H
  H238     1.0000 0.09900  0.39760  0.37020  Biso   1.000  H
  H239     1.0000 0.10050  0.37420  0.42000  Biso   1.000  H
  H240     1.0000 0.31380  0.32730  0.43830  Biso   1.000  H
  H241     1.0000 0.50110  0.23590  0.44370  Biso   1.000  H
  H242     1.0000 0.43570  0.22640  0.49080  Biso   1.000  H
  H243     1.0000 0.44290  0.27820  0.47800  Biso   1.000  H
  H244     1.0000 0.42660  0.22460  0.38000  Biso   1.000  H
  H245     1.0000 0.34450  0.26760  0.38660  Biso   1.000  H
  H246     1.0000 0.33840  0.21890  0.41130  Biso   1.000  H
  H247     1.0000 0.48500  0.42780  0.30600  Biso   1.000  H
  H248     1.0000 0.50070  0.42760  0.22740  Biso   1.000  H
  H249     1.0000 0.39090  0.47110  0.19730  Biso   1.000  H
  H250     1.0000 0.26650  0.51070  0.24810  Biso   1.000  H
  H251     1.0000 0.03510  0.62560  0.45840  Biso   1.000  H
  H252     1.0000 0.02130  0.58660  0.49720  Biso   1.000  H
  H253     1.0000 0.12540  0.60510  0.52550  Biso   1.000  H
  H254     1.0000 0.03670  0.64350  0.53470  Biso   1.000  H
  H255     1.0000 0.11420  0.65050  0.49310  Biso   1.000  H
  H256     1.0000 0.31740  0.56880  0.48040  Biso   1.000  H
  H257     1.0000 0.35730  0.63790  0.47790  Biso   1.000  H
  H258     1.0000 0.41480  0.63310  0.34210  Biso   1.000  H
  H259     1.0000 0.37140  0.56710  0.34890  Biso   1.000  H
  H260     1.0000 0.48830  0.67480  0.37040  Biso   1.000  H
  H261     1.0000 0.39770  0.70790  0.39450  Biso   1.000  H
  H262     1.0000 0.90230  0.28430  0.69690  Biso   1.000  H
  H263     1.0000 0.98920  0.20980  0.68840  Biso   1.000  H
  H264     1.0000 0.12480  0.19390  0.63630  Biso   1.000  H
  H265     1.0000 0.16740  0.25420  0.59460  Biso   1.000  H
  H266     1.0000 0.12700  0.49160  0.53580  Biso   1.000  H
  H267     1.0000 0.03700  0.52710  0.55770  Biso   1.000  H
  H268     1.0000 0.14700  0.49300  0.61960  Biso   1.000  H
  H269     1.0000 0.16110  0.53630  0.58650  Biso   1.000  H
  H270     1.0000 0.07420  0.54090  0.62570  Biso   1.000  H
  H271     1.0000 0.68460  0.74800  0.41060  Biso   1.000  H
  H272     1.0000 0.62690  0.68640  0.42080  Biso   1.000  H
  H273     1.0000 0.40490  0.78020  0.43060  Biso   1.000  H
  H274     1.0000 0.46740  0.83780  0.42240  Biso   1.000  H
  H275     1.0000 0.50990  0.65840  0.44000  Biso   1.000  H
  H276     1.0000 0.42050  0.69320  0.46300  Biso   1.000  H
  H277     1.0000 0.71070  0.14300  0.60920  Biso   1.000  H
  H278     1.0000 0.83580  0.15100  0.56580  Biso   1.000  H
  H279     1.0000 0.93590  0.09140  0.52140  Biso   1.000  H
  H280     1.0000 0.90150  0.02040  0.51680  Biso   1.000  H
  H281     1.0000 0.56990  0.90710  0.54830  Biso   1.000  H
  H282     1.0000 0.63690  0.87600  0.57320  Biso   1.000  H
  H283     1.0000 0.54110  0.87630  0.64030  Biso   1.000  H
  H284     1.0000 0.49660  0.87020  0.60240  Biso   1.000  H
  H285     1.0000 0.47470  0.92000  0.62580  Biso   1.000  H
  H286     1.0000 0.64110  0.93830  0.67270  Biso   1.000  H
  H287     1.0000 0.73700  0.94370  0.76410  Biso   1.000  H
  H288     1.0000 0.66210  0.99080  0.77360  Biso   1.000  H
  H289     1.0000 0.72110  0.97800  0.72180  Biso   1.000  H
  H290     1.0000 0.65120  0.88000  0.77540  Biso   1.000  H
  H291     1.0000 0.61210  0.88660  0.73240  Biso   1.000  H
  H292     1.0000 0.55730  0.91130  0.78110  Biso   1.000  H
  H293     1.0000 0.91280  0.80600  0.57220  Biso   1.000  H
  H294     1.0000 0.92830  0.72740  0.57240  Biso   1.000  H
  H295     1.0000 0.86200  0.69730  0.52890  Biso   1.000  H
  H296     1.0000 0.77720  0.74810  0.48930  Biso   1.000  H
  H297     1.0000 0.66070  0.95840  0.37440  Biso   1.000  H
  H298     1.0000 0.60790  0.99720  0.41340  Biso   1.000  H
  H299     1.0000 0.73050  0.02550  0.39490  Biso   1.000  H
  H300     1.0000 0.68020  0.03470  0.35650  Biso   1.000  H
  H301     1.0000 0.76470  0.99310  0.34950  Biso   1.000  H
  H302     1.0000 0.88620  0.98040  0.43120  Biso   1.000  H
  H303     1.0000 0.99520  0.97790  0.36210  Biso   1.000  H
  H304     1.0000 0.04790  0.84210  0.36690  Biso   1.000  H
  H305     1.0000 0.93850  0.84890  0.43290  Biso   1.000  H
  H306     1.0000 0.16310  0.87040  0.32520  Biso   1.000  H
  H307     1.0000 0.10560  0.89450  0.29210  Biso   1.000  H
  H308     1.0000 0.18660  0.19690  0.71570  Biso   1.000  H
  H309     1.0000 0.19900  0.18840  0.79020  Biso   1.000  H
  H310     1.0000 0.31870  0.13630  0.80610  Biso   1.000  H
  H311     1.0000 0.42160  0.09460  0.74580  Biso   1.000  H
  H312     1.0000 0.61860  0.03580  0.50840  Biso   1.000  H
  H313     1.0000 0.56410  0.05770  0.47290  Biso   1.000  H
  H314     1.0000 0.64000  0.11960  0.50700  Biso   1.000  H
  H315     1.0000 0.69740  0.08650  0.46370  Biso   1.000  H
  H316     1.0000 0.61510  0.12570  0.45910  Biso   1.000  H
  H317     1.0000 0.43260  0.91060  0.25200  Biso   1.000  H
  H318     1.0000 0.31330  0.92080  0.31360  Biso   1.000  H
  H319     1.0000 0.18510  0.93060  0.21980  Biso   1.000  H
  H320     1.0000 0.30520  0.92240  0.16220  Biso   1.000  H
  H321     1.0000 0.16830  0.94000  0.34160  Biso   1.000  H
  H322     1.0000 0.11370  0.96300  0.30680  Biso   1.000  H
  H323     1.0000 0.96290  0.35700  0.89080  Biso   1.000  H
  H324     1.0000 0.05260  0.34900  0.93420  Biso   1.000  H
  H325     1.0000 0.04870  0.40860  0.97860  Biso   1.000  H
  H326     1.0000 0.93870  0.47960  0.98320  Biso   1.000  H
  H327     1.0000 0.52530  0.59290  0.95170  Biso   1.000  H
  H328     1.0000 0.58610  0.62400  0.92680  Biso   1.000  H
  H329     1.0000 0.55770  0.62370  0.85970  Biso   1.000  H
  H330     1.0000 0.46920  0.62980  0.89760  Biso   1.000  H
  H331     1.0000 0.52050  0.58000  0.87420  Biso   1.000  H
  H332     1.0000 0.75210  0.56170  0.82730  Biso   1.000  H
  H333     1.0000 0.94480  0.55630  0.73590  Biso   1.000  H
  H334     1.0000 0.92650  0.50920  0.72640  Biso   1.000  H
  H335     1.0000 0.92090  0.52200  0.77820  Biso   1.000  H
  H336     1.0000 0.80660  0.62000  0.72460  Biso   1.000  H
  H337     1.0000 0.73110  0.61340  0.76760  Biso   1.000  H
  H338     1.0000 0.74970  0.58870  0.71890  Biso   1.000  H
  H339     1.0000 0.79100  0.69400  0.92780  Biso   1.000  H
  H340     1.0000 0.72810  0.77260  0.92760  Biso   1.000  H
  H341     1.0000 0.58820  0.80270  0.97110  Biso   1.000  H
  H342     1.0000 0.51460  0.75190  0.01070  Biso   1.000  H
  H343     1.0000 0.49350  0.54160  0.12560  Biso   1.000  H
  H344     1.0000 0.51850  0.50280  0.08660  Biso   1.000  H
  H345     1.0000 0.65090  0.47450  0.10510  Biso   1.000  H
  H346     1.0000 0.57140  0.46530  0.14350  Biso   1.000  H
  H347     1.0000 0.60730  0.50690  0.15050  Biso   1.000  H
  H348     1.0000 0.79780  0.51960  0.06880  Biso   1.000  H
  H349     1.0000 0.83520  0.52210  0.13790  Biso   1.000  H
  H350     1.0000 0.75690  0.65790  0.13310  Biso   1.000  H
  H351     1.0000 0.72030  0.65110  0.06710  Biso   1.000  H
  H352     1.0000 0.85870  0.62960  0.17480  Biso   1.000  H
  H353     1.0000 0.79220  0.60550  0.20790  Biso   1.000  H
  H354     1.0000 0.59920  0.30310  0.78430  Biso   1.000  H
  H355     1.0000 0.67760  0.31160  0.70980  Biso   1.000  H
  H356     1.0000 0.76110  0.36370  0.69390  Biso   1.000  H
  H357     1.0000 0.76200  0.40540  0.75420  Biso   1.000  H
  H358     1.0000 0.66280  0.46420  0.99160  Biso   1.000  H
  H359     1.0000 0.59470  0.44230  0.02710  Biso   1.000  H
  H360     1.0000 0.76660  0.38040  0.99300  Biso   1.000  H
  H361     1.0000 0.74760  0.41350  0.03630  Biso   1.000  H
  H362     1.0000 0.69990  0.37430  0.04090  Biso   1.000  H
  H363     1.0000 0.09520  0.58940  0.24800  Biso   1.000  H
  H364     1.0000 0.04770  0.57920  0.18640  Biso   1.000  H
  H365     1.0000 0.83550  0.56940  0.28020  Biso   1.000  H
  H366     1.0000 0.88980  0.57760  0.33780  Biso   1.000  H
  H367     1.0000 0.94990  0.56000  0.15840  Biso   1.000  H
  H368     1.0000 0.88350  0.53700  0.19320  Biso   1.000  H
  C1       1.0000 0.19749  0.91132  0.07750  Biso   1.000  C
  C2       1.0000 0.13340  0.91010  0.11790  Biso   1.000  C
  C3       1.0000 0.05400  0.93530  0.12230  Biso   1.000  C
  C4       1.0000 0.02970  0.96220  0.08780  Biso   1.000  C
  C5       1.0000 0.09290  0.96500  0.04580  Biso   1.000  C
  C6       1.0000 0.17547  0.94153  0.04193  Biso   1.000  C
  C7       1.0000 0.23524  0.94935  0.99877  Biso   1.000  C
  C8       1.0000 0.44512  0.91434  0.94582  Biso   1.000  C
  C9       1.0000 0.51074  0.92243  0.90289  Biso   1.000  C
  C10      1.0000 0.58950  0.88540  0.89140  Biso   1.000  C
  C11      1.0000 0.39800  0.80640  0.96000  Biso   1.000  C
  C12      1.0000 0.34050  0.74850  0.96530  Biso   1.000  C
  C13      1.0000 0.48460  0.74040  0.90180  Biso   1.000  C
  C14      1.0000 0.33497  0.97112  0.82594  Biso   1.000  C
  C15      1.0000 0.31970  0.94572  0.79448  Biso   1.000  C
  C16      1.0000 0.35731  0.94520  0.74758  Biso   1.000  C
  C17      1.0000 0.41474  0.97055  0.72977  Biso   1.000  C
  C18      1.0000 0.43299  0.99482  0.76020  Biso   1.000  C
  C19      1.0000 0.39485  0.99734  0.80636  Biso   1.000  C
  C20      1.0000 0.41384  0.02661  0.83611  Biso   1.000  C
  C21      1.0000 0.35150  0.06629  0.94711  Biso   1.000  C
  C22      1.0000 0.35649  0.10242  0.97840  Biso   1.000  C
  C23      1.0000 0.27500  0.12750  0.01070  Biso   1.000  C
  C24      1.0000 0.12810  0.08160  0.95100  Biso   1.000  C
  C25      1.0000 0.06270  0.12180  0.95040  Biso   1.000  C
  C26      1.0000 0.05410  0.13660  0.90560  Biso   1.000  C
  C27      1.0000 0.10940  0.11960  0.87200  Biso   1.000  C
  C28      1.0000 0.17230  0.08050  0.87670  Biso   1.000  C
  C29      1.0000 0.98010  0.17970  0.89910  Biso   1.000  C
  C30      1.0000 0.55000  0.81572  0.15248  Biso   1.000  C
  C31      1.0000 0.58804  0.77877  0.17615  Biso   1.000  C
  C32      1.0000 0.58644  0.73439  0.17093  Biso   1.000  C
  C33      1.0000 0.54657  0.72472  0.14014  Biso   1.000  C
  C34      1.0000 0.51029  0.76067  0.11595  Biso   1.000  C
  C35      1.0000 0.50943  0.80689  0.12045  Biso   1.000  C
  C36      1.0000 0.46746  0.84298  0.09370  Biso   1.000  C
  C37      1.0000 0.40315  0.96142  0.08608  Biso   1.000  C
  C38      1.0000 0.35120  0.00152  0.06508  Biso   1.000  C
  C39      1.0000 0.25700  0.01980  0.10320  Biso   1.000  C
  C40      1.0000 0.70361  0.25456  0.91582  Biso   1.000  C
  C41      1.0000 0.76880  0.21750  0.92150  Biso   1.000  C
  C42      1.0000 0.83930  0.22640  0.92800  Biso   1.000  C
  C43      1.0000 0.83730  0.27230  0.92730  Biso   1.000  C
  C44      1.0000 0.77083  0.30645  0.92229  Biso   1.000  C
  C45      1.0000 0.91000  0.18720  0.93460  Biso   1.000  C
  C46      1.0000 0.68631  0.58868  0.42250  Biso   1.000  C
  C47      1.0000 0.66140  0.58990  0.38210  Biso   1.000  C
  C48      1.0000 0.61160  0.56470  0.37770  Biso   1.000  C
  C49      1.0000 0.57970  0.53780  0.41220  Biso   1.000  C
  C50      1.0000 0.60370  0.53500  0.45420  Biso   1.000  C
  C51      1.0000 0.65893  0.55847  0.45807  Biso   1.000  C
  C52      1.0000 0.68336  0.55065  0.50123  Biso   1.000  C
  C53      1.0000 0.80528  0.58566  0.55418  Biso   1.000  C
  C54      1.0000 0.83606  0.57757  0.59711  Biso   1.000  C
  C55      1.0000 0.86630  0.61460  0.60860  Biso   1.000  C
  C56      1.0000 0.66440  0.69360  0.54000  Biso   1.000  C
  C57      1.0000 0.55430  0.75150  0.53470  Biso   1.000  C
  C58      1.0000 0.62680  0.75960  0.59820  Biso   1.000  C
  C59      1.0000 0.63203  0.52888  0.67406  Biso   1.000  C
  C60      1.0000 0.55990  0.55428  0.70552  Biso   1.000  C
  C61      1.0000 0.55009  0.55480  0.75242  Biso   1.000  C
  C62      1.0000 0.61506  0.52945  0.77023  Biso   1.000  C
  C63      1.0000 0.68801  0.50518  0.73980  Biso   1.000  C
  C64      1.0000 0.69855  0.50266  0.69364  Biso   1.000  C
  C65      1.0000 0.77656  0.47339  0.66389  Biso   1.000  C
  C66      1.0000 0.86490  0.43371  0.55289  Biso   1.000  C
  C67      1.0000 0.93731  0.39758  0.52160  Biso   1.000  C
  C68      1.0000 0.91320  0.37250  0.48930  Biso   1.000  C
  C69      1.0000 0.66070  0.41840  0.54900  Biso   1.000  C
  C70      1.0000 0.63490  0.37820  0.54960  Biso   1.000  C
  C71      1.0000 0.59630  0.36340  0.59440  Biso   1.000  C
  C72      1.0000 0.60100  0.38040  0.62800  Biso   1.000  C
  C73      1.0000 0.62950  0.41950  0.62330  Biso   1.000  C
  C74      1.0000 0.55890  0.32030  0.60090  Biso   1.000  C
  C75      1.0000 0.01820  0.68428  0.34752  Biso   1.000  C
  C76      1.0000 0.04296  0.72123  0.32385  Biso   1.000  C
  C77      1.0000 0.99176  0.76561  0.32907  Biso   1.000  C
  C78      1.0000 0.91143  0.77528  0.35986  Biso   1.000  C
  C79      1.0000 0.88691  0.73933  0.38405  Biso   1.000  C
  C80      1.0000 0.93677  0.69311  0.37955  Biso   1.000  C
  C81      1.0000 0.90414  0.65702  0.40630  Biso   1.000  C
  C82      1.0000 0.95065  0.53858  0.41392  Biso   1.000  C
  C83      1.0000 0.91780  0.49848  0.43492  Biso   1.000  C
  C84      1.0000 0.88000  0.48020  0.39680  Biso   1.000  C
  C85      1.0000 0.37399  0.24544  0.58418  Biso   1.000  C
  C86      1.0000 0.40780  0.28250  0.57850  Biso   1.000  C
  C87      1.0000 0.49370  0.27360  0.57200  Biso   1.000  C
  C88      1.0000 0.53690  0.22770  0.57270  Biso   1.000  C
  C89      1.0000 0.49957  0.19355  0.57771  Biso   1.000  C
  C90      1.0000 0.53180  0.31280  0.56540  Biso   1.000  C
  C91      1.0000 0.27499  0.92250  0.41132  Biso   1.000  C
  C92      1.0000 0.25130  0.88210  0.41010  Biso   1.000  C
  C93      1.0000 0.17630  0.87770  0.43530  Biso   1.000  C
  C94      1.0000 0.11750  0.91220  0.46220  Biso   1.000  C
  C95      1.0000 0.13870  0.95420  0.46500  Biso   1.000  C
  C96      1.0000 0.21740  0.95807  0.44153  Biso   1.000  C
  C97      1.0000 0.23401  0.00123  0.44935  Biso   1.000  C
  C98      1.0000 0.39094  0.05418  0.41434  Biso   1.000  C
  C99      1.0000 0.41363  0.09711  0.42243  Biso   1.000  C
  C100     1.0000 0.48090  0.10860  0.38540  Biso   1.000  C
  C101     1.0000 0.35800  0.04000  0.30640  Biso   1.000  C
  C102     1.0000 0.30580  0.03470  0.24850  Biso   1.000  C
  C103     1.0000 0.38640  0.09820  0.24040  Biso   1.000  C
  C104     1.0000 0.16091  0.17406  0.47112  Biso   1.000  C
  C105     1.0000 0.11418  0.20552  0.44572  Biso   1.000  C
  C106     1.0000 0.10489  0.25242  0.44520  Biso   1.000  C
  C107     1.0000 0.14451  0.27023  0.47055  Biso   1.000  C
  C108     1.0000 0.19319  0.23980  0.49482  Biso   1.000  C
  C109     1.0000 0.20121  0.19364  0.49734  Biso   1.000  C
  C110     1.0000 0.24995  0.16389  0.52661  Biso   1.000  C
  C111     1.0000 0.29861  0.05289  0.56629  Biso   1.000  C
  C112     1.0000 0.33489  0.02160  0.60242  Biso   1.000  C
  C113     1.0000 0.28570  0.98930  0.62750  Biso   1.000  C
  C114     1.0000 0.07910  0.04900  0.58160  Biso   1.000  C
  C115     1.0000 0.01310  0.04960  0.62180  Biso   1.000  C
  C116     1.0000 0.95970  0.09440  0.63660  Biso   1.000  C
  C117     1.0000 0.98140  0.12800  0.61960  Biso   1.000  C
  C118     1.0000 0.04900  0.12330  0.58050  Biso   1.000  C
  C119     1.0000 0.87920  0.10090  0.67970  Biso   1.000  C
  C120     1.0000 0.70248  0.84752  0.31572  Biso   1.000  C
  C121     1.0000 0.76419  0.82385  0.27877  Biso   1.000  C
  C122     1.0000 0.75737  0.82907  0.23439  Biso   1.000  C
  C123     1.0000 0.68671  0.85986  0.22472  Biso   1.000  C
  C124     1.0000 0.62624  0.88405  0.26067  Biso   1.000  C
  C125     1.0000 0.62988  0.87955  0.30689  Biso   1.000  C
  C126     1.0000 0.56116  0.90630  0.34298  Biso   1.000  C
  C127     1.0000 0.48923  0.91392  0.46142  Biso   1.000  C
  C128     1.0000 0.41628  0.93492  0.50152  Biso   1.000  C
  C129     1.0000 0.36020  0.89680  0.51980  Biso   1.000  C
  C130     1.0000 0.61943  0.08418  0.75456  Biso   1.000  C
  C131     1.0000 0.69030  0.07850  0.71750  Biso   1.000  C
  C132     1.0000 0.76730  0.07200  0.72640  Biso   1.000  C
  C133     1.0000 0.76460  0.07270  0.77230  Biso   1.000  C
  C134     1.0000 0.69312  0.07771  0.80645  Biso   1.000  C
  C135     1.0000 0.84460  0.06540  0.68720  Biso   1.000  C
  C136     1.0000 0.10881  0.57750  0.08868  Biso   1.000  C
  C137     1.0000 0.04350  0.61790  0.08990  Biso   1.000  C
  C138     1.0000 0.98930  0.62230  0.06470  Biso   1.000  C
  C139     1.0000 0.99190  0.58780  0.03780  Biso   1.000  C
  C140     1.0000 0.05790  0.54580  0.03500  Biso   1.000  C
  C141     1.0000 0.11700  0.54193  0.05847  Biso   1.000  C
  C142     1.0000 0.18459  0.49877  0.05065  Biso   1.000  C
  C143     1.0000 0.35946  0.44582  0.08566  Biso   1.000  C
  C144     1.0000 0.43317  0.40289  0.07757  Biso   1.000  C
  C145     1.0000 0.47490  0.39140  0.11460  Biso   1.000  C
  C146     1.0000 0.20440  0.46000  0.19360  Biso   1.000  C
  C147     1.0000 0.08900  0.46530  0.25150  Biso   1.000  C
  C148     1.0000 0.22500  0.40180  0.25960  Biso   1.000  C
  C149     1.0000 0.30609  0.32594  0.02888  Biso   1.000  C
  C150     1.0000 0.26542  0.29448  0.05428  Biso   1.000  C
  C151     1.0000 0.30251  0.24758  0.05480  Biso   1.000  C
  C152     1.0000 0.38529  0.22977  0.02945  Biso   1.000  C
  C153     1.0000 0.42781  0.26020  0.00518  Biso   1.000  C
  C154     1.0000 0.39219  0.30636  0.00266  Biso   1.000  C
  C155     1.0000 0.44045  0.33611  0.97339  Biso   1.000  C
  C156     1.0000 0.41779  0.44711  0.93371  Biso   1.000  C
  C157     1.0000 0.45891  0.47840  0.89758  Biso   1.000  C
  C158     1.0000 0.40250  0.51070  0.87250  Biso   1.000  C
  C159     1.0000 0.20970  0.45100  0.91840  Biso   1.000  C
  C160     1.0000 0.18450  0.45040  0.87820  Biso   1.000  C
  C161     1.0000 0.19070  0.40560  0.86340  Biso   1.000  C
  C162     1.0000 0.22900  0.37200  0.88040  Biso   1.000  C
  C163     1.0000 0.25280  0.37670  0.91950  Biso   1.000  C
  C164     1.0000 0.15980  0.39910  0.82030  Biso   1.000  C
  C165     1.0000 0.36572  0.65248  0.18428  Biso   1.000  C
  C166     1.0000 0.36681  0.67615  0.22123  Biso   1.000  C
  C167     1.0000 0.32083  0.67093  0.26561  Biso   1.000  C
  C168     1.0000 0.27129  0.64014  0.27528  Biso   1.000  C
  C169     1.0000 0.27096  0.61595  0.23933  Biso   1.000  C
  C170     1.0000 0.31632  0.62045  0.19311  Biso   1.000  C
  C171     1.0000 0.31044  0.59370  0.15702  Biso   1.000  C
  C172     1.0000 0.36457  0.58608  0.03858  Biso   1.000  C
  C173     1.0000 0.35272  0.56508  0.99848  Biso   1.000  C
  C174     1.0000 0.27680  0.60320  0.98020  Biso   1.000  C
  C175     1.0000 0.95817  0.41582  0.74544  Biso   1.000  C
  C176     1.0000 0.98630  0.42150  0.78250  Biso   1.000  C
  C177     1.0000 0.06570  0.42800  0.77360  Biso   1.000  C
  C178     1.0000 0.10960  0.42730  0.72770  Biso   1.000  C
  C179     1.0000 0.07728  0.42229  0.69355  Biso   1.000  C
  C180     1.0000 0.09720  0.43460  0.81280  Biso   1.000  C
  C181     1.0000 0.80251  0.08868  0.92250  Biso   1.000  C
  C182     1.0000 0.86660  0.08990  0.88210  Biso   1.000  C
  C183     1.0000 0.94600  0.06470  0.87770  Biso   1.000  C
  C184     1.0000 0.97030  0.03780  0.91220  Biso   1.000  C
  C185     1.0000 0.90710  0.03500  0.95420  Biso   1.000  C
  C186     1.0000 0.82453  0.05847  0.95807  Biso   1.000  C
  C187     1.0000 0.76476  0.05065  0.00123  Biso   1.000  C
  C188     1.0000 0.55488  0.08566  0.05418  Biso   1.000  C
  C189     1.0000 0.48926  0.07757  0.09711  Biso   1.000  C
  C190     1.0000 0.41050  0.11460  0.10860  Biso   1.000  C
  C191     1.0000 0.60200  0.19360  0.04000  Biso   1.000  C
  C192     1.0000 0.65950  0.25150  0.03470  Biso   1.000  C
  C193     1.0000 0.51540  0.25960  0.09820  Biso   1.000  C
  C194     1.0000 0.66503  0.02888  0.17406  Biso   1.000  C
  C195     1.0000 0.68030  0.05428  0.20552  Biso   1.000  C
  C196     1.0000 0.64269  0.05480  0.25242  Biso   1.000  C
  C197     1.0000 0.58526  0.02945  0.27023  Biso   1.000  C
  C198     1.0000 0.56701  0.00518  0.23980  Biso   1.000  C
  C199     1.0000 0.60515  0.00266  0.19364  Biso   1.000  C
  C200     1.0000 0.58616  0.97339  0.16389  Biso   1.000  C
  C201     1.0000 0.64850  0.93371  0.05289  Biso   1.000  C
  C202     1.0000 0.64351  0.89758  0.02160  Biso   1.000  C
  C203     1.0000 0.72500  0.87250  0.98930  Biso   1.000  C
  C204     1.0000 0.87190  0.91840  0.04900  Biso   1.000  C
  C205     1.0000 0.93730  0.87820  0.04960  Biso   1.000  C
  C206     1.0000 0.94590  0.86340  0.09440  Biso   1.000  C
  C207     1.0000 0.89060  0.88040  0.12800  Biso   1.000  C
  C208     1.0000 0.82770  0.91950  0.12330  Biso   1.000  C
  C209     1.0000 0.01990  0.82030  0.10090  Biso   1.000  C
  C210     1.0000 0.45000  0.18428  0.84752  Biso   1.000  C
  C211     1.0000 0.41196  0.22123  0.82385  Biso   1.000  C
  C212     1.0000 0.41356  0.26561  0.82907  Biso   1.000  C
  C213     1.0000 0.45343  0.27528  0.85986  Biso   1.000  C
  C214     1.0000 0.48971  0.23933  0.88405  Biso   1.000  C
  C215     1.0000 0.49057  0.19311  0.87955  Biso   1.000  C
  C216     1.0000 0.53254  0.15702  0.90630  Biso   1.000  C
  C217     1.0000 0.59685  0.03858  0.91392  Biso   1.000  C
  C218     1.0000 0.64880  0.99848  0.93492  Biso   1.000  C
  C219     1.0000 0.74300  0.98020  0.89680  Biso   1.000  C
  C220     1.0000 0.29639  0.74544  0.08418  Biso   1.000  C
  C221     1.0000 0.23120  0.78250  0.07850  Biso   1.000  C
  C222     1.0000 0.16070  0.77360  0.07200  Biso   1.000  C
  C223     1.0000 0.16270  0.72770  0.07270  Biso   1.000  C
  C224     1.0000 0.22917  0.69355  0.07771  Biso   1.000  C
  C225     1.0000 0.09000  0.81280  0.06540  Biso   1.000  C
  C226     1.0000 0.31369  0.41132  0.57750  Biso   1.000  C
  C227     1.0000 0.33860  0.41010  0.61790  Biso   1.000  C
  C228     1.0000 0.38840  0.43530  0.62230  Biso   1.000  C
  C229     1.0000 0.42030  0.46220  0.58780  Biso   1.000  C
  C230     1.0000 0.39630  0.46500  0.54580  Biso   1.000  C
  C231     1.0000 0.34107  0.44153  0.54193  Biso   1.000  C
  C232     1.0000 0.31664  0.44935  0.49877  Biso   1.000  C
  C233     1.0000 0.19472  0.41434  0.44582  Biso   1.000  C
  C234     1.0000 0.16394  0.42243  0.40289  Biso   1.000  C
  C235     1.0000 0.13370  0.38540  0.39140  Biso   1.000  C
  C236     1.0000 0.33560  0.30640  0.46000  Biso   1.000  C
  C237     1.0000 0.44570  0.24850  0.46530  Biso   1.000  C
  C238     1.0000 0.37320  0.24040  0.40180  Biso   1.000  C
  C239     1.0000 0.36797  0.47112  0.32594  Biso   1.000  C
  C240     1.0000 0.44010  0.44572  0.29448  Biso   1.000  C
  C241     1.0000 0.44991  0.44520  0.24758  Biso   1.000  C
  C242     1.0000 0.38494  0.47055  0.22977  Biso   1.000  C
  C243     1.0000 0.31199  0.49482  0.26020  Biso   1.000  C
  C244     1.0000 0.30145  0.49734  0.30636  Biso   1.000  C
  C245     1.0000 0.22344  0.52661  0.33611  Biso   1.000  C
  C246     1.0000 0.13510  0.56629  0.44711  Biso   1.000  C
  C247     1.0000 0.06269  0.60242  0.47840  Biso   1.000  C
  C248     1.0000 0.08680  0.62750  0.51070  Biso   1.000  C
  C249     1.0000 0.33930  0.58160  0.45100  Biso   1.000  C
  C250     1.0000 0.36510  0.62180  0.45040  Biso   1.000  C
  C251     1.0000 0.40370  0.63660  0.40560  Biso   1.000  C
  C252     1.0000 0.39900  0.61960  0.37200  Biso   1.000  C
  C253     1.0000 0.37050  0.58050  0.37670  Biso   1.000  C
  C254     1.0000 0.44110  0.67970  0.39910  Biso   1.000  C
  C255     1.0000 0.98180  0.31572  0.65248  Biso   1.000  C
  C256     1.0000 0.95704  0.27877  0.67615  Biso   1.000  C
  C257     1.0000 0.00824  0.23439  0.67093  Biso   1.000  C
  C258     1.0000 0.08857  0.22472  0.64014  Biso   1.000  C
  C259     1.0000 0.11309  0.26067  0.61595  Biso   1.000  C
  C260     1.0000 0.06323  0.30689  0.62045  Biso   1.000  C
  C261     1.0000 0.09586  0.34298  0.59370  Biso   1.000  C
  C262     1.0000 0.04935  0.46142  0.58608  Biso   1.000  C
  C263     1.0000 0.08220  0.50152  0.56508  Biso   1.000  C
  C264     1.0000 0.12000  0.51980  0.60320  Biso   1.000  C
  C265     1.0000 0.62601  0.75456  0.41582  Biso   1.000  C
  C266     1.0000 0.59220  0.71750  0.42150  Biso   1.000  C
  C267     1.0000 0.50630  0.72640  0.42800  Biso   1.000  C
  C268     1.0000 0.46310  0.77230  0.42730  Biso   1.000  C
  C269     1.0000 0.50043  0.80645  0.42229  Biso   1.000  C
  C270     1.0000 0.46820  0.68720  0.43460  Biso   1.000  C
  C271     1.0000 0.72501  0.07750  0.58868  Biso   1.000  C
  C272     1.0000 0.74870  0.11790  0.58990  Biso   1.000  C
  C273     1.0000 0.82370  0.12230  0.56470  Biso   1.000  C
  C274     1.0000 0.88250  0.08780  0.53780  Biso   1.000  C
  C275     1.0000 0.86130  0.04580  0.53500  Biso   1.000  C
  C276     1.0000 0.78260  0.04193  0.55847  Biso   1.000  C
  C277     1.0000 0.76599  0.99877  0.55065  Biso   1.000  C
  C278     1.0000 0.60906  0.94582  0.58566  Biso   1.000  C
  C279     1.0000 0.58637  0.90289  0.57757  Biso   1.000  C
  C280     1.0000 0.51910  0.89140  0.61460  Biso   1.000  C
  C281     1.0000 0.64200  0.96000  0.69360  Biso   1.000  C
  C282     1.0000 0.69420  0.96530  0.75150  Biso   1.000  C
  C283     1.0000 0.61360  0.90180  0.75960  Biso   1.000  C
  C284     1.0000 0.83909  0.82594  0.52888  Biso   1.000  C
  C285     1.0000 0.88582  0.79448  0.55428  Biso   1.000  C
  C286     1.0000 0.89511  0.74758  0.55480  Biso   1.000  C
  C287     1.0000 0.85549  0.72977  0.52945  Biso   1.000  C
  C288     1.0000 0.80681  0.76020  0.50518  Biso   1.000  C
  C289     1.0000 0.79879  0.80636  0.50266  Biso   1.000  C
  C290     1.0000 0.75005  0.83611  0.47339  Biso   1.000  C
  C291     1.0000 0.70139  0.94711  0.43371  Biso   1.000  C
  C292     1.0000 0.66511  0.97840  0.39758  Biso   1.000  C
  C293     1.0000 0.71430  0.01070  0.37250  Biso   1.000  C
  C294     1.0000 0.92090  0.95100  0.41840  Biso   1.000  C
  C295     1.0000 0.98690  0.95040  0.37820  Biso   1.000  C
  C296     1.0000 0.04030  0.90560  0.36340  Biso   1.000  C
  C297     1.0000 0.01860  0.87200  0.38040  Biso   1.000  C
  C298     1.0000 0.95100  0.87670  0.41950  Biso   1.000  C
  C299     1.0000 0.12080  0.89910  0.32030  Biso   1.000  C
  C300     1.0000 0.29752  0.15248  0.68428  Biso   1.000  C
  C301     1.0000 0.23581  0.17615  0.72123  Biso   1.000  C
  C302     1.0000 0.24263  0.17093  0.76561  Biso   1.000  C
  C303     1.0000 0.31329  0.14014  0.77528  Biso   1.000  C
  C304     1.0000 0.37376  0.11595  0.73933  Biso   1.000  C
  C305     1.0000 0.37012  0.12045  0.69311  Biso   1.000  C
  C306     1.0000 0.43884  0.09370  0.65702  Biso   1.000  C
  C307     1.0000 0.51077  0.08608  0.53858  Biso   1.000  C
  C308     1.0000 0.58372  0.06508  0.49848  Biso   1.000  C
  C309     1.0000 0.63980  0.10320  0.48020  Biso   1.000  C
  C310     1.0000 0.38057  0.91582  0.24544  Biso   1.000  C
  C311     1.0000 0.30970  0.92150  0.28250  Biso   1.000  C
  C312     1.0000 0.23270  0.92800  0.27360  Biso   1.000  C
  C313     1.0000 0.23540  0.92730  0.22770  Biso   1.000  C
  C314     1.0000 0.30688  0.92229  0.19355  Biso   1.000  C
  C315     1.0000 0.15540  0.93460  0.31280  Biso   1.000  C
  C316     1.0000 0.89119  0.42250  0.91132  Biso   1.000  C
  C317     1.0000 0.95650  0.38210  0.91010  Biso   1.000  C
  C318     1.0000 0.01070  0.37770  0.93530  Biso   1.000  C
  C319     1.0000 0.00810  0.41220  0.96220  Biso   1.000  C
  C320     1.0000 0.94210  0.45420  0.96500  Biso   1.000  C
  C321     1.0000 0.88300  0.45807  0.94153  Biso   1.000  C
  C322     1.0000 0.81541  0.50123  0.94935  Biso   1.000  C
  C323     1.0000 0.64054  0.55418  0.91434  Biso   1.000  C
  C324     1.0000 0.56683  0.59711  0.92243  Biso   1.000  C
  C325     1.0000 0.52510  0.60860  0.88540  Biso   1.000  C
  C326     1.0000 0.79560  0.54000  0.80640  Biso   1.000  C
  C327     1.0000 0.91100  0.53470  0.74850  Biso   1.000  C
  C328     1.0000 0.77500  0.59820  0.74040  Biso   1.000  C
  C329     1.0000 0.69391  0.67406  0.97112  Biso   1.000  C
  C330     1.0000 0.73458  0.70552  0.94572  Biso   1.000  C
  C331     1.0000 0.69749  0.75242  0.94520  Biso   1.000  C
  C332     1.0000 0.61471  0.77023  0.97055  Biso   1.000  C
  C333     1.0000 0.57219  0.73980  0.99482  Biso   1.000  C
  C334     1.0000 0.60781  0.69364  0.99734  Biso   1.000  C
  C335     1.0000 0.55955  0.66389  0.02661  Biso   1.000  C
  C336     1.0000 0.58221  0.55289  0.06629  Biso   1.000  C
  C337     1.0000 0.54109  0.52160  0.10242  Biso   1.000  C
  C338     1.0000 0.59750  0.48930  0.12750  Biso   1.000  C
  C339     1.0000 0.79030  0.54900  0.08160  Biso   1.000  C
  C340     1.0000 0.81550  0.54960  0.12180  Biso   1.000  C
  C341     1.0000 0.80930  0.59440  0.13660  Biso   1.000  C
  C342     1.0000 0.77100  0.62800  0.11960  Biso   1.000  C
  C343     1.0000 0.74720  0.62330  0.08050  Biso   1.000  C
  C344     1.0000 0.84020  0.60090  0.17970  Biso   1.000  C
  C345     1.0000 0.63428  0.34752  0.81572  Biso   1.000  C
  C346     1.0000 0.63319  0.32385  0.77877  Biso   1.000  C
  C347     1.0000 0.67917  0.32907  0.73439  Biso   1.000  C
  C348     1.0000 0.72871  0.35986  0.72472  Biso   1.000  C
  C349     1.0000 0.72904  0.38405  0.76067  Biso   1.000  C
  C350     1.0000 0.68368  0.37955  0.80689  Biso   1.000  C
  C351     1.0000 0.68956  0.40630  0.84298  Biso   1.000  C
  C352     1.0000 0.63543  0.41392  0.96142  Biso   1.000  C
  C353     1.0000 0.64728  0.43492  0.00152  Biso   1.000  C
  C354     1.0000 0.72320  0.39680  0.01980  Biso   1.000  C
  C355     1.0000 0.04183  0.58418  0.25456  Biso   1.000  C
  C356     1.0000 0.01370  0.57850  0.21750  Biso   1.000  C
  C357     1.0000 0.93430  0.57200  0.22640  Biso   1.000  C
  C358     1.0000 0.89040  0.57270  0.27230  Biso   1.000  C
  C359     1.0000 0.92272  0.57771  0.30645  Biso   1.000  C
  C360     1.0000 0.90280  0.56540  0.18720  Biso   1.000  C
  N1       1.0000 0.31571  0.92725  0.99333  Biso   1.000  N
  N2       1.0000 0.36868  0.93880  0.95084  Biso   1.000  N
  N3       1.0000 0.41280  0.75530  0.94310  Biso   1.000  N
  N4       1.0000 0.37224  0.03230  0.88122  Biso   1.000  N
  N5       1.0000 0.39002  0.06538  0.90398  Biso   1.000  N
  N6       1.0000 0.18099  0.06117  0.91425  Biso   1.000  N
  N7       1.0000 0.46036  0.88727  0.10021  Biso   1.000  N
  N8       1.0000 0.41544  0.91908  0.07364  Biso   1.000  N
  N9       1.0000 0.70213  0.29816  0.91718  Biso   1.000  N
  N10      1.0000 0.73629  0.57275  0.50667  Biso   1.000  N
  N11      1.0000 0.75832  0.56120  0.54916  Biso   1.000  N
  N12      1.0000 0.61120  0.74470  0.55690  Biso   1.000  N
  N13      1.0000 0.78576  0.46770  0.61878  Biso   1.000  N
  N14      1.0000 0.85938  0.43462  0.59602  Biso   1.000  N
  N15      1.0000 0.65641  0.43883  0.58575  Biso   1.000  N
  N16      1.0000 0.94784  0.61273  0.39979  Biso   1.000  N
  N17      1.0000 0.90816  0.58092  0.42636  Biso   1.000  N
  N18      1.0000 0.41747  0.20184  0.58282  Biso   1.000  N
  N19      1.0000 0.30904  0.00667  0.42725  Biso   1.000  N
  N20      1.0000 0.31952  0.04916  0.43880  Biso   1.000  N
  N21      1.0000 0.35590  0.05690  0.25530  Biso   1.000  N
  N22      1.0000 0.25346  0.11878  0.53230  Biso   1.000  N
  N23      1.0000 0.29400  0.09602  0.56538  Biso   1.000  N
  N24      1.0000 0.09524  0.08575  0.56117  Biso   1.000  N
  N25      1.0000 0.56057  0.89979  0.38727  Biso   1.000  N
  N26      1.0000 0.48908  0.92636  0.41908  Biso   1.000  N
  N27      1.0000 0.61931  0.08282  0.79816  Biso   1.000  N
  N28      1.0000 0.24296  0.49333  0.07275  Biso   1.000  N
  N29      1.0000 0.30748  0.45084  0.06120  Biso   1.000  N
  N30      1.0000 0.16810  0.44310  0.24470  Biso   1.000  N
  N31      1.0000 0.40454  0.38122  0.96770  Biso   1.000  N
  N32      1.0000 0.45540  0.40398  0.93462  Biso   1.000  N
  N33      1.0000 0.24216  0.41425  0.93883  Biso   1.000  N
  N34      1.0000 0.34763  0.60021  0.11273  Biso   1.000  N
  N35      1.0000 0.33452  0.57364  0.08092  Biso   1.000  N
  N36      1.0000 0.00029  0.41718  0.70184  Biso   1.000  N
  N37      1.0000 0.68429  0.07275  0.00667  Biso   1.000  N
  N38      1.0000 0.63132  0.06120  0.04916  Biso   1.000  N
  N39      1.0000 0.58720  0.24470  0.05690  Biso   1.000  N
  N40      1.0000 0.62776  0.96770  0.11878  Biso   1.000  N
  N41      1.0000 0.60998  0.93462  0.09602  Biso   1.000  N
  N42      1.0000 0.81901  0.93883  0.08575  Biso   1.000  N
  N43      1.0000 0.53964  0.11273  0.89979  Biso   1.000  N
  N44      1.0000 0.58456  0.08092  0.92636  Biso   1.000  N
  N45      1.0000 0.29787  0.70184  0.08282  Biso   1.000  N
  N46      1.0000 0.26371  0.42725  0.49333  Biso   1.000  N
  N47      1.0000 0.24168  0.43880  0.45084  Biso   1.000  N
  N48      1.0000 0.38880  0.25530  0.44310  Biso   1.000  N
  N49      1.0000 0.21424  0.53230  0.38122  Biso   1.000  N
  N50      1.0000 0.14062  0.56538  0.40398  Biso   1.000  N
  N51      1.0000 0.34359  0.56117  0.41425  Biso   1.000  N
  N52      1.0000 0.05216  0.38727  0.60021  Biso   1.000  N
  N53      1.0000 0.09184  0.41908  0.57364  Biso   1.000  N
  N54      1.0000 0.58253  0.79816  0.41718  Biso   1.000  N
  N55      1.0000 0.69096  0.99333  0.57275  Biso   1.000  N
  N56      1.0000 0.68048  0.95084  0.56120  Biso   1.000  N
  N57      1.0000 0.64410  0.94310  0.74470  Biso   1.000  N
  N58      1.0000 0.74654  0.88122  0.46770  Biso   1.000  N
  N59      1.0000 0.70600  0.90398  0.43462  Biso   1.000  N
  N60      1.0000 0.90476  0.91425  0.43883  Biso   1.000  N
  N61      1.0000 0.43943  0.10021  0.61273  Biso   1.000  N
  N62      1.0000 0.51092  0.07364  0.58092  Biso   1.000  N
  N63      1.0000 0.38069  0.91718  0.20184  Biso   1.000  N
  N64      1.0000 0.75704  0.50667  0.92725  Biso   1.000  N
  N65      1.0000 0.69252  0.54916  0.93880  Biso   1.000  N
  N66      1.0000 0.83190  0.55690  0.75530  Biso   1.000  N
  N67      1.0000 0.59546  0.61878  0.03230  Biso   1.000  N
  N68      1.0000 0.54460  0.59602  0.06538  Biso   1.000  N
  N69      1.0000 0.75784  0.58575  0.06117  Biso   1.000  N
  N70      1.0000 0.65237  0.39979  0.88727  Biso   1.000  N
  N71      1.0000 0.66548  0.42636  0.91908  Biso   1.000  N
  N72      1.0000 0.99971  0.58282  0.29816  Biso   1.000  N
  O1       1.0000 0.27303  0.88340  0.07474  Biso   1.000  O
  O2       1.0000 0.21047  0.97773  0.96873  Biso   1.000  O
  O3       1.0000 0.46685  0.88332  0.97558  Biso   1.000  O
  O4       1.0000 0.36528  0.81819  0.99325  Biso   1.000  O
  O5       1.0000 0.29295  0.97090  0.86980  Biso   1.000  O
  O6       1.0000 0.46927  0.04823  0.81683  Biso   1.000  O
  O7       1.0000 0.30284  0.04000  0.96652  Biso   1.000  O
  O8       1.0000 0.55416  0.85825  0.15983  Biso   1.000  O
  O9       1.0000 0.43804  0.83123  0.06289  Biso   1.000  O
  O10      1.0000 0.43175  0.97101  0.11869  Biso   1.000  O
  O11      1.0000 0.73117  0.61660  0.42526  Biso   1.000  O
  O12      1.0000 0.65693  0.52227  0.53127  Biso   1.000  O
  O13      1.0000 0.82575  0.61668  0.52442  Biso   1.000  O
  O14      1.0000 0.67672  0.68181  0.50675  Biso   1.000  O
  O15      1.0000 0.63365  0.52910  0.63020  Biso   1.000  O
  O16      1.0000 0.83433  0.45177  0.68317  Biso   1.000  O
  O17      1.0000 0.80936  0.46000  0.53348  Biso   1.000  O
  O18      1.0000 0.07224  0.64175  0.34017  Biso   1.000  O
  O19      1.0000 0.83216  0.66877  0.43711  Biso   1.000  O
  O20      1.0000 0.02145  0.52899  0.38131  Biso   1.000  O
  O21      1.0000 0.34777  0.92526  0.38340  Biso   1.000  O
  O22      1.0000 0.17920  0.03127  0.47773  Biso   1.000  O
  O23      1.0000 0.44243  0.02442  0.38332  Biso   1.000  O
  O24      1.0000 0.35853  0.00675  0.31819  Biso   1.000  O
  O25      1.0000 0.16275  0.13020  0.47090  Biso   1.000  O
  O26      1.0000 0.28610  0.18317  0.54823  Biso   1.000  O
  O27      1.0000 0.26936  0.03348  0.54000  Biso   1.000  O
  O28      1.0000 0.71399  0.84017  0.35825  Biso   1.000  O
  O29      1.0000 0.50093  0.93711  0.33123  Biso   1.000  O
  O30      1.0000 0.55044  0.88131  0.47101  Biso   1.000  O
  O31      1.0000 0.15643  0.57474  0.11660  Biso   1.000  O
  O32      1.0000 0.18820  0.46873  0.02227  Biso   1.000  O
  O33      1.0000 0.35017  0.47558  0.11668  Biso   1.000  O
  O34      1.0000 0.18347  0.49325  0.18181  Biso   1.000  O
  O35      1.0000 0.26385  0.36980  0.02910  Biso   1.000  O
  O36      1.0000 0.51750  0.31683  0.95177  Biso   1.000  O
  O37      1.0000 0.34284  0.46652  0.96000  Biso   1.000  O
  O38      1.0000 0.41241  0.65983  0.14175  Biso   1.000  O
  O39      1.0000 0.26927  0.56289  0.16877  Biso   1.000  O
  O40      1.0000 0.40276  0.61869  0.02899  Biso   1.000  O
  O41      1.0000 0.72697  0.11660  0.92526  Biso   1.000  O
  O42      1.0000 0.78953  0.02227  0.03127  Biso   1.000  O
  O43      1.0000 0.53315  0.11668  0.02442  Biso   1.000  O
  O44      1.0000 0.63472  0.18181  0.00675  Biso   1.000  O
  O45      1.0000 0.70705  0.02910  0.13020  Biso   1.000  O
  O46      1.0000 0.53073  0.95177  0.18317  Biso   1.000  O
  O47      1.0000 0.69716  0.96000  0.03348  Biso   1.000  O
  O48      1.0000 0.44584  0.14175  0.84017  Biso   1.000  O
  O49      1.0000 0.56196  0.16877  0.93711  Biso   1.000  O
  O50      1.0000 0.56825  0.02899  0.88131  Biso   1.000  O
  O51      1.0000 0.26883  0.38340  0.57474  Biso   1.000  O
  O52      1.0000 0.34307  0.47773  0.46873  Biso   1.000  O
  O53      1.0000 0.17425  0.38332  0.47558  Biso   1.000  O
  O54      1.0000 0.32328  0.31819  0.49325  Biso   1.000  O
  O55      1.0000 0.36635  0.47090  0.36980  Biso   1.000  O
  O56      1.0000 0.16567  0.54823  0.31683  Biso   1.000  O
  O57      1.0000 0.19064  0.54000  0.46652  Biso   1.000  O
  O58      1.0000 0.92776  0.35825  0.65983  Biso   1.000  O
  O59      1.0000 0.16784  0.33123  0.56289  Biso   1.000  O
  O60      1.0000 0.97855  0.47101  0.61869  Biso   1.000  O
  O61      1.0000 0.65223  0.07474  0.61660  Biso   1.000  O
  O62      1.0000 0.82080  0.96873  0.52227  Biso   1.000  O
  O63      1.0000 0.55757  0.97558  0.61668  Biso   1.000  O
  O64      1.0000 0.64147  0.99325  0.68181  Biso   1.000  O
  O65      1.0000 0.83725  0.86980  0.52910  Biso   1.000  O
  O66      1.0000 0.71390  0.81683  0.45177  Biso   1.000  O
  O67      1.0000 0.73064  0.96652  0.46000  Biso   1.000  O
  O68      1.0000 0.28601  0.15983  0.64175  Biso   1.000  O
  O69      1.0000 0.49907  0.06289  0.66877  Biso   1.000  O
  O70      1.0000 0.44956  0.11869  0.52899  Biso   1.000  O
  O71      1.0000 0.84357  0.42526  0.88340  Biso   1.000  O
  O72      1.0000 0.81180  0.53127  0.97773  Biso   1.000  O
  O73      1.0000 0.64983  0.52442  0.88332  Biso   1.000  O
  O74      1.0000 0.81653  0.50675  0.81819  Biso   1.000  O
  O75      1.0000 0.73615  0.63020  0.97090  Biso   1.000  O
  O76      1.0000 0.48250  0.68317  0.04823  Biso   1.000  O
  O77      1.0000 0.65716  0.53348  0.04000  Biso   1.000  O
  O78      1.0000 0.58759  0.34017  0.85825  Biso   1.000  O
  O79      1.0000 0.73073  0.43711  0.83123  Biso   1.000  O
  O80      1.0000 0.59724  0.38131  0.97101  Biso   1.000  O
