data_image0
_cell_length_a       17.4393
_cell_length_b       30.1741
_cell_length_c       30.1741
_cell_angle_alpha    85.2098
_cell_angle_beta     73.2032
_cell_angle_gamma    73.2033

_symmetry_space_group_name_H-M    P 1
_symmetry_int_tables_number       1

loop_
  _symmetry_equiv_pos_as_xyz
  'x, y, z'

loop_
  _atom_site_label
  _atom_site_occupancy
  _atom_site_fract_x
  _atom_site_fract_y
  _atom_site_fract_z
  _atom_site_thermal_displace_type
  _atom_site_B_iso_or_equiv
  _atom_site_type_symbol
  Mn1      1.0000 0.58880  0.91647  0.35666  Biso   1.000  Mn
  Mn2      1.0000 0.76073  0.88226  0.46406  Biso   1.000  Mn
  Mn3      1.0000 0.29646  0.99811  0.42201  Biso   1.000  Mn
  Mn4      1.0000 0.36194  0.58353  0.14334  Biso   1.000  Mn
  Mn5      1.0000 0.60705  0.61774  0.03594  Biso   1.000  Mn
  Mn6      1.0000 0.21658  0.50189  0.07799  Biso   1.000  Mn
  Mn7      1.0000 0.94547  0.64334  0.41646  Biso   1.000  Mn
  Mn8      1.0000 0.22479  0.53594  0.38226  Biso   1.000  Mn
  Mn9      1.0000 0.71847  0.57799  0.49811  Biso   1.000  Mn
  Mn10     1.0000 0.50527  0.85666  0.08354  Biso   1.000  Mn
  Mn11     1.0000 0.64299  0.96406  0.11774  Biso   1.000  Mn
  Mn12     1.0000 0.29457  0.92201  0.00189  Biso   1.000  Mn
  Mn13     1.0000 0.41120  0.08353  0.64334  Biso   1.000  Mn
  Mn14     1.0000 0.23927  0.11774  0.53594  Biso   1.000  Mn
  Mn15     1.0000 0.70354  0.00189  0.57799  Biso   1.000  Mn
  Mn16     1.0000 0.63806  0.41647  0.85666  Biso   1.000  Mn
  Mn17     1.0000 0.39295  0.38226  0.96406  Biso   1.000  Mn
  Mn18     1.0000 0.78342  0.49811  0.92201  Biso   1.000  Mn
  Mn19     1.0000 0.05453  0.35666  0.58354  Biso   1.000  Mn
  Mn20     1.0000 0.77521  0.46406  0.61774  Biso   1.000  Mn
  Mn21     1.0000 0.28153  0.42201  0.50189  Biso   1.000  Mn
  Mn22     1.0000 0.49473  0.14334  0.91646  Biso   1.000  Mn
  Mn23     1.0000 0.35701  0.03594  0.88226  Biso   1.000  Mn
  Mn24     1.0000 0.70543  0.07799  0.99811  Biso   1.000  Mn
  H1       1.0000 0.58920  0.78490  0.30990  Biso   1.000  H
  H2       1.0000 0.66800  0.71110  0.31750  Biso   1.000  H
  H3       1.0000 0.75950  0.69660  0.36320  Biso   1.000  H
  H4       1.0000 0.76800  0.75690  0.40110  Biso   1.000  H
  H5       1.0000 0.61350  0.02790  0.43350  Biso   1.000  H
  H6       1.0000 0.68270  0.99310  0.45270  Biso   1.000  H
  H7       1.0000 0.71800  0.02460  0.35900  Biso   1.000  H
  H8       1.0000 0.78540  0.99610  0.38330  Biso   1.000  H
  H9       1.0000 0.71020  0.06820  0.43640  Biso   1.000  H
  H10      1.0000 0.71110  0.08950  0.38730  Biso   1.000  H
  H11      1.0000 0.82970  0.04420  0.41820  Biso   1.000  H
  H12      1.0000 0.83470  0.05990  0.36730  Biso   1.000  H
  H13      1.0000 0.76800  0.14190  0.40730  Biso   1.000  H
  H14      1.0000 0.81900  0.11670  0.44170  Biso   1.000  H
  H15      1.0000 0.86510  0.12180  0.38940  Biso   1.000  H
  H16      1.0000 0.77840  0.91460  0.33420  Biso   1.000  H
  H17      1.0000 0.89500  0.91520  0.27560  Biso   1.000  H
  H18      1.0000 0.77320  0.90370  0.18510  Biso   1.000  H
  H19      1.0000 0.65690  0.90690  0.24610  Biso   1.000  H
  H20      1.0000 0.90800  0.93760  0.16340  Biso   1.000  H
  H21      1.0000 0.93280  0.88360  0.16160  Biso   1.000  H
  H22      1.0000 0.97340  0.90190  0.35390  Biso   1.000  H
  H23      1.0000 0.06660  0.94210  0.35270  Biso   1.000  H
  H24      1.0000 0.05460  0.98590  0.41630  Biso   1.000  H
  H25      1.0000 0.94170  0.98910  0.48050  Biso   1.000  H
  H26      1.0000 0.52260  0.92580  0.57500  Biso   1.000  H
  H27      1.0000 0.56550  0.94310  0.60650  Biso   1.000  H
  H28      1.0000 0.51980  0.87790  0.63830  Biso   1.000  H
  H29      1.0000 0.58100  0.84870  0.59510  Biso   1.000  H
  H30      1.0000 0.69560  0.85530  0.61630  Biso   1.000  H
  H31      1.0000 0.63680  0.88780  0.65760  Biso   1.000  H
  H32      1.0000 0.64560  0.79280  0.65300  Biso   1.000  H
  H33      1.0000 0.58580  0.82530  0.69410  Biso   1.000  H
  H34      1.0000 0.76160  0.80190  0.67290  Biso   1.000  H
  H35      1.0000 0.70080  0.83310  0.71490  Biso   1.000  H
  H36      1.0000 0.70550  0.78050  0.71430  Biso   1.000  H
  H37      1.0000 0.75600  0.80280  0.53360  Biso   1.000  H
  H38      1.0000 0.96470  0.75000  0.55440  Biso   1.000  H
  H39      1.0000 0.96850  0.71800  0.51500  Biso   1.000  H
  H40      1.0000 0.96400  0.77040  0.50500  Biso   1.000  H
  H41      1.0000 0.84080  0.69820  0.55540  Biso   1.000  H
  H42      1.0000 0.83950  0.72410  0.59850  Biso   1.000  H
  H43      1.0000 0.76250  0.73850  0.57830  Biso   1.000  H
  H44      1.0000 0.20900  0.07200  0.30860  Biso   1.000  H
  H45      1.0000 0.26950  0.06920  0.22980  Biso   1.000  H
  H46      1.0000 0.40530  0.02380  0.19920  Biso   1.000  H
  H47      1.0000 0.47850  0.98250  0.24870  Biso   1.000  H
  H48      1.0000 0.45600  0.91660  0.50840  Biso   1.000  H
  H49      1.0000 0.52210  0.88980  0.46500  Biso   1.000  H
  H50      1.0000 0.44600  0.84200  0.51560  Biso   1.000  H
  H51      1.0000 0.36510  0.87230  0.50350  Biso   1.000  H
  H52      1.0000 0.50480  0.81850  0.43790  Biso   1.000  H
  H53      1.0000 0.42360  0.84850  0.42610  Biso   1.000  H
  H54      1.0000 0.42890  0.76970  0.48410  Biso   1.000  H
  H55      1.0000 0.34860  0.79930  0.47110  Biso   1.000  H
  H56      1.0000 0.42640  0.77680  0.39160  Biso   1.000  H
  H57      1.0000 0.39380  0.73870  0.42370  Biso   1.000  H
  H58      1.0000 0.48730  0.73860  0.41320  Biso   1.000  H
  H59      1.0000 0.13730  0.98060  0.07120  Biso   1.000  H
  H60      1.0000 0.03380  0.97890  0.13750  Biso   1.000  H
  H61      1.0000 0.11240  0.84200  0.13360  Biso   1.000  H
  H62      1.0000 0.21400  0.84640  0.06720  Biso   1.000  H
  H63      1.0000 0.01560  0.87950  0.20650  Biso   1.000  H
  H64      1.0000 0.98980  0.93380  0.20940  Biso   1.000  H
  H65      1.0000 0.18400  0.71510  0.19010  Biso   1.000  H
  H66      1.0000 0.19660  0.78890  0.18250  Biso   1.000  H
  H67      1.0000 0.31930  0.80340  0.13680  Biso   1.000  H
  H68      1.0000 0.42600  0.74310  0.09890  Biso   1.000  H
  H69      1.0000 0.57490  0.47210  0.06650  Biso   1.000  H
  H70      1.0000 0.62850  0.50690  0.04730  Biso   1.000  H
  H71      1.0000 0.60160  0.47540  0.14100  Biso   1.000  H
  H72      1.0000 0.66480  0.50390  0.11670  Biso   1.000  H
  H73      1.0000 0.71480  0.43180  0.06360  Biso   1.000  H
  H74      1.0000 0.68790  0.41050  0.11270  Biso   1.000  H
  H75      1.0000 0.79210  0.45580  0.08180  Biso   1.000  H
  H76      1.0000 0.76190  0.44010  0.13270  Biso   1.000  H
  H77      1.0000 0.81720  0.35810  0.09270  Biso   1.000  H
  H78      1.0000 0.87740  0.38330  0.05830  Biso   1.000  H
  H79      1.0000 0.87630  0.37820  0.11060  Biso   1.000  H
  H80      1.0000 0.52720  0.58540  0.16580  Biso   1.000  H
  H81      1.0000 0.58580  0.58480  0.22440  Biso   1.000  H
  H82      1.0000 0.36200  0.59630  0.31490  Biso   1.000  H
  H83      1.0000 0.30990  0.59310  0.25390  Biso   1.000  H
  H84      1.0000 0.50900  0.56240  0.33660  Biso   1.000  H
  H85      1.0000 0.47800  0.61640  0.33840  Biso   1.000  H
  H86      1.0000 0.72920  0.59810  0.14610  Biso   1.000  H
  H87      1.0000 0.86140  0.55790  0.14730  Biso   1.000  H
  H88      1.0000 0.95680  0.51410  0.08370  Biso   1.000  H
  H89      1.0000 0.91130  0.51090  0.01950  Biso   1.000  H
  H90      1.0000 0.52340  0.57420  0.92500  Biso   1.000  H
  H91      1.0000 0.61510  0.55690  0.89350  Biso   1.000  H
  H92      1.0000 0.53600  0.62210  0.86170  Biso   1.000  H
  H93      1.0000 0.52480  0.65130  0.90490  Biso   1.000  H
  H94      1.0000 0.66720  0.64470  0.88370  Biso   1.000  H
  H95      1.0000 0.68220  0.61220  0.84240  Biso   1.000  H
  H96      1.0000 0.59140  0.70720  0.84700  Biso   1.000  H
  H97      1.0000 0.60520  0.67470  0.80590  Biso   1.000  H
  H98      1.0000 0.73640  0.69810  0.82710  Biso   1.000  H
  H99      1.0000 0.74880  0.66690  0.78510  Biso   1.000  H
  H100     1.0000 0.70030  0.71950  0.78570  Biso   1.000  H
  H101     1.0000 0.59240  0.69720  0.96640  Biso   1.000  H
  H102     1.0000 0.76910  0.75000  0.94560  Biso   1.000  H
  H103     1.0000 0.70150  0.78200  0.98500  Biso   1.000  H
  H104     1.0000 0.73940  0.72960  0.99500  Biso   1.000  H
  H105     1.0000 0.59440  0.80180  0.94460  Biso   1.000  H
  H106     1.0000 0.66210  0.77590  0.90150  Biso   1.000  H
  H107     1.0000 0.57930  0.76150  0.92170  Biso   1.000  H
  H108     1.0000 0.08960  0.42800  0.19140  Biso   1.000  H
  H109     1.0000 0.06850  0.43080  0.27020  Biso   1.000  H
  H110     1.0000 0.12830  0.47620  0.30080  Biso   1.000  H
  H111     1.0000 0.20970  0.51750  0.25130  Biso   1.000  H
  H112     1.0000 0.38100  0.58340  0.99160  Biso   1.000  H
  H113     1.0000 0.37690  0.61020  0.03500  Biso   1.000  H
  H114     1.0000 0.30360  0.65800  0.98440  Biso   1.000  H
  H115     1.0000 0.24090  0.62770  0.99650  Biso   1.000  H
  H116     1.0000 0.26120  0.68150  0.06210  Biso   1.000  H
  H117     1.0000 0.19820  0.65150  0.07390  Biso   1.000  H
  H118     1.0000 0.18270  0.73030  0.01590  Biso   1.000  H
  H119     1.0000 0.11900  0.70070  0.02890  Biso   1.000  H
  H120     1.0000 0.09480  0.72320  0.10840  Biso   1.000  H
  H121     1.0000 0.05620  0.76130  0.07630  Biso   1.000  H
  H122     1.0000 0.13910  0.76140  0.08680  Biso   1.000  H
  H123     1.0000 0.68910  0.51940  0.42880  Biso   1.000  H
  H124     1.0000 0.65020  0.52110  0.36250  Biso   1.000  H
  H125     1.0000 0.58800  0.65800  0.36640  Biso   1.000  H
  H126     1.0000 0.62760  0.65360  0.43280  Biso   1.000  H
  H127     1.0000 0.60160  0.62050  0.29350  Biso   1.000  H
  H128     1.0000 0.63300  0.56620  0.29060  Biso   1.000  H
  H129     1.0000 0.89910  0.69010  0.28490  Biso   1.000  H
  H130     1.0000 0.98550  0.68250  0.21110  Biso   1.000  H
  H131     1.0000 0.12270  0.63680  0.19660  Biso   1.000  H
  H132     1.0000 0.16910  0.59890  0.25690  Biso   1.000  H
  H133     1.0000 0.04700  0.56650  0.52790  Biso   1.000  H
  H134     1.0000 0.13540  0.54730  0.49310  Biso   1.000  H
  H135     1.0000 0.07700  0.64100  0.52460  Biso   1.000  H
  H136     1.0000 0.16870  0.61670  0.49610  Biso   1.000  H
  H137     1.0000 0.14660  0.56360  0.56820  Biso   1.000  H
  H138     1.0000 0.09840  0.61270  0.58950  Biso   1.000  H
  H139     1.0000 0.24790  0.58180  0.54420  Biso   1.000  H
  H140     1.0000 0.20200  0.63270  0.55990  Biso   1.000  H
  H141     1.0000 0.17530  0.59270  0.64190  Biso   1.000  H
  H142     1.0000 0.26070  0.55830  0.61670  Biso   1.000  H
  H143     1.0000 0.25450  0.61060  0.62180  Biso   1.000  H
  H144     1.0000 0.11260  0.66580  0.41460  Biso   1.000  H
  H145     1.0000 0.17060  0.72440  0.41520  Biso   1.000  H
  H146     1.0000 0.95830  0.81490  0.40370  Biso   1.000  H
  H147     1.0000 0.90300  0.75390  0.40690  Biso   1.000  H
  H148     1.0000 0.07140  0.83660  0.43760  Biso   1.000  H
  H149     1.0000 0.09440  0.83840  0.38360  Biso   1.000  H
  H150     1.0000 0.32730  0.64610  0.40190  Biso   1.000  H
  H151     1.0000 0.41930  0.64730  0.44210  Biso   1.000  H
  H152     1.0000 0.47090  0.58370  0.48590  Biso   1.000  H
  H153     1.0000 0.42220  0.51950  0.48910  Biso   1.000  H
  H154     1.0000 0.09760  0.42500  0.42580  Biso   1.000  H
  H155     1.0000 0.17200  0.39350  0.44310  Biso   1.000  H
  H156     1.0000 0.15810  0.36170  0.37790  Biso   1.000  H
  H157     1.0000 0.17610  0.40490  0.34870  Biso   1.000  H
  H158     1.0000 0.31190  0.38370  0.35530  Biso   1.000  H
  H159     1.0000 0.29440  0.34240  0.38780  Biso   1.000  H
  H160     1.0000 0.29860  0.34700  0.29280  Biso   1.000  H
  H161     1.0000 0.27990  0.30590  0.32530  Biso   1.000  H
  H162     1.0000 0.43450  0.32710  0.30190  Biso   1.000  H
  H163     1.0000 0.41570  0.28510  0.33310  Biso   1.000  H
  H164     1.0000 0.41980  0.28570  0.28050  Biso   1.000  H
  H165     1.0000 0.28960  0.46640  0.30280  Biso   1.000  H
  H166     1.0000 0.51910  0.44560  0.25000  Biso   1.000  H
  H167     1.0000 0.48350  0.48500  0.21800  Biso   1.000  H
  H168     1.0000 0.46900  0.49500  0.27040  Biso   1.000  H
  H169     1.0000 0.39620  0.44460  0.19820  Biso   1.000  H
  H170     1.0000 0.43800  0.40150  0.22410  Biso   1.000  H
  H171     1.0000 0.34080  0.42170  0.23850  Biso   1.000  H
  H172     1.0000 0.51760  0.69140  0.57200  Biso   1.000  H
  H173     1.0000 0.49930  0.77020  0.56920  Biso   1.000  H
  H174     1.0000 0.60450  0.80080  0.52380  Biso   1.000  H
  H175     1.0000 0.72720  0.75130  0.48250  Biso   1.000  H
  H176     1.0000 0.96440  0.49160  0.41660  Biso   1.000  H
  H177     1.0000 0.98710  0.53500  0.38980  Biso   1.000  H
  H178     1.0000 0.96160  0.48440  0.34200  Biso   1.000  H
  H179     1.0000 0.86860  0.49650  0.37230  Biso   1.000  H
  H180     1.0000 0.94270  0.56210  0.31850  Biso   1.000  H
  H181     1.0000 0.84970  0.57390  0.34850  Biso   1.000  H
  H182     1.0000 0.91300  0.51590  0.26970  Biso   1.000  H
  H183     1.0000 0.81970  0.52890  0.29930  Biso   1.000  H
  H184     1.0000 0.81800  0.60840  0.27680  Biso   1.000  H
  H185     1.0000 0.81750  0.57630  0.23870  Biso   1.000  H
  H186     1.0000 0.90050  0.58680  0.23860  Biso   1.000  H
  H187     1.0000 0.20850  0.92880  0.48060  Biso   1.000  H
  H188     1.0000 0.17130  0.86250  0.47890  Biso   1.000  H
  H189     1.0000 0.24600  0.86640  0.34200  Biso   1.000  H
  H190     1.0000 0.28120  0.93280  0.34640  Biso   1.000  H
  H191     1.0000 0.22210  0.79350  0.37950  Biso   1.000  H
  H192     1.0000 0.19920  0.79060  0.43380  Biso   1.000  H
  H193     1.0000 0.37410  0.80990  0.21510  Biso   1.000  H
  H194     1.0000 0.37910  0.81750  0.28890  Biso   1.000  H
  H195     1.0000 0.45610  0.86320  0.30340  Biso   1.000  H
  H196     1.0000 0.52490  0.90110  0.24310  Biso   1.000  H
  H197     1.0000 0.64140  0.93350  0.97210  Biso   1.000  H
  H198     1.0000 0.67580  0.95270  0.00690  Biso   1.000  H
  H199     1.0000 0.74260  0.85900  0.97540  Biso   1.000  H
  H200     1.0000 0.78150  0.88330  0.00390  Biso   1.000  H
  H201     1.0000 0.77840  0.93640  0.93180  Biso   1.000  H
  H202     1.0000 0.80060  0.88730  0.91050  Biso   1.000  H
  H203     1.0000 0.87390  0.91820  0.95580  Biso   1.000  H
  H204     1.0000 0.89460  0.86730  0.94010  Biso   1.000  H
  H205     1.0000 0.90990  0.90730  0.85810  Biso   1.000  H
  H206     1.0000 0.93570  0.94170  0.88330  Biso   1.000  H
  H207     1.0000 0.98690  0.88940  0.87820  Biso   1.000  H
  H208     1.0000 0.69300  0.83420  0.08540  Biso   1.000  H
  H209     1.0000 0.81020  0.77560  0.08480  Biso   1.000  H
  H210     1.0000 0.67690  0.68510  0.09630  Biso   1.000  H
  H211     1.0000 0.56380  0.74610  0.09310  Biso   1.000  H
  H212     1.0000 0.84560  0.66340  0.06240  Biso   1.000  H
  H213     1.0000 0.81640  0.66160  0.11640  Biso   1.000  H
  H214     1.0000 0.87530  0.85390  0.09810  Biso   1.000  H
  H215     1.0000 0.00870  0.85270  0.05790  Biso   1.000  H
  H216     1.0000 0.04050  0.91630  0.01410  Biso   1.000  H
  H217     1.0000 0.93080  0.98050  0.01090  Biso   1.000  H
  H218     1.0000 0.44840  0.07500  0.07420  Biso   1.000  H
  H219     1.0000 0.50860  0.10650  0.05690  Biso   1.000  H
  H220     1.0000 0.39770  0.13830  0.12210  Biso   1.000  H
  H221     1.0000 0.42970  0.09510  0.15130  Biso   1.000  H
  H222     1.0000 0.55090  0.11630  0.14470  Biso   1.000  H
  H223     1.0000 0.52460  0.15760  0.11220  Biso   1.000  H
  H224     1.0000 0.43840  0.15300  0.20720  Biso   1.000  H
  H225     1.0000 0.41110  0.19410  0.17470  Biso   1.000  H
  H226     1.0000 0.56350  0.17290  0.19810  Biso   1.000  H
  H227     1.0000 0.53390  0.21490  0.16690  Biso   1.000  H
  H228     1.0000 0.48600  0.21430  0.21950  Biso   1.000  H
  H229     1.0000 0.55880  0.03360  0.19720  Biso   1.000  H
  H230     1.0000 0.71470  0.05440  0.25000  Biso   1.000  H
  H231     1.0000 0.68650  0.01500  0.28200  Biso   1.000  H
  H232     1.0000 0.73440  0.00500  0.22960  Biso   1.000  H
  H233     1.0000 0.53900  0.05540  0.30180  Biso   1.000  H
  H234     1.0000 0.56360  0.09850  0.27590  Biso   1.000  H
  H235     1.0000 0.50100  0.07830  0.26150  Biso   1.000  H
  H236     1.0000 0.28100  0.80860  0.92800  Biso   1.000  H
  H237     1.0000 0.33870  0.72980  0.93080  Biso   1.000  H
  H238     1.0000 0.42910  0.69920  0.97620  Biso   1.000  H
  H239     1.0000 0.46100  0.74870  0.01750  Biso   1.000  H
  H240     1.0000 0.37260  0.00840  0.08340  Biso   1.000  H
  H241     1.0000 0.41190  0.96500  0.11020  Biso   1.000  H
  H242     1.0000 0.28800  0.01560  0.15800  Biso   1.000  H
  H243     1.0000 0.23740  0.00350  0.12770  Biso   1.000  H
  H244     1.0000 0.32330  0.93790  0.18150  Biso   1.000  H
  H245     1.0000 0.27210  0.92610  0.15150  Biso   1.000  H
  H246     1.0000 0.19860  0.98410  0.23030  Biso   1.000  H
  H247     1.0000 0.14790  0.97110  0.20070  Biso   1.000  H
  H248     1.0000 0.20320  0.89160  0.22320  Biso   1.000  H
  H249     1.0000 0.13250  0.92370  0.26130  Biso   1.000  H
  H250     1.0000 0.22590  0.91320  0.26140  Biso   1.000  H
  H251     1.0000 0.11790  0.57120  0.01940  Biso   1.000  H
  H252     1.0000 0.01270  0.63750  0.02110  Biso   1.000  H
  H253     1.0000 0.95440  0.63360  0.15800  Biso   1.000  H
  H254     1.0000 0.06040  0.56720  0.15360  Biso   1.000  H
  H255     1.0000 0.89510  0.70650  0.12050  Biso   1.000  H
  H256     1.0000 0.92360  0.70940  0.06620  Biso   1.000  H
  H257     1.0000 0.41080  0.21510  0.69010  Biso   1.000  H
  H258     1.0000 0.33200  0.28890  0.68250  Biso   1.000  H
  H259     1.0000 0.24050  0.30340  0.63680  Biso   1.000  H
  H260     1.0000 0.23200  0.24310  0.59890  Biso   1.000  H
  H261     1.0000 0.38650  0.97210  0.56650  Biso   1.000  H
  H262     1.0000 0.31730  0.00690  0.54730  Biso   1.000  H
  H263     1.0000 0.28200  0.97540  0.64100  Biso   1.000  H
  H264     1.0000 0.21460  0.00390  0.61670  Biso   1.000  H
  H265     1.0000 0.28980  0.93180  0.56360  Biso   1.000  H
  H266     1.0000 0.28890  0.91050  0.61270  Biso   1.000  H
  H267     1.0000 0.17030  0.95580  0.58180  Biso   1.000  H
  H268     1.0000 0.16530  0.94010  0.63270  Biso   1.000  H
  H269     1.0000 0.23200  0.85810  0.59270  Biso   1.000  H
  H270     1.0000 0.18100  0.88330  0.55830  Biso   1.000  H
  H271     1.0000 0.13490  0.87820  0.61060  Biso   1.000  H
  H272     1.0000 0.22160  0.08540  0.66580  Biso   1.000  H
  H273     1.0000 0.10500  0.08480  0.72440  Biso   1.000  H
  H274     1.0000 0.22680  0.09630  0.81490  Biso   1.000  H
  H275     1.0000 0.34310  0.09310  0.75390  Biso   1.000  H
  H276     1.0000 0.09200  0.06240  0.83660  Biso   1.000  H
  H277     1.0000 0.06720  0.11640  0.83840  Biso   1.000  H
  H278     1.0000 0.02660  0.09810  0.64610  Biso   1.000  H
  H279     1.0000 0.93340  0.05790  0.64730  Biso   1.000  H
  H280     1.0000 0.94540  0.01410  0.58370  Biso   1.000  H
  H281     1.0000 0.05830  0.01090  0.51950  Biso   1.000  H
  H282     1.0000 0.47740  0.07420  0.42500  Biso   1.000  H
  H283     1.0000 0.43450  0.05690  0.39350  Biso   1.000  H
  H284     1.0000 0.48020  0.12210  0.36170  Biso   1.000  H
  H285     1.0000 0.41900  0.15130  0.40490  Biso   1.000  H
  H286     1.0000 0.30440  0.14470  0.38370  Biso   1.000  H
  H287     1.0000 0.36320  0.11220  0.34240  Biso   1.000  H
  H288     1.0000 0.35440  0.20720  0.34700  Biso   1.000  H
  H289     1.0000 0.41420  0.17470  0.30590  Biso   1.000  H
  H290     1.0000 0.23840  0.19810  0.32710  Biso   1.000  H
  H291     1.0000 0.29920  0.16690  0.28510  Biso   1.000  H
  H292     1.0000 0.29450  0.21950  0.28570  Biso   1.000  H
  H293     1.0000 0.24400  0.19720  0.46640  Biso   1.000  H
  H294     1.0000 0.03530  0.25000  0.44560  Biso   1.000  H
  H295     1.0000 0.03150  0.28200  0.48500  Biso   1.000  H
  H296     1.0000 0.03600  0.22960  0.49500  Biso   1.000  H
  H297     1.0000 0.15920  0.30180  0.44460  Biso   1.000  H
  H298     1.0000 0.16050  0.27590  0.40150  Biso   1.000  H
  H299     1.0000 0.23750  0.26150  0.42170  Biso   1.000  H
  H300     1.0000 0.79100  0.92800  0.69140  Biso   1.000  H
  H301     1.0000 0.73050  0.93080  0.77020  Biso   1.000  H
  H302     1.0000 0.59470  0.97620  0.80080  Biso   1.000  H
  H303     1.0000 0.52150  0.01750  0.75130  Biso   1.000  H
  H304     1.0000 0.54400  0.08340  0.49160  Biso   1.000  H
  H305     1.0000 0.47790  0.11020  0.53500  Biso   1.000  H
  H306     1.0000 0.55400  0.15800  0.48440  Biso   1.000  H
  H307     1.0000 0.63490  0.12770  0.49650  Biso   1.000  H
  H308     1.0000 0.49520  0.18150  0.56210  Biso   1.000  H
  H309     1.0000 0.57640  0.15150  0.57390  Biso   1.000  H
  H310     1.0000 0.57110  0.23030  0.51590  Biso   1.000  H
  H311     1.0000 0.65140  0.20070  0.52890  Biso   1.000  H
  H312     1.0000 0.57360  0.22320  0.60840  Biso   1.000  H
  H313     1.0000 0.60620  0.26130  0.57630  Biso   1.000  H
  H314     1.0000 0.51270  0.26140  0.58680  Biso   1.000  H
  H315     1.0000 0.86270  0.01940  0.92880  Biso   1.000  H
  H316     1.0000 0.96620  0.02110  0.86250  Biso   1.000  H
  H317     1.0000 0.88760  0.15800  0.86640  Biso   1.000  H
  H318     1.0000 0.78600  0.15360  0.93280  Biso   1.000  H
  H319     1.0000 0.98440  0.12050  0.79350  Biso   1.000  H
  H320     1.0000 0.01020  0.06620  0.79060  Biso   1.000  H
  H321     1.0000 0.81600  0.28490  0.80990  Biso   1.000  H
  H322     1.0000 0.80340  0.21110  0.81750  Biso   1.000  H
  H323     1.0000 0.68070  0.19660  0.86320  Biso   1.000  H
  H324     1.0000 0.57400  0.25690  0.90110  Biso   1.000  H
  H325     1.0000 0.42510  0.52790  0.93350  Biso   1.000  H
  H326     1.0000 0.37150  0.49310  0.95270  Biso   1.000  H
  H327     1.0000 0.39840  0.52460  0.85900  Biso   1.000  H
  H328     1.0000 0.33520  0.49610  0.88330  Biso   1.000  H
  H329     1.0000 0.28520  0.56820  0.93640  Biso   1.000  H
  H330     1.0000 0.31210  0.58950  0.88730  Biso   1.000  H
  H331     1.0000 0.20790  0.54420  0.91820  Biso   1.000  H
  H332     1.0000 0.23810  0.55990  0.86730  Biso   1.000  H
  H333     1.0000 0.18280  0.64190  0.90730  Biso   1.000  H
  H334     1.0000 0.12260  0.61670  0.94170  Biso   1.000  H
  H335     1.0000 0.12370  0.62180  0.88940  Biso   1.000  H
  H336     1.0000 0.47280  0.41460  0.83420  Biso   1.000  H
  H337     1.0000 0.41420  0.41520  0.77560  Biso   1.000  H
  H338     1.0000 0.63800  0.40370  0.68510  Biso   1.000  H
  H339     1.0000 0.69010  0.40690  0.74610  Biso   1.000  H
  H340     1.0000 0.49100  0.43760  0.66340  Biso   1.000  H
  H341     1.0000 0.52200  0.38360  0.66160  Biso   1.000  H
  H342     1.0000 0.27080  0.40190  0.85390  Biso   1.000  H
  H343     1.0000 0.13860  0.44210  0.85270  Biso   1.000  H
  H344     1.0000 0.04320  0.48590  0.91630  Biso   1.000  H
  H345     1.0000 0.08870  0.48910  0.98050  Biso   1.000  H
  H346     1.0000 0.47660  0.42580  0.07500  Biso   1.000  H
  H347     1.0000 0.38490  0.44310  0.10650  Biso   1.000  H
  H348     1.0000 0.46400  0.37790  0.13830  Biso   1.000  H
  H349     1.0000 0.47520  0.34870  0.09510  Biso   1.000  H
  H350     1.0000 0.33280  0.35530  0.11630  Biso   1.000  H
  H351     1.0000 0.31780  0.38780  0.15760  Biso   1.000  H
  H352     1.0000 0.40860  0.29280  0.15300  Biso   1.000  H
  H353     1.0000 0.39480  0.32530  0.19410  Biso   1.000  H
  H354     1.0000 0.26360  0.30190  0.17290  Biso   1.000  H
  H355     1.0000 0.25120  0.33310  0.21490  Biso   1.000  H
  H356     1.0000 0.29970  0.28050  0.21430  Biso   1.000  H
  H357     1.0000 0.40760  0.30280  0.03360  Biso   1.000  H
  H358     1.0000 0.23090  0.25000  0.05440  Biso   1.000  H
  H359     1.0000 0.29850  0.21800  0.01500  Biso   1.000  H
  H360     1.0000 0.26060  0.27040  0.00500  Biso   1.000  H
  H361     1.0000 0.40560  0.19820  0.05540  Biso   1.000  H
  H362     1.0000 0.33790  0.22410  0.09850  Biso   1.000  H
  H363     1.0000 0.42070  0.23850  0.07830  Biso   1.000  H
  H364     1.0000 0.91040  0.57200  0.80860  Biso   1.000  H
  H365     1.0000 0.93150  0.56920  0.72980  Biso   1.000  H
  H366     1.0000 0.87170  0.52380  0.69920  Biso   1.000  H
  H367     1.0000 0.79030  0.48250  0.74870  Biso   1.000  H
  H368     1.0000 0.61900  0.41660  0.00840  Biso   1.000  H
  H369     1.0000 0.62310  0.38980  0.96500  Biso   1.000  H
  H370     1.0000 0.69640  0.34200  0.01560  Biso   1.000  H
  H371     1.0000 0.75910  0.37230  0.00350  Biso   1.000  H
  H372     1.0000 0.73880  0.31850  0.93790  Biso   1.000  H
  H373     1.0000 0.80180  0.34850  0.92610  Biso   1.000  H
  H374     1.0000 0.81730  0.26970  0.98410  Biso   1.000  H
  H375     1.0000 0.88100  0.29930  0.97110  Biso   1.000  H
  H376     1.0000 0.90520  0.27680  0.89160  Biso   1.000  H
  H377     1.0000 0.94380  0.23870  0.92370  Biso   1.000  H
  H378     1.0000 0.86090  0.23860  0.91320  Biso   1.000  H
  H379     1.0000 0.31090  0.48060  0.57120  Biso   1.000  H
  H380     1.0000 0.34980  0.47890  0.63750  Biso   1.000  H
  H381     1.0000 0.41200  0.34200  0.63360  Biso   1.000  H
  H382     1.0000 0.37240  0.34640  0.56720  Biso   1.000  H
  H383     1.0000 0.39840  0.37950  0.70650  Biso   1.000  H
  H384     1.0000 0.36700  0.43380  0.70940  Biso   1.000  H
  H385     1.0000 0.10090  0.30990  0.71510  Biso   1.000  H
  H386     1.0000 0.01450  0.31750  0.78890  Biso   1.000  H
  H387     1.0000 0.87730  0.36320  0.80340  Biso   1.000  H
  H388     1.0000 0.83090  0.40110  0.74310  Biso   1.000  H
  H389     1.0000 0.95300  0.43350  0.47210  Biso   1.000  H
  H390     1.0000 0.86460  0.45270  0.50690  Biso   1.000  H
  H391     1.0000 0.92300  0.35900  0.47540  Biso   1.000  H
  H392     1.0000 0.83130  0.38330  0.50390  Biso   1.000  H
  H393     1.0000 0.85340  0.43640  0.43180  Biso   1.000  H
  H394     1.0000 0.90160  0.38730  0.41050  Biso   1.000  H
  H395     1.0000 0.75210  0.41820  0.45580  Biso   1.000  H
  H396     1.0000 0.79800  0.36730  0.44010  Biso   1.000  H
  H397     1.0000 0.82470  0.40730  0.35810  Biso   1.000  H
  H398     1.0000 0.73930  0.44170  0.38330  Biso   1.000  H
  H399     1.0000 0.74550  0.38940  0.37820  Biso   1.000  H
  H400     1.0000 0.88740  0.33420  0.58540  Biso   1.000  H
  H401     1.0000 0.82940  0.27560  0.58480  Biso   1.000  H
  H402     1.0000 0.04170  0.18510  0.59630  Biso   1.000  H
  H403     1.0000 0.09700  0.24610  0.59310  Biso   1.000  H
  H404     1.0000 0.92860  0.16340  0.56240  Biso   1.000  H
  H405     1.0000 0.90560  0.16160  0.61640  Biso   1.000  H
  H406     1.0000 0.67270  0.35390  0.59810  Biso   1.000  H
  H407     1.0000 0.58070  0.35270  0.55790  Biso   1.000  H
  H408     1.0000 0.52910  0.41630  0.51410  Biso   1.000  H
  H409     1.0000 0.57780  0.48050  0.51090  Biso   1.000  H
  H410     1.0000 0.90240  0.57500  0.57420  Biso   1.000  H
  H411     1.0000 0.82800  0.60650  0.55690  Biso   1.000  H
  H412     1.0000 0.84190  0.63830  0.62210  Biso   1.000  H
  H413     1.0000 0.82390  0.59510  0.65130  Biso   1.000  H
  H414     1.0000 0.68810  0.61630  0.64470  Biso   1.000  H
  H415     1.0000 0.70560  0.65760  0.61220  Biso   1.000  H
  H416     1.0000 0.70140  0.65300  0.70720  Biso   1.000  H
  H417     1.0000 0.72010  0.69410  0.67470  Biso   1.000  H
  H418     1.0000 0.56550  0.67290  0.69810  Biso   1.000  H
  H419     1.0000 0.58430  0.71490  0.66690  Biso   1.000  H
  H420     1.0000 0.58020  0.71430  0.71950  Biso   1.000  H
  H421     1.0000 0.71040  0.53360  0.69720  Biso   1.000  H
  H422     1.0000 0.48090  0.55440  0.75000  Biso   1.000  H
  H423     1.0000 0.51650  0.51500  0.78200  Biso   1.000  H
  H424     1.0000 0.53100  0.50500  0.72960  Biso   1.000  H
  H425     1.0000 0.60380  0.55540  0.80180  Biso   1.000  H
  H426     1.0000 0.56200  0.59850  0.77590  Biso   1.000  H
  H427     1.0000 0.65920  0.57830  0.76150  Biso   1.000  H
  H428     1.0000 0.48240  0.30860  0.42800  Biso   1.000  H
  H429     1.0000 0.50070  0.22980  0.43080  Biso   1.000  H
  H430     1.0000 0.39550  0.19920  0.47620  Biso   1.000  H
  H431     1.0000 0.27280  0.24870  0.51750  Biso   1.000  H
  H432     1.0000 0.03560  0.50840  0.58340  Biso   1.000  H
  H433     1.0000 0.01290  0.46500  0.61020  Biso   1.000  H
  H434     1.0000 0.03840  0.51560  0.65800  Biso   1.000  H
  H435     1.0000 0.13140  0.50350  0.62770  Biso   1.000  H
  H436     1.0000 0.05730  0.43790  0.68150  Biso   1.000  H
  H437     1.0000 0.15030  0.42610  0.65150  Biso   1.000  H
  H438     1.0000 0.08700  0.48410  0.73030  Biso   1.000  H
  H439     1.0000 0.18030  0.47110  0.70070  Biso   1.000  H
  H440     1.0000 0.18200  0.39160  0.72320  Biso   1.000  H
  H441     1.0000 0.18250  0.42370  0.76130  Biso   1.000  H
  H442     1.0000 0.09950  0.41320  0.76140  Biso   1.000  H
  H443     1.0000 0.79150  0.07120  0.51940  Biso   1.000  H
  H444     1.0000 0.82870  0.13750  0.52110  Biso   1.000  H
  H445     1.0000 0.75400  0.13360  0.65800  Biso   1.000  H
  H446     1.0000 0.71880  0.06720  0.65360  Biso   1.000  H
  H447     1.0000 0.77790  0.20650  0.62050  Biso   1.000  H
  H448     1.0000 0.80080  0.20940  0.56620  Biso   1.000  H
  H449     1.0000 0.62590  0.19010  0.78490  Biso   1.000  H
  H450     1.0000 0.62090  0.18250  0.71110  Biso   1.000  H
  H451     1.0000 0.54390  0.13680  0.69660  Biso   1.000  H
  H452     1.0000 0.47510  0.09890  0.75690  Biso   1.000  H
  H453     1.0000 0.35860  0.06650  0.02790  Biso   1.000  H
  H454     1.0000 0.32420  0.04730  0.99310  Biso   1.000  H
  H455     1.0000 0.25740  0.14100  0.02460  Biso   1.000  H
  H456     1.0000 0.21850  0.11670  0.99610  Biso   1.000  H
  H457     1.0000 0.22160  0.06360  0.06820  Biso   1.000  H
  H458     1.0000 0.19940  0.11270  0.08950  Biso   1.000  H
  H459     1.0000 0.12610  0.08180  0.04420  Biso   1.000  H
  H460     1.0000 0.10540  0.13270  0.05990  Biso   1.000  H
  H461     1.0000 0.09010  0.09270  0.14190  Biso   1.000  H
  H462     1.0000 0.06430  0.05830  0.11670  Biso   1.000  H
  H463     1.0000 0.01310  0.11060  0.12180  Biso   1.000  H
  H464     1.0000 0.30700  0.16580  0.91460  Biso   1.000  H
  H465     1.0000 0.18980  0.22440  0.91520  Biso   1.000  H
  H466     1.0000 0.32310  0.31490  0.90370  Biso   1.000  H
  H467     1.0000 0.43620  0.25390  0.90690  Biso   1.000  H
  H468     1.0000 0.15440  0.33660  0.93760  Biso   1.000  H
  H469     1.0000 0.18360  0.33840  0.88360  Biso   1.000  H
  H470     1.0000 0.12470  0.14610  0.90190  Biso   1.000  H
  H471     1.0000 0.99130  0.14730  0.94210  Biso   1.000  H
  H472     1.0000 0.95950  0.08370  0.98590  Biso   1.000  H
  H473     1.0000 0.06920  0.01950  0.98910  Biso   1.000  H
  H474     1.0000 0.55160  0.92500  0.92580  Biso   1.000  H
  H475     1.0000 0.49140  0.89350  0.94310  Biso   1.000  H
  H476     1.0000 0.60230  0.86170  0.87790  Biso   1.000  H
  H477     1.0000 0.57030  0.90490  0.84870  Biso   1.000  H
  H478     1.0000 0.44910  0.88370  0.85530  Biso   1.000  H
  H479     1.0000 0.47540  0.84240  0.88780  Biso   1.000  H
  H480     1.0000 0.56160  0.84700  0.79280  Biso   1.000  H
  H481     1.0000 0.58890  0.80590  0.82530  Biso   1.000  H
  H482     1.0000 0.43650  0.82710  0.80190  Biso   1.000  H
  H483     1.0000 0.46610  0.78510  0.83310  Biso   1.000  H
  H484     1.0000 0.51400  0.78570  0.78050  Biso   1.000  H
  H485     1.0000 0.44120  0.96640  0.80280  Biso   1.000  H
  H486     1.0000 0.28530  0.94560  0.75000  Biso   1.000  H
  H487     1.0000 0.31350  0.98500  0.71800  Biso   1.000  H
  H488     1.0000 0.26560  0.99500  0.77040  Biso   1.000  H
  H489     1.0000 0.46100  0.94460  0.69820  Biso   1.000  H
  H490     1.0000 0.43640  0.90150  0.72410  Biso   1.000  H
  H491     1.0000 0.49900  0.92170  0.73850  Biso   1.000  H
  H492     1.0000 0.71900  0.19140  0.07200  Biso   1.000  H
  H493     1.0000 0.66130  0.27020  0.06920  Biso   1.000  H
  H494     1.0000 0.57090  0.30080  0.02380  Biso   1.000  H
  H495     1.0000 0.53900  0.25130  0.98250  Biso   1.000  H
  H496     1.0000 0.62740  0.99160  0.91660  Biso   1.000  H
  H497     1.0000 0.58810  0.03500  0.88980  Biso   1.000  H
  H498     1.0000 0.71200  0.98440  0.84200  Biso   1.000  H
  H499     1.0000 0.76260  0.99650  0.87230  Biso   1.000  H
  H500     1.0000 0.67670  0.06210  0.81850  Biso   1.000  H
  H501     1.0000 0.72790  0.07390  0.84850  Biso   1.000  H
  H502     1.0000 0.80140  0.01590  0.76970  Biso   1.000  H
  H503     1.0000 0.85210  0.02890  0.79930  Biso   1.000  H
  H504     1.0000 0.79680  0.10840  0.77680  Biso   1.000  H
  H505     1.0000 0.86750  0.07630  0.73870  Biso   1.000  H
  H506     1.0000 0.77410  0.08680  0.73860  Biso   1.000  H
  H507     1.0000 0.88210  0.42880  0.98060  Biso   1.000  H
  H508     1.0000 0.98730  0.36250  0.97890  Biso   1.000  H
  H509     1.0000 0.04560  0.36640  0.84200  Biso   1.000  H
  H510     1.0000 0.93960  0.43280  0.84640  Biso   1.000  H
  H511     1.0000 0.10490  0.29350  0.87950  Biso   1.000  H
  H512     1.0000 0.07640  0.29060  0.93380  Biso   1.000  H
  C1       1.0000 0.63111  0.81677  0.35041  Biso   1.000  C
  C2       1.0000 0.62570  0.77955  0.32825  Biso   1.000  C
  C3       1.0000 0.67265  0.73532  0.33278  Biso   1.000  C
  C4       1.0000 0.72708  0.72653  0.36011  Biso   1.000  C
  C5       1.0000 0.73224  0.76278  0.38234  Biso   1.000  C
  C6       1.0000 0.68653  0.80793  0.37801  Biso   1.000  C
  C7       1.0000 0.69767  0.84461  0.40345  Biso   1.000  C
  C8       1.0000 0.64610  0.96285  0.40755  Biso   1.000  C
  C9       1.0000 0.66414  0.00263  0.42509  Biso   1.000  C
  C10      1.0000 0.73236  0.01955  0.38813  Biso   1.000  C
  C11      1.0000 0.73990  0.06410  0.40370  Biso   1.000  C
  C12      1.0000 0.80340  0.06760  0.39920  Biso   1.000  C
  C13      1.0000 0.81500  0.11720  0.41060  Biso   1.000  C
  C14      1.0000 0.77686  0.91331  0.30377  Biso   1.000  C
  C15      1.0000 0.84730  0.91310  0.26890  Biso   1.000  C
  C16      1.0000 0.84714  0.90960  0.22272  Biso   1.000  C
  C17      1.0000 0.77525  0.90672  0.21518  Biso   1.000  C
  C18      1.0000 0.70565  0.90830  0.25200  Biso   1.000  C
  C19      1.0000 0.92280  0.90980  0.18120  Biso   1.000  C
  C20      1.0000 0.90167  0.91826  0.41960  Biso   1.000  C
  C21      1.0000 0.96727  0.91848  0.37998  Biso   1.000  C
  C22      1.0000 0.02284  0.94311  0.37921  Biso   1.000  C
  C23      1.0000 0.01596  0.96986  0.41702  Biso   1.000  C
  C24      1.0000 0.94884  0.97102  0.45530  Biso   1.000  C
  C25      1.0000 0.89082  0.94625  0.45791  Biso   1.000  C
  C26      1.0000 0.81992  0.95213  0.49903  Biso   1.000  C
  C27      1.0000 0.64885  0.91287  0.54663  Biso   1.000  C
  C28      1.0000 0.57104  0.91794  0.58678  Biso   1.000  C
  C29      1.0000 0.57316  0.87405  0.61523  Biso   1.000  C
  C30      1.0000 0.64201  0.86155  0.63943  Biso   1.000  C
  C31      1.0000 0.63948  0.81926  0.67118  Biso   1.000  C
  C32      1.0000 0.70820  0.80762  0.69558  Biso   1.000  C
  C33      1.0000 0.81360  0.79739  0.52401  Biso   1.000  C
  C34      1.0000 0.94574  0.74874  0.52778  Biso   1.000  C
  C35      1.0000 0.82216  0.72756  0.57072  Biso   1.000  C
  C36      1.0000 0.30714  0.02788  0.32724  Biso   1.000  C
  C37      1.0000 0.26317  0.05367  0.29679  Biso   1.000  C
  C38      1.0000 0.29964  0.05212  0.24940  Biso   1.000  C
  C39      1.0000 0.38081  0.02519  0.23099  Biso   1.000  C
  C40      1.0000 0.42409  0.00054  0.26088  Biso   1.000  C
  C41      1.0000 0.38924  0.00154  0.30918  Biso   1.000  C
  C42      1.0000 0.44101  0.97310  0.33768  Biso   1.000  C
  C43      1.0000 0.42188  0.93521  0.44863  Biso   1.000  C
  C44      1.0000 0.46291  0.90119  0.47999  Biso   1.000  C
  C45      1.0000 0.42508  0.86053  0.49151  Biso   1.000  C
  C46      1.0000 0.44471  0.82976  0.45002  Biso   1.000  C
  C47      1.0000 0.40880  0.78818  0.45982  Biso   1.000  C
  C48      1.0000 0.43110  0.75790  0.41830  Biso   1.000  C
  C49      1.0000 0.13219  0.95214  0.08388  Biso   1.000  C
  C50      1.0000 0.07065  0.95134  0.12416  Biso   1.000  C
  C51      1.0000 0.06337  0.90949  0.14497  Biso   1.000  C
  C52      1.0000 0.11683  0.87086  0.12188  Biso   1.000  C
  C53      1.0000 0.17722  0.87364  0.08152  Biso   1.000  C
  C54      1.0000 0.99750  0.90790  0.19010  Biso   1.000  C
  C55      1.0000 0.29829  0.68323  0.14959  Biso   1.000  C
  C56      1.0000 0.23350  0.72045  0.17175  Biso   1.000  C
  C57      1.0000 0.24075  0.76468  0.16722  Biso   1.000  C
  C58      1.0000 0.31372  0.77347  0.13989  Biso   1.000  C
  C59      1.0000 0.37736  0.73722  0.11766  Biso   1.000  C
  C60      1.0000 0.37247  0.69207  0.12199  Biso   1.000  C
  C61      1.0000 0.44573  0.65539  0.09655  Biso   1.000  C
  C62      1.0000 0.51650  0.53715  0.09245  Biso   1.000  C
  C63      1.0000 0.59186  0.49737  0.07491  Biso   1.000  C
  C64      1.0000 0.64004  0.48045  0.11187  Biso   1.000  C
  C65      1.0000 0.70770  0.43590  0.09630  Biso   1.000  C
  C66      1.0000 0.77020  0.43240  0.10080  Biso   1.000  C
  C67      1.0000 0.84280  0.38280  0.08940  Biso   1.000  C
  C68      1.0000 0.49394  0.58669  0.19623  Biso   1.000  C
  C69      1.0000 0.52930  0.58690  0.23110  Biso   1.000  C
  C70      1.0000 0.47946  0.59040  0.27728  Biso   1.000  C
  C71      1.0000 0.39715  0.59328  0.28482  Biso   1.000  C
  C72      1.0000 0.36595  0.59170  0.24800  Biso   1.000  C
  C73      1.0000 0.51380  0.59020  0.31880  Biso   1.000  C
  C74      1.0000 0.73953  0.58174  0.08040  Biso   1.000  C
  C75      1.0000 0.76573  0.58152  0.12002  Biso   1.000  C
  C76      1.0000 0.84516  0.55689  0.12079  Biso   1.000  C
  C77      1.0000 0.90284  0.53014  0.08298  Biso   1.000  C
  C78      1.0000 0.87516  0.52898  0.04470  Biso   1.000  C
  C79      1.0000 0.79498  0.55375  0.04209  Biso   1.000  C
  C80      1.0000 0.77108  0.54787  0.00097  Biso   1.000  C
  C81      1.0000 0.60835  0.58713  0.95337  Biso   1.000  C
  C82      1.0000 0.57576  0.58206  0.91322  Biso   1.000  C
  C83      1.0000 0.56244  0.62595  0.88477  Biso   1.000  C
  C84      1.0000 0.64299  0.63845  0.86057  Biso   1.000  C
  C85      1.0000 0.62992  0.68074  0.82882  Biso   1.000  C
  C86      1.0000 0.71140  0.69238  0.80442  Biso   1.000  C
  C87      1.0000 0.63500  0.70261  0.97599  Biso   1.000  C
  C88      1.0000 0.72226  0.75126  0.97222  Biso   1.000  C
  C89      1.0000 0.62044  0.77244  0.92928  Biso   1.000  C
  C90      1.0000 0.16226  0.47212  0.17276  Biso   1.000  C
  C91      1.0000 0.11363  0.44633  0.20321  Biso   1.000  C
  C92      1.0000 0.10116  0.44788  0.25060  Biso   1.000  C
  C93      1.0000 0.13699  0.47481  0.26901  Biso   1.000  C
  C94      1.0000 0.18551  0.49946  0.23912  Biso   1.000  C
  C95      1.0000 0.19996  0.49846  0.19082  Biso   1.000  C
  C96      1.0000 0.25179  0.52690  0.16232  Biso   1.000  C
  C97      1.0000 0.30572  0.56479  0.05137  Biso   1.000  C
  C98      1.0000 0.34409  0.59881  0.02001  Biso   1.000  C
  C99      1.0000 0.27712  0.63947  0.00849  Biso   1.000  C
  C100     1.0000 0.22449  0.67024  0.04998  Biso   1.000  C
  C101     1.0000 0.15680  0.71182  0.04018  Biso   1.000  C
  C102     1.0000 0.10730  0.74210  0.08170  Biso   1.000  C
  C103     1.0000 0.66821  0.54786  0.41612  Biso   1.000  C
  C104     1.0000 0.64615  0.54866  0.37584  Biso   1.000  C
  C105     1.0000 0.61783  0.59051  0.35503  Biso   1.000  C
  C106     1.0000 0.60957  0.62914  0.37812  Biso   1.000  C
  C107     1.0000 0.63238  0.62636  0.41848  Biso   1.000  C
  C108     1.0000 0.59550  0.59210  0.30990  Biso   1.000  C
  C109     1.0000 0.98152  0.64959  0.31677  Biso   1.000  C
  C110     1.0000 0.95395  0.67175  0.27955  Biso   1.000  C
  C111     1.0000 0.00543  0.66722  0.23532  Biso   1.000  C
  C112     1.0000 0.08719  0.63989  0.22653  Biso   1.000  C
  C113     1.0000 0.11458  0.61766  0.26278  Biso   1.000  C
  C114     1.0000 0.06454  0.62199  0.30793  Biso   1.000  C
  C115     1.0000 0.10112  0.59655  0.34461  Biso   1.000  C
  C116     1.0000 0.05365  0.59245  0.46285  Biso   1.000  C
  C117     1.0000 0.08923  0.57491  0.50263  Biso   1.000  C
  C118     1.0000 0.12049  0.61187  0.51955  Biso   1.000  C
  C119     1.0000 0.14360  0.59630  0.56410  Biso   1.000  C
  C120     1.0000 0.20260  0.60080  0.56760  Biso   1.000  C
  C121     1.0000 0.22560  0.58940  0.61720  Biso   1.000  C
  C122     1.0000 0.08063  0.69623  0.41331  Biso   1.000  C
  C123     1.0000 0.11620  0.73110  0.41310  Biso   1.000  C
  C124     1.0000 0.06986  0.77728  0.40960  Biso   1.000  C
  C125     1.0000 0.99043  0.78482  0.40672  Biso   1.000  C
  C126     1.0000 0.95765  0.74800  0.40830  Biso   1.000  C
  C127     1.0000 0.10400  0.81880  0.40980  Biso   1.000  C
  C128     1.0000 0.32127  0.58040  0.41826  Biso   1.000  C
  C129     1.0000 0.34725  0.62002  0.41848  Biso   1.000  C
  C130     1.0000 0.40205  0.62079  0.44311  Biso   1.000  C
  C131     1.0000 0.43298  0.58298  0.46986  Biso   1.000  C
  C132     1.0000 0.40414  0.54470  0.47102  Biso   1.000  C
  C133     1.0000 0.34873  0.54209  0.44625  Biso   1.000  C
  C134     1.0000 0.31895  0.50097  0.45213  Biso   1.000  C
  C135     1.0000 0.19548  0.45337  0.41287  Biso   1.000  C
  C136     1.0000 0.15782  0.41322  0.41794  Biso   1.000  C
  C137     1.0000 0.18839  0.38477  0.37405  Biso   1.000  C
  C138     1.0000 0.28144  0.36057  0.36155  Biso   1.000  C
  C139     1.0000 0.31066  0.32882  0.31926  Biso   1.000  C
  C140     1.0000 0.40378  0.30442  0.30762  Biso   1.000  C
  C141     1.0000 0.33761  0.47599  0.29739  Biso   1.000  C
  C142     1.0000 0.47352  0.47222  0.24874  Biso   1.000  C
  C143     1.0000 0.39288  0.42928  0.22756  Biso   1.000  C
  C144     1.0000 0.63438  0.67276  0.52788  Biso   1.000  C
  C145     1.0000 0.55996  0.70321  0.55367  Biso   1.000  C
  C146     1.0000 0.54904  0.75060  0.55212  Biso   1.000  C
  C147     1.0000 0.61180  0.76901  0.52519  Biso   1.000  C
  C148     1.0000 0.68497  0.73912  0.50054  Biso   1.000  C
  C149     1.0000 0.69842  0.69082  0.50154  Biso   1.000  C
  C150     1.0000 0.77869  0.66232  0.47310  Biso   1.000  C
  C151     1.0000 0.87051  0.55137  0.43521  Biso   1.000  C
  C152     1.0000 0.94290  0.52001  0.40119  Biso   1.000  C
  C153     1.0000 0.91659  0.50849  0.36053  Biso   1.000  C
  C154     1.0000 0.89473  0.54998  0.32976  Biso   1.000  C
  C155     1.0000 0.86862  0.54018  0.28818  Biso   1.000  C
  C156     1.0000 0.84940  0.58170  0.25790  Biso   1.000  C
  C157     1.0000 0.21607  0.91612  0.45214  Biso   1.000  C
  C158     1.0000 0.19481  0.87584  0.45134  Biso   1.000  C
  C159     1.0000 0.20834  0.85503  0.40949  Biso   1.000  C
  C160     1.0000 0.23871  0.87812  0.37086  Biso   1.000  C
  C161     1.0000 0.25874  0.91848  0.37364  Biso   1.000  C
  C162     1.0000 0.18760  0.80990  0.40790  Biso   1.000  C
  C163     1.0000 0.44788  0.85041  0.18323  Biso   1.000  C
  C164     1.0000 0.40525  0.82825  0.22045  Biso   1.000  C
  C165     1.0000 0.40797  0.83278  0.26468  Biso   1.000  C
  C166     1.0000 0.45361  0.86011  0.27347  Biso   1.000  C
  C167     1.0000 0.49502  0.88234  0.23722  Biso   1.000  C
  C168     1.0000 0.49446  0.87801  0.19207  Biso   1.000  C
  C169     1.0000 0.54228  0.90345  0.15539  Biso   1.000  C
  C170     1.0000 0.60895  0.90755  0.03715  Biso   1.000  C
  C171     1.0000 0.66677  0.92509  0.99737  Biso   1.000  C
  C172     1.0000 0.75191  0.88813  0.98045  Biso   1.000  C
  C173     1.0000 0.80400  0.90370  0.93590  Biso   1.000  C
  C174     1.0000 0.87100  0.89920  0.93240  Biso   1.000  C
  C175     1.0000 0.93220  0.91060  0.88280  Biso   1.000  C
  C176     1.0000 0.69017  0.80377  0.08669  Biso   1.000  C
  C177     1.0000 0.76040  0.76890  0.08690  Biso   1.000  C
  C178     1.0000 0.75674  0.72272  0.09040  Biso   1.000  C
  C179     1.0000 0.68197  0.71518  0.09328  Biso   1.000  C
  C180     1.0000 0.61395  0.75200  0.09170  Biso   1.000  C
  C181     1.0000 0.83260  0.68120  0.09020  Biso   1.000  C
  C182     1.0000 0.81993  0.91960  0.08174  Biso   1.000  C
  C183     1.0000 0.88575  0.87998  0.08152  Biso   1.000  C
  C184     1.0000 0.96595  0.87921  0.05689  Biso   1.000  C
  C185     1.0000 0.98582  0.91702  0.03014  Biso   1.000  C
  C186     1.0000 0.91986  0.95530  0.02898  Biso   1.000  C
  C187     1.0000 0.83707  0.95791  0.05375  Biso   1.000  C
  C188     1.0000 0.77205  0.99903  0.04787  Biso   1.000  C
  C189     1.0000 0.56172  0.04663  0.08713  Biso   1.000  C
  C190     1.0000 0.48898  0.08678  0.08206  Biso   1.000  C
  C191     1.0000 0.44721  0.11523  0.12595  Biso   1.000  C
  C192     1.0000 0.50356  0.13943  0.13845  Biso   1.000  C
  C193     1.0000 0.45874  0.17118  0.18074  Biso   1.000  C
  C194     1.0000 0.51582  0.19558  0.19238  Biso   1.000  C
  C195     1.0000 0.61099  0.02401  0.20261  Biso   1.000  C
  C196     1.0000 0.69448  0.02778  0.25126  Biso   1.000  C
  C197     1.0000 0.54972  0.07072  0.27244  Biso   1.000  C
  C198     1.0000 0.33502  0.82724  0.97212  Biso   1.000  C
  C199     1.0000 0.31684  0.79679  0.94633  Biso   1.000  C
  C200     1.0000 0.35176  0.74940  0.94788  Biso   1.000  C
  C201     1.0000 0.40600  0.73099  0.97481  Biso   1.000  C
  C202     1.0000 0.42463  0.76088  0.99946  Biso   1.000  C
  C203     1.0000 0.39078  0.80918  0.99846  Biso   1.000  C
  C204     1.0000 0.41411  0.83768  0.02690  Biso   1.000  C
  C205     1.0000 0.35709  0.94863  0.06479  Biso   1.000  C
  C206     1.0000 0.36410  0.97999  0.09881  Biso   1.000  C
  C207     1.0000 0.28561  0.99151  0.13947  Biso   1.000  C
  C208     1.0000 0.27447  0.95002  0.17024  Biso   1.000  C
  C209     1.0000 0.19698  0.95982  0.21182  Biso   1.000  C
  C210     1.0000 0.18900  0.91830  0.24210  Biso   1.000  C
  C211     1.0000 0.08433  0.58388  0.04786  Biso   1.000  C
  C212     1.0000 0.02199  0.62416  0.04866  Biso   1.000  C
  C213     1.0000 0.97286  0.64497  0.09051  Biso   1.000  C
  C214     1.0000 0.98769  0.62188  0.12914  Biso   1.000  C
  C215     1.0000 0.05086  0.58152  0.12636  Biso   1.000  C
  C216     1.0000 0.90540  0.69010  0.09210  Biso   1.000  C
  C217     1.0000 0.36889  0.18323  0.64959  Biso   1.000  C
  C218     1.0000 0.37430  0.22045  0.67175  Biso   1.000  C
  C219     1.0000 0.32735  0.26468  0.66722  Biso   1.000  C
  C220     1.0000 0.27292  0.27347  0.63989  Biso   1.000  C
  C221     1.0000 0.26776  0.23722  0.61766  Biso   1.000  C
  C222     1.0000 0.31347  0.19207  0.62199  Biso   1.000  C
  C223     1.0000 0.30233  0.15539  0.59655  Biso   1.000  C
  C224     1.0000 0.35390  0.03715  0.59245  Biso   1.000  C
  C225     1.0000 0.33586  0.99737  0.57491  Biso   1.000  C
  C226     1.0000 0.26764  0.98045  0.61187  Biso   1.000  C
  C227     1.0000 0.26010  0.93590  0.59630  Biso   1.000  C
  C228     1.0000 0.19660  0.93240  0.60080  Biso   1.000  C
  C229     1.0000 0.18500  0.88280  0.58940  Biso   1.000  C
  C230     1.0000 0.22314  0.08669  0.69623  Biso   1.000  C
  C231     1.0000 0.15270  0.08690  0.73110  Biso   1.000  C
  C232     1.0000 0.15286  0.09040  0.77728  Biso   1.000  C
  C233     1.0000 0.22475  0.09328  0.78482  Biso   1.000  C
  C234     1.0000 0.29435  0.09170  0.74800  Biso   1.000  C
  C235     1.0000 0.07720  0.09020  0.81880  Biso   1.000  C
  C236     1.0000 0.09833  0.08174  0.58040  Biso   1.000  C
  C237     1.0000 0.03273  0.08152  0.62002  Biso   1.000  C
  C238     1.0000 0.97716  0.05689  0.62079  Biso   1.000  C
  C239     1.0000 0.98404  0.03014  0.58298  Biso   1.000  C
  C240     1.0000 0.05116  0.02898  0.54470  Biso   1.000  C
  C241     1.0000 0.10918  0.05375  0.54209  Biso   1.000  C
  C242     1.0000 0.18008  0.04787  0.50097  Biso   1.000  C
  C243     1.0000 0.35115  0.08713  0.45337  Biso   1.000  C
  C244     1.0000 0.42896  0.08206  0.41322  Biso   1.000  C
  C245     1.0000 0.42684  0.12595  0.38477  Biso   1.000  C
  C246     1.0000 0.35799  0.13845  0.36057  Biso   1.000  C
  C247     1.0000 0.36052  0.18074  0.32882  Biso   1.000  C
  C248     1.0000 0.29180  0.19238  0.30442  Biso   1.000  C
  C249     1.0000 0.18640  0.20261  0.47599  Biso   1.000  C
  C250     1.0000 0.05426  0.25126  0.47222  Biso   1.000  C
  C251     1.0000 0.17784  0.27244  0.42928  Biso   1.000  C
  C252     1.0000 0.69286  0.97212  0.67276  Biso   1.000  C
  C253     1.0000 0.73683  0.94633  0.70321  Biso   1.000  C
  C254     1.0000 0.70036  0.94788  0.75060  Biso   1.000  C
  C255     1.0000 0.61919  0.97481  0.76901  Biso   1.000  C
  C256     1.0000 0.57591  0.99946  0.73912  Biso   1.000  C
  C257     1.0000 0.61076  0.99846  0.69082  Biso   1.000  C
  C258     1.0000 0.55899  0.02690  0.66232  Biso   1.000  C
  C259     1.0000 0.57812  0.06479  0.55137  Biso   1.000  C
  C260     1.0000 0.53709  0.09881  0.52001  Biso   1.000  C
  C261     1.0000 0.57492  0.13947  0.50849  Biso   1.000  C
  C262     1.0000 0.55529  0.17024  0.54998  Biso   1.000  C
  C263     1.0000 0.59120  0.21182  0.54018  Biso   1.000  C
  C264     1.0000 0.56890  0.24210  0.58170  Biso   1.000  C
  C265     1.0000 0.86781  0.04786  0.91612  Biso   1.000  C
  C266     1.0000 0.92935  0.04866  0.87584  Biso   1.000  C
  C267     1.0000 0.93663  0.09051  0.85503  Biso   1.000  C
  C268     1.0000 0.88317  0.12914  0.87812  Biso   1.000  C
  C269     1.0000 0.82278  0.12636  0.91848  Biso   1.000  C
  C270     1.0000 0.00250  0.09210  0.80990  Biso   1.000  C
  C271     1.0000 0.70171  0.31677  0.85041  Biso   1.000  C
  C272     1.0000 0.76650  0.27955  0.82825  Biso   1.000  C
  C273     1.0000 0.75925  0.23532  0.83278  Biso   1.000  C
  C274     1.0000 0.68628  0.22653  0.86011  Biso   1.000  C
  C275     1.0000 0.62264  0.26278  0.88234  Biso   1.000  C
  C276     1.0000 0.62753  0.30793  0.87801  Biso   1.000  C
  C277     1.0000 0.55427  0.34461  0.90345  Biso   1.000  C
  C278     1.0000 0.48350  0.46285  0.90755  Biso   1.000  C
  C279     1.0000 0.40814  0.50263  0.92509  Biso   1.000  C
  C280     1.0000 0.35996  0.51955  0.88813  Biso   1.000  C
  C281     1.0000 0.29230  0.56410  0.90370  Biso   1.000  C
  C282     1.0000 0.22980  0.56760  0.89920  Biso   1.000  C
  C283     1.0000 0.15720  0.61720  0.91060  Biso   1.000  C
  C284     1.0000 0.50606  0.41331  0.80377  Biso   1.000  C
  C285     1.0000 0.47070  0.41310  0.76890  Biso   1.000  C
  C286     1.0000 0.52054  0.40960  0.72272  Biso   1.000  C
  C287     1.0000 0.60285  0.40672  0.71518  Biso   1.000  C
  C288     1.0000 0.63405  0.40830  0.75200  Biso   1.000  C
  C289     1.0000 0.48620  0.40980  0.68120  Biso   1.000  C
  C290     1.0000 0.26047  0.41826  0.91960  Biso   1.000  C
  C291     1.0000 0.23427  0.41848  0.87998  Biso   1.000  C
  C292     1.0000 0.15484  0.44311  0.87921  Biso   1.000  C
  C293     1.0000 0.09716  0.46986  0.91702  Biso   1.000  C
  C294     1.0000 0.12484  0.47102  0.95530  Biso   1.000  C
  C295     1.0000 0.20502  0.44625  0.95791  Biso   1.000  C
  C296     1.0000 0.22892  0.45213  0.99903  Biso   1.000  C
  C297     1.0000 0.39165  0.41287  0.04663  Biso   1.000  C
  C298     1.0000 0.42424  0.41794  0.08678  Biso   1.000  C
  C299     1.0000 0.43756  0.37405  0.11523  Biso   1.000  C
  C300     1.0000 0.35701  0.36155  0.13943  Biso   1.000  C
  C301     1.0000 0.37008  0.31926  0.17118  Biso   1.000  C
  C302     1.0000 0.28860  0.30762  0.19558  Biso   1.000  C
  C303     1.0000 0.36500  0.29739  0.02401  Biso   1.000  C
  C304     1.0000 0.27774  0.24874  0.02778  Biso   1.000  C
  C305     1.0000 0.37956  0.22756  0.07072  Biso   1.000  C
  C306     1.0000 0.83774  0.52788  0.82724  Biso   1.000  C
  C307     1.0000 0.88637  0.55367  0.79679  Biso   1.000  C
  C308     1.0000 0.89884  0.55212  0.74940  Biso   1.000  C
  C309     1.0000 0.86301  0.52519  0.73099  Biso   1.000  C
  C310     1.0000 0.81449  0.50054  0.76088  Biso   1.000  C
  C311     1.0000 0.80004  0.50154  0.80918  Biso   1.000  C
  C312     1.0000 0.74821  0.47310  0.83768  Biso   1.000  C
  C313     1.0000 0.69428  0.43521  0.94863  Biso   1.000  C
  C314     1.0000 0.65591  0.40119  0.97999  Biso   1.000  C
  C315     1.0000 0.72288  0.36053  0.99151  Biso   1.000  C
  C316     1.0000 0.77551  0.32976  0.95002  Biso   1.000  C
  C317     1.0000 0.84320  0.28818  0.95982  Biso   1.000  C
  C318     1.0000 0.89270  0.25790  0.91830  Biso   1.000  C
  C319     1.0000 0.33179  0.45214  0.58388  Biso   1.000  C
  C320     1.0000 0.35385  0.45134  0.62416  Biso   1.000  C
  C321     1.0000 0.38217  0.40949  0.64497  Biso   1.000  C
  C322     1.0000 0.39043  0.37086  0.62188  Biso   1.000  C
  C323     1.0000 0.36762  0.37364  0.58152  Biso   1.000  C
  C324     1.0000 0.40450  0.40790  0.69010  Biso   1.000  C
  C325     1.0000 0.01848  0.35041  0.68323  Biso   1.000  C
  C326     1.0000 0.04605  0.32825  0.72045  Biso   1.000  C
  C327     1.0000 0.99457  0.33278  0.76468  Biso   1.000  C
  C328     1.0000 0.91281  0.36011  0.77347  Biso   1.000  C
  C329     1.0000 0.88542  0.38234  0.73722  Biso   1.000  C
  C330     1.0000 0.93546  0.37801  0.69207  Biso   1.000  C
  C331     1.0000 0.89888  0.40345  0.65539  Biso   1.000  C
  C332     1.0000 0.94635  0.40755  0.53715  Biso   1.000  C
  C333     1.0000 0.91077  0.42509  0.49737  Biso   1.000  C
  C334     1.0000 0.87951  0.38813  0.48045  Biso   1.000  C
  C335     1.0000 0.85640  0.40370  0.43590  Biso   1.000  C
  C336     1.0000 0.79740  0.39920  0.43240  Biso   1.000  C
  C337     1.0000 0.77440  0.41060  0.38280  Biso   1.000  C
  C338     1.0000 0.91937  0.30377  0.58669  Biso   1.000  C
  C339     1.0000 0.88380  0.26890  0.58690  Biso   1.000  C
  C340     1.0000 0.93014  0.22272  0.59040  Biso   1.000  C
  C341     1.0000 0.00957  0.21518  0.59328  Biso   1.000  C
  C342     1.0000 0.04235  0.25200  0.59170  Biso   1.000  C
  C343     1.0000 0.89600  0.18120  0.59020  Biso   1.000  C
  C344     1.0000 0.67873  0.41960  0.58174  Biso   1.000  C
  C345     1.0000 0.65275  0.37998  0.58152  Biso   1.000  C
  C346     1.0000 0.59795  0.37921  0.55689  Biso   1.000  C
  C347     1.0000 0.56702  0.41702  0.53014  Biso   1.000  C
  C348     1.0000 0.59586  0.45530  0.52898  Biso   1.000  C
  C349     1.0000 0.65127  0.45791  0.55375  Biso   1.000  C
  C350     1.0000 0.68105  0.49903  0.54787  Biso   1.000  C
  C351     1.0000 0.80452  0.54663  0.58713  Biso   1.000  C
  C352     1.0000 0.84218  0.58678  0.58206  Biso   1.000  C
  C353     1.0000 0.81161  0.61523  0.62595  Biso   1.000  C
  C354     1.0000 0.71856  0.63943  0.63845  Biso   1.000  C
  C355     1.0000 0.68934  0.67118  0.68074  Biso   1.000  C
  C356     1.0000 0.59622  0.69558  0.69238  Biso   1.000  C
  C357     1.0000 0.66239  0.52401  0.70261  Biso   1.000  C
  C358     1.0000 0.52648  0.52778  0.75126  Biso   1.000  C
  C359     1.0000 0.60712  0.57072  0.77244  Biso   1.000  C
  C360     1.0000 0.36562  0.32724  0.47212  Biso   1.000  C
  C361     1.0000 0.44004  0.29679  0.44633  Biso   1.000  C
  C362     1.0000 0.45096  0.24940  0.44788  Biso   1.000  C
  C363     1.0000 0.38820  0.23099  0.47481  Biso   1.000  C
  C364     1.0000 0.31503  0.26088  0.49946  Biso   1.000  C
  C365     1.0000 0.30158  0.30918  0.49846  Biso   1.000  C
  C366     1.0000 0.22131  0.33768  0.52690  Biso   1.000  C
  C367     1.0000 0.12949  0.44863  0.56479  Biso   1.000  C
  C368     1.0000 0.05710  0.47999  0.59881  Biso   1.000  C
  C369     1.0000 0.08341  0.49151  0.63947  Biso   1.000  C
  C370     1.0000 0.10527  0.45002  0.67024  Biso   1.000  C
  C371     1.0000 0.13138  0.45982  0.71182  Biso   1.000  C
  C372     1.0000 0.15060  0.41830  0.74210  Biso   1.000  C
  C373     1.0000 0.78393  0.08388  0.54786  Biso   1.000  C
  C374     1.0000 0.80519  0.12416  0.54866  Biso   1.000  C
  C375     1.0000 0.79166  0.14497  0.59051  Biso   1.000  C
  C376     1.0000 0.76129  0.12188  0.62914  Biso   1.000  C
  C377     1.0000 0.74126  0.08152  0.62636  Biso   1.000  C
  C378     1.0000 0.81240  0.19010  0.59210  Biso   1.000  C
  C379     1.0000 0.55212  0.14959  0.81677  Biso   1.000  C
  C380     1.0000 0.59475  0.17175  0.77955  Biso   1.000  C
  C381     1.0000 0.59203  0.16722  0.73532  Biso   1.000  C
  C382     1.0000 0.54639  0.13989  0.72653  Biso   1.000  C
  C383     1.0000 0.50498  0.11766  0.76278  Biso   1.000  C
  C384     1.0000 0.50554  0.12199  0.80793  Biso   1.000  C
  C385     1.0000 0.45772  0.09655  0.84461  Biso   1.000  C
  C386     1.0000 0.39105  0.09245  0.96285  Biso   1.000  C
  C387     1.0000 0.33323  0.07491  0.00263  Biso   1.000  C
  C388     1.0000 0.24809  0.11187  0.01955  Biso   1.000  C
  C389     1.0000 0.19600  0.09630  0.06410  Biso   1.000  C
  C390     1.0000 0.12900  0.10080  0.06760  Biso   1.000  C
  C391     1.0000 0.06780  0.08940  0.11720  Biso   1.000  C
  C392     1.0000 0.30983  0.19623  0.91331  Biso   1.000  C
  C393     1.0000 0.23960  0.23110  0.91310  Biso   1.000  C
  C394     1.0000 0.24326  0.27728  0.90960  Biso   1.000  C
  C395     1.0000 0.31803  0.28482  0.90672  Biso   1.000  C
  C396     1.0000 0.38605  0.24800  0.90830  Biso   1.000  C
  C397     1.0000 0.16740  0.31880  0.90980  Biso   1.000  C
  C398     1.0000 0.18007  0.08040  0.91826  Biso   1.000  C
  C399     1.0000 0.11425  0.12002  0.91848  Biso   1.000  C
  C400     1.0000 0.03405  0.12079  0.94311  Biso   1.000  C
  C401     1.0000 0.01418  0.08298  0.96986  Biso   1.000  C
  C402     1.0000 0.08014  0.04470  0.97102  Biso   1.000  C
  C403     1.0000 0.16293  0.04209  0.94625  Biso   1.000  C
  C404     1.0000 0.22795  0.00097  0.95213  Biso   1.000  C
  C405     1.0000 0.43828  0.95337  0.91287  Biso   1.000  C
  C406     1.0000 0.51102  0.91322  0.91794  Biso   1.000  C
  C407     1.0000 0.55279  0.88477  0.87405  Biso   1.000  C
  C408     1.0000 0.49644  0.86057  0.86155  Biso   1.000  C
  C409     1.0000 0.54126  0.82882  0.81926  Biso   1.000  C
  C410     1.0000 0.48418  0.80442  0.80762  Biso   1.000  C
  C411     1.0000 0.38901  0.97599  0.79739  Biso   1.000  C
  C412     1.0000 0.30552  0.97222  0.74874  Biso   1.000  C
  C413     1.0000 0.45028  0.92928  0.72756  Biso   1.000  C
  C414     1.0000 0.66498  0.17276  0.02788  Biso   1.000  C
  C415     1.0000 0.68316  0.20321  0.05367  Biso   1.000  C
  C416     1.0000 0.64824  0.25060  0.05212  Biso   1.000  C
  C417     1.0000 0.59400  0.26901  0.02519  Biso   1.000  C
  C418     1.0000 0.57537  0.23912  0.00054  Biso   1.000  C
  C419     1.0000 0.60922  0.19082  0.00154  Biso   1.000  C
  C420     1.0000 0.58589  0.16232  0.97310  Biso   1.000  C
  C421     1.0000 0.64291  0.05137  0.93521  Biso   1.000  C
  C422     1.0000 0.63590  0.02001  0.90119  Biso   1.000  C
  C423     1.0000 0.71439  0.00849  0.86053  Biso   1.000  C
  C424     1.0000 0.72553  0.04998  0.82976  Biso   1.000  C
  C425     1.0000 0.80302  0.04018  0.78818  Biso   1.000  C
  C426     1.0000 0.81100  0.08170  0.75790  Biso   1.000  C
  C427     1.0000 0.91567  0.41612  0.95214  Biso   1.000  C
  C428     1.0000 0.97801  0.37584  0.95134  Biso   1.000  C
  C429     1.0000 0.02714  0.35503  0.90949  Biso   1.000  C
  C430     1.0000 0.01231  0.37812  0.87086  Biso   1.000  C
  C431     1.0000 0.94914  0.41848  0.87364  Biso   1.000  C
  C432     1.0000 0.09460  0.30990  0.90790  Biso   1.000  C
  N1       1.0000 0.65668  0.88848  0.39794  Biso   1.000  N
  N2       1.0000 0.67574  0.92094  0.42198  Biso   1.000  N
  N3       1.0000 0.70592  0.91177  0.29639  Biso   1.000  N
  N4       1.0000 0.76377  0.92960  0.50266  Biso   1.000  N
  N5       1.0000 0.69678  0.93940  0.54384  Biso   1.000  N
  N6       1.0000 0.85769  0.76009  0.54093  Biso   1.000  N
  N7       1.0000 0.40725  0.96982  0.38230  Biso   1.000  N
  N8       1.0000 0.46040  0.93830  0.40550  Biso   1.000  N
  N9       1.0000 0.18466  0.91407  0.06241  Biso   1.000  N
  N10      1.0000 0.44310  0.61152  0.10206  Biso   1.000  N
  N11      1.0000 0.51866  0.57906  0.07802  Biso   1.000  N
  N12      1.0000 0.41408  0.58823  0.20361  Biso   1.000  N
  N13      1.0000 0.69603  0.57040  0.99734  Biso   1.000  N
  N14      1.0000 0.68002  0.56060  0.95616  Biso   1.000  N
  N15      1.0000 0.65871  0.73991  0.95907  Biso   1.000  N
  N16      1.0000 0.25937  0.53018  0.11770  Biso   1.000  N
  N17      1.0000 0.30420  0.56170  0.09450  Biso   1.000  N
  N18      1.0000 0.66114  0.58593  0.43759  Biso   1.000  N
  N19      1.0000 0.05462  0.60206  0.38848  Biso   1.000  N
  N20      1.0000 0.09772  0.57802  0.42094  Biso   1.000  N
  N21      1.0000 0.00231  0.70361  0.41177  Biso   1.000  N
  N22      1.0000 0.26643  0.49734  0.42960  Biso   1.000  N
  N23      1.0000 0.24062  0.45616  0.43940  Biso   1.000  N
  N24      1.0000 0.39862  0.45907  0.26009  Biso   1.000  N
  N25      1.0000 0.78955  0.61770  0.46982  Biso   1.000  N
  N26      1.0000 0.86590  0.59450  0.43830  Biso   1.000  N
  N27      1.0000 0.24707  0.93759  0.41407  Biso   1.000  N
  N28      1.0000 0.54516  0.89794  0.11152  Biso   1.000  N
  N29      1.0000 0.59668  0.92198  0.07906  Biso   1.000  N
  N30      1.0000 0.61769  0.79639  0.08823  Biso   1.000  N
  N31      1.0000 0.69337  0.00266  0.07040  Biso   1.000  N
  N32      1.0000 0.63618  0.04384  0.06060  Biso   1.000  N
  N33      1.0000 0.61778  0.04093  0.23991  Biso   1.000  N
  N34      1.0000 0.37707  0.88230  0.03018  Biso   1.000  N
  N35      1.0000 0.39870  0.90550  0.06170  Biso   1.000  N
  N36      1.0000 0.09873  0.56241  0.08593  Biso   1.000  N
  N37      1.0000 0.34332  0.11152  0.60206  Biso   1.000  N
  N38      1.0000 0.32426  0.07906  0.57802  Biso   1.000  N
  N39      1.0000 0.29408  0.08823  0.70361  Biso   1.000  N
  N40      1.0000 0.23623  0.07040  0.49734  Biso   1.000  N
  N41      1.0000 0.30322  0.06060  0.45616  Biso   1.000  N
  N42      1.0000 0.14231  0.23991  0.45907  Biso   1.000  N
  N43      1.0000 0.59275  0.03018  0.61770  Biso   1.000  N
  N44      1.0000 0.53960  0.06170  0.59450  Biso   1.000  N
  N45      1.0000 0.81534  0.08593  0.93759  Biso   1.000  N
  N46      1.0000 0.55690  0.38848  0.89794  Biso   1.000  N
  N47      1.0000 0.48134  0.42094  0.92198  Biso   1.000  N
  N48      1.0000 0.58592  0.41177  0.79639  Biso   1.000  N
  N49      1.0000 0.30397  0.42960  0.00266  Biso   1.000  N
  N50      1.0000 0.31998  0.43940  0.04384  Biso   1.000  N
  N51      1.0000 0.34129  0.26009  0.04093  Biso   1.000  N
  N52      1.0000 0.74063  0.46982  0.88230  Biso   1.000  N
  N53      1.0000 0.69580  0.43830  0.90550  Biso   1.000  N
  N54      1.0000 0.33886  0.41407  0.56241  Biso   1.000  N
  N55      1.0000 0.94538  0.39794  0.61152  Biso   1.000  N
  N56      1.0000 0.90228  0.42198  0.57906  Biso   1.000  N
  N57      1.0000 0.99769  0.29639  0.58823  Biso   1.000  N
  N58      1.0000 0.73357  0.50266  0.57040  Biso   1.000  N
  N59      1.0000 0.75938  0.54384  0.56060  Biso   1.000  N
  N60      1.0000 0.60138  0.54093  0.73991  Biso   1.000  N
  N61      1.0000 0.21045  0.38230  0.53018  Biso   1.000  N
  N62      1.0000 0.13410  0.40550  0.56170  Biso   1.000  N
  N63      1.0000 0.75293  0.06241  0.58593  Biso   1.000  N
  N64      1.0000 0.45484  0.10206  0.88848  Biso   1.000  N
  N65      1.0000 0.40332  0.07802  0.92094  Biso   1.000  N
  N66      1.0000 0.38231  0.20361  0.91177  Biso   1.000  N
  N67      1.0000 0.30663  0.99734  0.92960  Biso   1.000  N
  N68      1.0000 0.36382  0.95616  0.93940  Biso   1.000  N
  N69      1.0000 0.38222  0.95907  0.76009  Biso   1.000  N
  N70      1.0000 0.62293  0.11770  0.96982  Biso   1.000  N
  N71      1.0000 0.60130  0.09450  0.93830  Biso   1.000  N
  N72      1.0000 0.90127  0.43759  0.91407  Biso   1.000  N
  O1       1.0000 0.58358  0.85907  0.34311  Biso   1.000  O
  O2       1.0000 0.74666  0.83359  0.42989  Biso   1.000  O
  O3       1.0000 0.60568  0.97133  0.37605  Biso   1.000  O
  O4       1.0000 0.85333  0.89173  0.41897  Biso   1.000  O
  O5       1.0000 0.81290  0.98010  0.53098  Biso   1.000  O
  O6       1.0000 0.66500  0.88091  0.51567  Biso   1.000  O
  O7       1.0000 0.84069  0.82526  0.49720  Biso   1.000  O
  O8       1.0000 0.26581  0.03123  0.37197  Biso   1.000  O
  O9       1.0000 0.51714  0.95172  0.31794  Biso   1.000  O
  O10      1.0000 0.34578  0.95964  0.46684  Biso   1.000  O
  O11      1.0000 0.28576  0.64093  0.15689  Biso   1.000  O
  O12      1.0000 0.51014  0.66641  0.07011  Biso   1.000  O
  O13      1.0000 0.45306  0.52867  0.12395  Biso   1.000  O
  O14      1.0000 0.66403  0.60827  0.08103  Biso   1.000  O
  O15      1.0000 0.82398  0.51990  0.96902  Biso   1.000  O
  O16      1.0000 0.56158  0.61909  0.98433  Biso   1.000  O
  O17      1.0000 0.66315  0.67474  0.00280  Biso   1.000  O
  O18      1.0000 0.16901  0.46877  0.12803  Biso   1.000  O
  O19      1.0000 0.28680  0.54828  0.18206  Biso   1.000  O
  O20      1.0000 0.27226  0.54036  0.03316  Biso   1.000  O
  O21      1.0000 0.92669  0.65689  0.35907  Biso   1.000  O
  O22      1.0000 0.17655  0.57011  0.33359  Biso   1.000  O
  O23      1.0000 0.98173  0.62395  0.47133  Biso   1.000  O
  O24      1.0000 0.27230  0.58103  0.39173  Biso   1.000  O
  O25      1.0000 0.34388  0.46902  0.48010  Biso   1.000  O
  O26      1.0000 0.18067  0.48433  0.38091  Biso   1.000  O
  O27      1.0000 0.33789  0.50280  0.32526  Biso   1.000  O
  O28      1.0000 0.63778  0.62803  0.53123  Biso   1.000  O
  O29      1.0000 0.83508  0.68206  0.45172  Biso   1.000  O
  O30      1.0000 0.81262  0.53316  0.45964  Biso   1.000  O
  O31      1.0000 0.44265  0.84311  0.14093  Biso   1.000  O
  O32      1.0000 0.58025  0.92989  0.16641  Biso   1.000  O
  O33      1.0000 0.57701  0.87605  0.02867  Biso   1.000  O
  O34      1.0000 0.74506  0.91897  0.10827  Biso   1.000  O
  O35      1.0000 0.79300  0.03098  0.01990  Biso   1.000  O
  O36      1.0000 0.54591  0.01567  0.11909  Biso   1.000  O
  O37      1.0000 0.66595  0.99720  0.17474  Biso   1.000  O
  O38      1.0000 0.29704  0.87197  0.96877  Biso   1.000  O
  O39      1.0000 0.46886  0.81794  0.04828  Biso   1.000  O
  O40      1.0000 0.30542  0.96684  0.04036  Biso   1.000  O
  O41      1.0000 0.41642  0.14093  0.65689  Biso   1.000  O
  O42      1.0000 0.25334  0.16641  0.57011  Biso   1.000  O
  O43      1.0000 0.39432  0.02867  0.62395  Biso   1.000  O
  O44      1.0000 0.14667  0.10827  0.58103  Biso   1.000  O
  O45      1.0000 0.18710  0.01990  0.46902  Biso   1.000  O
  O46      1.0000 0.33500  0.11909  0.48433  Biso   1.000  O
  O47      1.0000 0.15931  0.17474  0.50280  Biso   1.000  O
  O48      1.0000 0.73419  0.96877  0.62803  Biso   1.000  O
  O49      1.0000 0.48286  0.04828  0.68206  Biso   1.000  O
  O50      1.0000 0.65422  0.04036  0.53316  Biso   1.000  O
  O51      1.0000 0.71424  0.35907  0.84311  Biso   1.000  O
  O52      1.0000 0.48986  0.33359  0.92989  Biso   1.000  O
  O53      1.0000 0.54694  0.47133  0.87605  Biso   1.000  O
  O54      1.0000 0.33597  0.39173  0.91897  Biso   1.000  O
  O55      1.0000 0.17602  0.48010  0.03098  Biso   1.000  O
  O56      1.0000 0.43842  0.38091  0.01567  Biso   1.000  O
  O57      1.0000 0.33685  0.32526  0.99720  Biso   1.000  O
  O58      1.0000 0.83099  0.53123  0.87197  Biso   1.000  O
  O59      1.0000 0.71320  0.45172  0.81794  Biso   1.000  O
  O60      1.0000 0.72774  0.45964  0.96684  Biso   1.000  O
  O61      1.0000 0.07331  0.34311  0.64093  Biso   1.000  O
  O62      1.0000 0.82345  0.42989  0.66641  Biso   1.000  O
  O63      1.0000 0.01827  0.37605  0.52867  Biso   1.000  O
  O64      1.0000 0.72770  0.41897  0.60827  Biso   1.000  O
  O65      1.0000 0.65612  0.53098  0.51990  Biso   1.000  O
  O66      1.0000 0.81933  0.51567  0.61909  Biso   1.000  O
  O67      1.0000 0.66211  0.49720  0.67474  Biso   1.000  O
  O68      1.0000 0.36222  0.37197  0.46877  Biso   1.000  O
  O69      1.0000 0.16492  0.31794  0.54828  Biso   1.000  O
  O70      1.0000 0.18738  0.46684  0.54036  Biso   1.000  O
  O71      1.0000 0.55735  0.15689  0.85907  Biso   1.000  O
  O72      1.0000 0.41975  0.07011  0.83359  Biso   1.000  O
  O73      1.0000 0.42299  0.12395  0.97133  Biso   1.000  O
  O74      1.0000 0.25494  0.08103  0.89173  Biso   1.000  O
  O75      1.0000 0.20700  0.96902  0.98010  Biso   1.000  O
  O76      1.0000 0.45409  0.98433  0.88091  Biso   1.000  O
  O77      1.0000 0.33405  0.00280  0.82526  Biso   1.000  O
  O78      1.0000 0.70296  0.12803  0.03123  Biso   1.000  O
  O79      1.0000 0.53114  0.18206  0.95172  Biso   1.000  O
  O80      1.0000 0.69458  0.03316  0.95964  Biso   1.000  O
