data_image0
_cell_length_a       17.442
_cell_length_b       30.1339
_cell_length_c       30.1339
_cell_angle_alpha    85.1955
_cell_angle_beta     73.1774
_cell_angle_gamma    73.1775

_symmetry_space_group_name_H-M    P 1
_symmetry_int_tables_number       1

loop_
  _symmetry_equiv_pos_as_xyz
  'x, y, z'

loop_
  _atom_site_label
  _atom_site_occupancy
  _atom_site_fract_x
  _atom_site_fract_y
  _atom_site_fract_z
  _atom_site_thermal_displace_type
  _atom_site_B_iso_or_equiv
  _atom_site_type_symbol
  Mn1      1.0000 0.36192  0.14363  0.58352  Biso   1.000  Mn
  Mn2      1.0000 0.60616  0.03563  0.61767  Biso   1.000  Mn
  Mn3      1.0000 0.21684  0.07841  0.50191  Biso   1.000  Mn
  Mn4      1.0000 0.58906  0.35637  0.91648  Biso   1.000  Mn
  Mn5      1.0000 0.75946  0.46437  0.88233  Biso   1.000  Mn
  Mn6      1.0000 0.29716  0.42159  0.99809  Biso   1.000  Mn
  Mn7      1.0000 0.94543  0.41648  0.64364  Biso   1.000  Mn
  Mn8      1.0000 0.22384  0.38232  0.53563  Biso   1.000  Mn
  Mn9      1.0000 0.71875  0.49809  0.57841  Biso   1.000  Mn
  Mn10     1.0000 0.50555  0.08352  0.85636  Biso   1.000  Mn
  Mn11     1.0000 0.64178  0.11768  0.96437  Biso   1.000  Mn
  Mn12     1.0000 0.29525  0.00191  0.92159  Biso   1.000  Mn
  Mn13     1.0000 0.63808  0.85637  0.41648  Biso   1.000  Mn
  Mn14     1.0000 0.39384  0.96437  0.38233  Biso   1.000  Mn
  Mn15     1.0000 0.78316  0.92159  0.49809  Biso   1.000  Mn
  Mn16     1.0000 0.41094  0.64363  0.08352  Biso   1.000  Mn
  Mn17     1.0000 0.24054  0.53563  0.11767  Biso   1.000  Mn
  Mn18     1.0000 0.70284  0.57841  0.00191  Biso   1.000  Mn
  Mn19     1.0000 0.05457  0.58352  0.35636  Biso   1.000  Mn
  Mn20     1.0000 0.77616  0.61768  0.46437  Biso   1.000  Mn
  Mn21     1.0000 0.28125  0.50191  0.42159  Biso   1.000  Mn
  Mn22     1.0000 0.49445  0.91648  0.14364  Biso   1.000  Mn
  Mn23     1.0000 0.35822  0.88232  0.03563  Biso   1.000  Mn
  Mn24     1.0000 0.70475  0.99809  0.07841  Biso   1.000  Mn
  H1       1.0000 0.18390  0.19190  0.71510  Biso   1.000  H
  H2       1.0000 0.19660  0.18400  0.78920  Biso   1.000  H
  H3       1.0000 0.32000  0.13700  0.80420  Biso   1.000  H
  H4       1.0000 0.42740  0.09870  0.74310  Biso   1.000  H
  H5       1.0000 0.62770  0.04530  0.50650  Biso   1.000  H
  H6       1.0000 0.57220  0.06560  0.47140  Biso   1.000  H
  H7       1.0000 0.66360  0.11760  0.50420  Biso   1.000  H
  H8       1.0000 0.60190  0.14120  0.47300  Biso   1.000  H
  H9       1.0000 0.68700  0.10220  0.40920  Biso   1.000  H
  H10      1.0000 0.72900  0.05990  0.43790  Biso   1.000  H
  H11      1.0000 0.75160  0.14340  0.42660  Biso   1.000  H
  H12      1.0000 0.79220  0.10200  0.45680  Biso   1.000  H
  H13      1.0000 0.82320  0.09000  0.35600  Biso   1.000  H
  H14      1.0000 0.88720  0.10580  0.37560  Biso   1.000  H
  H15      1.0000 0.87370  0.05530  0.38770  Biso   1.000  H
  H16      1.0000 0.31030  0.25400  0.59180  Biso   1.000  H
  H17      1.0000 0.36250  0.31550  0.59490  Biso   1.000  H
  H18      1.0000 0.58620  0.22440  0.58480  Biso   1.000  H
  H19      1.0000 0.52870  0.16530  0.58410  Biso   1.000  H
  H20      1.0000 0.47650  0.34040  0.61220  Biso   1.000  H
  H21      1.0000 0.51540  0.33500  0.55740  Biso   1.000  H
  H22      1.0000 0.72820  0.14610  0.59890  Biso   1.000  H
  H23      1.0000 0.86060  0.14800  0.55760  Biso   1.000  H
  H24      1.0000 0.95710  0.08300  0.51600  Biso   1.000  H
  H25      1.0000 0.91180  0.01880  0.51120  Biso   1.000  H
  H26      1.0000 0.52250  0.92490  0.57350  Biso   1.000  H
  H27      1.0000 0.61630  0.89270  0.55610  Biso   1.000  H
  H28      1.0000 0.52390  0.90510  0.65190  Biso   1.000  H
  H29      1.0000 0.53440  0.86110  0.62230  Biso   1.000  H
  H30      1.0000 0.66780  0.88330  0.64450  Biso   1.000  H
  H31      1.0000 0.68190  0.84090  0.61190  Biso   1.000  H
  H32      1.0000 0.59050  0.84760  0.70760  Biso   1.000  H
  H33      1.0000 0.60550  0.80490  0.67490  Biso   1.000  H
  H34      1.0000 0.73590  0.82840  0.69900  Biso   1.000  H
  H35      1.0000 0.70070  0.78540  0.72000  Biso   1.000  H
  H36      1.0000 0.75060  0.78570  0.66650  Biso   1.000  H
  H37      1.0000 0.59160  0.96570  0.69630  Biso   1.000  H
  H38      1.0000 0.74450  0.99290  0.72690  Biso   1.000  H
  H39      1.0000 0.70170  0.98700  0.78080  Biso   1.000  H
  H40      1.0000 0.76950  0.94390  0.75170  Biso   1.000  H
  H41      1.0000 0.66000  0.89890  0.77270  Biso   1.000  H
  H42      1.0000 0.59900  0.94330  0.80270  Biso   1.000  H
  H43      1.0000 0.57300  0.92510  0.76230  Biso   1.000  H
  H44      1.0000 0.08990  0.19190  0.42710  Biso   1.000  H
  H45      1.0000 0.07140  0.27040  0.42940  Biso   1.000  H
  H46      1.0000 0.12770  0.30180  0.47640  Biso   1.000  H
  H47      1.0000 0.21060  0.25210  0.51770  Biso   1.000  H
  H48      1.0000 0.37730  0.03550  0.61070  Biso   1.000  H
  H49      1.0000 0.38050  0.99120  0.58340  Biso   1.000  H
  H50      1.0000 0.23820  0.99720  0.62800  Biso   1.000  H
  H51      1.0000 0.30160  0.98480  0.65920  Biso   1.000  H
  H52      1.0000 0.19640  0.07490  0.65110  Biso   1.000  H
  H53      1.0000 0.26070  0.06310  0.68170  Biso   1.000  H
  H54      1.0000 0.11730  0.02940  0.70060  Biso   1.000  H
  H55      1.0000 0.18220  0.01640  0.73100  Biso   1.000  H
  H56      1.0000 0.14150  0.09230  0.75710  Biso   1.000  H
  H57      1.0000 0.05970  0.07500  0.76620  Biso   1.000  H
  H58      1.0000 0.08270  0.10850  0.72330  Biso   1.000  H
  H59      1.0000 0.68750  0.42950  0.51890  Biso   1.000  H
  H60      1.0000 0.65440  0.35990  0.52110  Biso   1.000  H
  H61      1.0000 0.58550  0.36770  0.65990  Biso   1.000  H
  H62      1.0000 0.62790  0.43350  0.65410  Biso   1.000  H
  H63      1.0000 0.63590  0.28910  0.56770  Biso   1.000  H
  H64      1.0000 0.59680  0.29400  0.62280  Biso   1.000  H
  H65      1.0000 0.59090  0.30810  0.78490  Biso   1.000  H
  H66      1.0000 0.66980  0.31600  0.71080  Biso   1.000  H
  H67      1.0000 0.76120  0.36300  0.69580  Biso   1.000  H
  H68      1.0000 0.76920  0.40130  0.75690  Biso   1.000  H
  H69      1.0000 0.67950  0.45470  0.99350  Biso   1.000  H
  H70      1.0000 0.60920  0.43440  0.02860  Biso   1.000  H
  H71      1.0000 0.78540  0.38240  0.99580  Biso   1.000  H
  H72      1.0000 0.71610  0.35880  0.02700  Biso   1.000  H
  H73      1.0000 0.69840  0.39780  0.09080  Biso   1.000  H
  H74      1.0000 0.72680  0.44010  0.06210  Biso   1.000  H
  H75      1.0000 0.82160  0.35660  0.07340  Biso   1.000  H
  H76      1.0000 0.85100  0.39800  0.04320  Biso   1.000  H
  H77      1.0000 0.76920  0.41000  0.14400  Biso   1.000  H
  H78      1.0000 0.86860  0.39420  0.12440  Biso   1.000  H
  H79      1.0000 0.81670  0.44470  0.11230  Biso   1.000  H
  H80      1.0000 0.65610  0.24600  0.90820  Biso   1.000  H
  H81      1.0000 0.77290  0.18450  0.90510  Biso   1.000  H
  H82      1.0000 0.89540  0.27560  0.91520  Biso   1.000  H
  H83      1.0000 0.77810  0.33470  0.91590  Biso   1.000  H
  H84      1.0000 0.92910  0.15960  0.88780  Biso   1.000  H
  H85      1.0000 0.90780  0.16500  0.94260  Biso   1.000  H
  H86      1.0000 0.97320  0.35390  0.90110  Biso   1.000  H
  H87      1.0000 0.06620  0.35200  0.94240  Biso   1.000  H
  H88      1.0000 0.05610  0.41700  0.98400  Biso   1.000  H
  H89      1.0000 0.94180  0.48120  0.98880  Biso   1.000  H
  H90      1.0000 0.52090  0.57510  0.92650  Biso   1.000  H
  H91      1.0000 0.56510  0.60730  0.94390  Biso   1.000  H
  H92      1.0000 0.58090  0.59490  0.84810  Biso   1.000  H
  H93      1.0000 0.51780  0.63890  0.87770  Biso   1.000  H
  H94      1.0000 0.69560  0.61670  0.85550  Biso   1.000  H
  H95      1.0000 0.63470  0.65910  0.88810  Biso   1.000  H
  H96      1.0000 0.64570  0.65240  0.79240  Biso   1.000  H
  H97      1.0000 0.58530  0.69510  0.82510  Biso   1.000  H
  H98      1.0000 0.76330  0.67160  0.80100  Biso   1.000  H
  H99      1.0000 0.70610  0.71460  0.78000  Biso   1.000  H
  H100     1.0000 0.70280  0.71430  0.83350  Biso   1.000  H
  H101     1.0000 0.75360  0.53430  0.80370  Biso   1.000  H
  H102     1.0000 0.96430  0.50710  0.77310  Biso   1.000  H
  H103     1.0000 0.96950  0.51300  0.71920  Biso   1.000  H
  H104     1.0000 0.96510  0.55610  0.74830  Biso   1.000  H
  H105     1.0000 0.83160  0.60110  0.72730  Biso   1.000  H
  H106     1.0000 0.84500  0.55670  0.69730  Biso   1.000  H
  H107     1.0000 0.76040  0.57490  0.73770  Biso   1.000  H
  H108     1.0000 0.20890  0.30810  0.07290  Biso   1.000  H
  H109     1.0000 0.27120  0.22960  0.07060  Biso   1.000  H
  H110     1.0000 0.40590  0.19820  0.02360  Biso   1.000  H
  H111     1.0000 0.48040  0.24790  0.98230  Biso   1.000  H
  H112     1.0000 0.52350  0.46450  0.88930  Biso   1.000  H
  H113     1.0000 0.45510  0.50880  0.91660  Biso   1.000  H
  H114     1.0000 0.36340  0.50280  0.87200  Biso   1.000  H
  H115     1.0000 0.44560  0.51520  0.84080  Biso   1.000  H
  H116     1.0000 0.42240  0.42510  0.84890  Biso   1.000  H
  H117     1.0000 0.50550  0.43690  0.81830  Biso   1.000  H
  H118     1.0000 0.34730  0.47060  0.79940  Biso   1.000  H
  H119     1.0000 0.42960  0.48360  0.76900  Biso   1.000  H
  H120     1.0000 0.49090  0.40770  0.74290  Biso   1.000  H
  H121     1.0000 0.40090  0.42500  0.73380  Biso   1.000  H
  H122     1.0000 0.41450  0.39150  0.77670  Biso   1.000  H
  H123     1.0000 0.13590  0.07050  0.98110  Biso   1.000  H
  H124     1.0000 0.03540  0.14010  0.97890  Biso   1.000  H
  H125     1.0000 0.11310  0.13230  0.84010  Biso   1.000  H
  H126     1.0000 0.21550  0.06650  0.84590  Biso   1.000  H
  H127     1.0000 0.99270  0.21090  0.93230  Biso   1.000  H
  H128     1.0000 0.01360  0.20600  0.87720  Biso   1.000  H
  H129     1.0000 0.89900  0.28490  0.69190  Biso   1.000  H
  H130     1.0000 0.98580  0.21080  0.68400  Biso   1.000  H
  H131     1.0000 0.12420  0.19580  0.63700  Biso   1.000  H
  H132     1.0000 0.17050  0.25690  0.59870  Biso   1.000  H
  H133     1.0000 0.13420  0.49350  0.54530  Biso   1.000  H
  H134     1.0000 0.04360  0.52860  0.56560  Biso   1.000  H
  H135     1.0000 0.16780  0.49580  0.61760  Biso   1.000  H
  H136     1.0000 0.07490  0.52700  0.64120  Biso   1.000  H
  H137     1.0000 0.09620  0.59080  0.60220  Biso   1.000  H
  H138     1.0000 0.16690  0.56210  0.55990  Biso   1.000  H
  H139     1.0000 0.17820  0.57340  0.64340  Biso   1.000  H
  H140     1.0000 0.24900  0.54320  0.60200  Biso   1.000  H
  H141     1.0000 0.17920  0.64400  0.59000  Biso   1.000  H
  H142     1.0000 0.26280  0.62440  0.60580  Biso   1.000  H
  H143     1.0000 0.26140  0.61230  0.55530  Biso   1.000  H
  H144     1.0000 0.90210  0.40820  0.75400  Biso   1.000  H
  H145     1.0000 0.95740  0.40510  0.81550  Biso   1.000  H
  H146     1.0000 0.17100  0.41520  0.72440  Biso   1.000  H
  H147     1.0000 0.11280  0.41590  0.66530  Biso   1.000  H
  H148     1.0000 0.08870  0.38780  0.84040  Biso   1.000  H
  H149     1.0000 0.07280  0.44260  0.83500  Biso   1.000  H
  H150     1.0000 0.32710  0.40110  0.64610  Biso   1.000  H
  H151     1.0000 0.41820  0.44240  0.64800  Biso   1.000  H
  H152     1.0000 0.47310  0.48400  0.58300  Biso   1.000  H
  H153     1.0000 0.42300  0.48880  0.51880  Biso   1.000  H
  H154     1.0000 0.09600  0.42650  0.42490  Biso   1.000  H
  H155     1.0000 0.17240  0.44390  0.39270  Biso   1.000  H
  H156     1.0000 0.17580  0.34810  0.40510  Biso   1.000  H
  H157     1.0000 0.15670  0.37770  0.36110  Biso   1.000  H
  H158     1.0000 0.31230  0.35550  0.38330  Biso   1.000  H
  H159     1.0000 0.29380  0.38810  0.34090  Biso   1.000  H
  H160     1.0000 0.29810  0.29240  0.34760  Biso   1.000  H
  H161     1.0000 0.28040  0.32510  0.30490  Biso   1.000  H
  H162     1.0000 0.43490  0.30100  0.32840  Biso   1.000  H
  H163     1.0000 0.42070  0.28000  0.28540  Biso   1.000  H
  H164     1.0000 0.41710  0.33350  0.28570  Biso   1.000  H
  H165     1.0000 0.28790  0.30370  0.46570  Biso   1.000  H
  H166     1.0000 0.47140  0.27310  0.49290  Biso   1.000  H
  H167     1.0000 0.48250  0.21920  0.48700  Biso   1.000  H
  H168     1.0000 0.52120  0.24830  0.44390  Biso   1.000  H
  H169     1.0000 0.43270  0.22730  0.39890  Biso   1.000  H
  H170     1.0000 0.40170  0.19730  0.44330  Biso   1.000  H
  H171     1.0000 0.33530  0.23770  0.42510  Biso   1.000  H
  H172     1.0000 0.51700  0.57290  0.69190  Biso   1.000  H
  H173     1.0000 0.50080  0.57060  0.77040  Biso   1.000  H
  H174     1.0000 0.60410  0.52360  0.80180  Biso   1.000  H
  H175     1.0000 0.72830  0.48230  0.75210  Biso   1.000  H
  H176     1.0000 0.98800  0.38930  0.53550  Biso   1.000  H
  H177     1.0000 0.96390  0.41660  0.49120  Biso   1.000  H
  H178     1.0000 0.86620  0.37200  0.49720  Biso   1.000  H
  H179     1.0000 0.96080  0.34080  0.48480  Biso   1.000  H
  H180     1.0000 0.84750  0.34890  0.57490  Biso   1.000  H
  H181     1.0000 0.94240  0.31830  0.56310  Biso   1.000  H
  H182     1.0000 0.81790  0.29940  0.52940  Biso   1.000  H
  H183     1.0000 0.91320  0.26900  0.51640  Biso   1.000  H
  H184     1.0000 0.89860  0.24290  0.59230  Biso   1.000  H
  H185     1.0000 0.82590  0.23380  0.57500  Biso   1.000  H
  H186     1.0000 0.80600  0.27670  0.60850  Biso   1.000  H
  H187     1.0000 0.20640  0.48110  0.92950  Biso   1.000  H
  H188     1.0000 0.17550  0.47890  0.85990  Biso   1.000  H
  H189     1.0000 0.24540  0.34010  0.86770  Biso   1.000  H
  H190     1.0000 0.28200  0.34590  0.93350  Biso   1.000  H
  H191     1.0000 0.20360  0.43230  0.78910  Biso   1.000  H
  H192     1.0000 0.21960  0.37720  0.79400  Biso   1.000  H
  H193     1.0000 0.37580  0.21510  0.80810  Biso   1.000  H
  H194     1.0000 0.38060  0.28920  0.81600  Biso   1.000  H
  H195     1.0000 0.45700  0.30420  0.86300  Biso   1.000  H
  H196     1.0000 0.52610  0.24310  0.90130  Biso   1.000  H
  H197     1.0000 0.67300  0.00650  0.95470  Biso   1.000  H
  H198     1.0000 0.63780  0.97140  0.93440  Biso   1.000  H
  H199     1.0000 0.78120  0.00420  0.88240  Biso   1.000  H
  H200     1.0000 0.74310  0.97300  0.85880  Biso   1.000  H
  H201     1.0000 0.78920  0.90920  0.89780  Biso   1.000  H
  H202     1.0000 0.78890  0.93790  0.94010  Biso   1.000  H
  H203     1.0000 0.89500  0.92660  0.85660  Biso   1.000  H
  H204     1.0000 0.89420  0.95680  0.89800  Biso   1.000  H
  H205     1.0000 0.91320  0.85600  0.91000  Biso   1.000  H
  H206     1.0000 0.99300  0.87560  0.89420  Biso   1.000  H
  H207     1.0000 0.92900  0.88770  0.94470  Biso   1.000  H
  H208     1.0000 0.56430  0.09180  0.74600  Biso   1.000  H
  H209     1.0000 0.67800  0.09490  0.68450  Biso   1.000  H
  H210     1.0000 0.81060  0.08480  0.77560  Biso   1.000  H
  H211     1.0000 0.69400  0.08410  0.83470  Biso   1.000  H
  H212     1.0000 0.81690  0.11220  0.65960  Biso   1.000  H
  H213     1.0000 0.85040  0.05740  0.66500  Biso   1.000  H
  H214     1.0000 0.87430  0.09890  0.85390  Biso   1.000  H
  H215     1.0000 0.00860  0.05760  0.85200  Biso   1.000  H
  H216     1.0000 0.04010  0.01600  0.91700  Biso   1.000  H
  H217     1.0000 0.93060  0.01120  0.98120  Biso   1.000  H
  H218     1.0000 0.44740  0.07350  0.07510  Biso   1.000  H
  H219     1.0000 0.50900  0.05610  0.10730  Biso   1.000  H
  H220     1.0000 0.42900  0.15190  0.09490  Biso   1.000  H
  H221     1.0000 0.39550  0.12230  0.13890  Biso   1.000  H
  H222     1.0000 0.55110  0.14450  0.11670  Biso   1.000  H
  H223     1.0000 0.52280  0.11190  0.15910  Biso   1.000  H
  H224     1.0000 0.43810  0.20760  0.15240  Biso   1.000  H
  H225     1.0000 0.41040  0.17490  0.19510  Biso   1.000  H
  H226     1.0000 0.56430  0.19900  0.17160  Biso   1.000  H
  H227     1.0000 0.48610  0.22000  0.21460  Biso   1.000  H
  H228     1.0000 0.53630  0.16650  0.21430  Biso   1.000  H
  H229     1.0000 0.55730  0.19630  0.03430  Biso   1.000  H
  H230     1.0000 0.73740  0.22690  0.00710  Biso   1.000  H
  H231     1.0000 0.68870  0.28080  0.01300  Biso   1.000  H
  H232     1.0000 0.71340  0.25170  0.05610  Biso   1.000  H
  H233     1.0000 0.55890  0.27270  0.10110  Biso   1.000  H
  H234     1.0000 0.54230  0.30270  0.05670  Biso   1.000  H
  H235     1.0000 0.49810  0.26230  0.07490  Biso   1.000  H
  H236     1.0000 0.28180  0.92710  0.80810  Biso   1.000  H
  H237     1.0000 0.34180  0.92940  0.72960  Biso   1.000  H
  H238     1.0000 0.42950  0.97640  0.69820  Biso   1.000  H
  H239     1.0000 0.46270  0.01770  0.74790  Biso   1.000  H
  H240     1.0000 0.41280  0.11070  0.96450  Biso   1.000  H
  H241     1.0000 0.37170  0.08340  0.00880  Biso   1.000  H
  H242     1.0000 0.23540  0.12800  0.00280  Biso   1.000  H
  H243     1.0000 0.28640  0.15920  0.01520  Biso   1.000  H
  H244     1.0000 0.27130  0.15110  0.92510  Biso   1.000  H
  H245     1.0000 0.32380  0.18170  0.93690  Biso   1.000  H
  H246     1.0000 0.14670  0.20060  0.97060  Biso   1.000  H
  H247     1.0000 0.19860  0.23100  0.98360  Biso   1.000  H
  H248     1.0000 0.23380  0.25710  0.90770  Biso   1.000  H
  H249     1.0000 0.13470  0.26620  0.92500  Biso   1.000  H
  H250     1.0000 0.19120  0.22330  0.89150  Biso   1.000  H
  H251     1.0000 0.11700  0.01890  0.57050  Biso   1.000  H
  H252     1.0000 0.01430  0.02110  0.64010  Biso   1.000  H
  H253     1.0000 0.95320  0.15990  0.63230  Biso   1.000  H
  H254     1.0000 0.06140  0.15410  0.56650  Biso   1.000  H
  H255     1.0000 0.92500  0.06770  0.71090  Biso   1.000  H
  H256     1.0000 0.89080  0.12280  0.70600  Biso   1.000  H
  H257     1.0000 0.81610  0.80810  0.28490  Biso   1.000  H
  H258     1.0000 0.80340  0.81600  0.21080  Biso   1.000  H
  H259     1.0000 0.68000  0.86300  0.19580  Biso   1.000  H
  H260     1.0000 0.57260  0.90130  0.25690  Biso   1.000  H
  H261     1.0000 0.37230  0.95470  0.49350  Biso   1.000  H
  H262     1.0000 0.42780  0.93440  0.52860  Biso   1.000  H
  H263     1.0000 0.33640  0.88240  0.49580  Biso   1.000  H
  H264     1.0000 0.39810  0.85880  0.52700  Biso   1.000  H
  H265     1.0000 0.31300  0.89780  0.59080  Biso   1.000  H
  H266     1.0000 0.27100  0.94010  0.56210  Biso   1.000  H
  H267     1.0000 0.24840  0.85660  0.57340  Biso   1.000  H
  H268     1.0000 0.20780  0.89800  0.54320  Biso   1.000  H
  H269     1.0000 0.17680  0.91000  0.64400  Biso   1.000  H
  H270     1.0000 0.11280  0.89420  0.62440  Biso   1.000  H
  H271     1.0000 0.12630  0.94470  0.61230  Biso   1.000  H
  H272     1.0000 0.68970  0.74600  0.40820  Biso   1.000  H
  H273     1.0000 0.63750  0.68450  0.40510  Biso   1.000  H
  H274     1.0000 0.41380  0.77560  0.41520  Biso   1.000  H
  H275     1.0000 0.47130  0.83470  0.41590  Biso   1.000  H
  H276     1.0000 0.52350  0.65960  0.38780  Biso   1.000  H
  H277     1.0000 0.48460  0.66500  0.44260  Biso   1.000  H
  H278     1.0000 0.27180  0.85390  0.40110  Biso   1.000  H
  H279     1.0000 0.13940  0.85200  0.44240  Biso   1.000  H
  H280     1.0000 0.04290  0.91700  0.48400  Biso   1.000  H
  H281     1.0000 0.08820  0.98120  0.48880  Biso   1.000  H
  H282     1.0000 0.47750  0.07510  0.42650  Biso   1.000  H
  H283     1.0000 0.38370  0.10730  0.44390  Biso   1.000  H
  H284     1.0000 0.47610  0.09490  0.34810  Biso   1.000  H
  H285     1.0000 0.46560  0.13890  0.37770  Biso   1.000  H
  H286     1.0000 0.33220  0.11670  0.35550  Biso   1.000  H
  H287     1.0000 0.31810  0.15910  0.38810  Biso   1.000  H
  H288     1.0000 0.40950  0.15240  0.29240  Biso   1.000  H
  H289     1.0000 0.39450  0.19510  0.32510  Biso   1.000  H
  H290     1.0000 0.26410  0.17160  0.30100  Biso   1.000  H
  H291     1.0000 0.29930  0.21460  0.28000  Biso   1.000  H
  H292     1.0000 0.24940  0.21430  0.33350  Biso   1.000  H
  H293     1.0000 0.40840  0.03430  0.30370  Biso   1.000  H
  H294     1.0000 0.25550  0.00710  0.27310  Biso   1.000  H
  H295     1.0000 0.29830  0.01300  0.21920  Biso   1.000  H
  H296     1.0000 0.23050  0.05610  0.24830  Biso   1.000  H
  H297     1.0000 0.34000  0.10110  0.22730  Biso   1.000  H
  H298     1.0000 0.40100  0.05670  0.19730  Biso   1.000  H
  H299     1.0000 0.42700  0.07490  0.23770  Biso   1.000  H
  H300     1.0000 0.91010  0.80810  0.57290  Biso   1.000  H
  H301     1.0000 0.92860  0.72960  0.57060  Biso   1.000  H
  H302     1.0000 0.87230  0.69820  0.52360  Biso   1.000  H
  H303     1.0000 0.78940  0.74790  0.48230  Biso   1.000  H
  H304     1.0000 0.62270  0.96450  0.38930  Biso   1.000  H
  H305     1.0000 0.61950  0.00880  0.41660  Biso   1.000  H
  H306     1.0000 0.76180  0.00280  0.37200  Biso   1.000  H
  H307     1.0000 0.69840  0.01520  0.34080  Biso   1.000  H
  H308     1.0000 0.80360  0.92510  0.34890  Biso   1.000  H
  H309     1.0000 0.73930  0.93690  0.31830  Biso   1.000  H
  H310     1.0000 0.88270  0.97060  0.29940  Biso   1.000  H
  H311     1.0000 0.81780  0.98360  0.26900  Biso   1.000  H
  H312     1.0000 0.85850  0.90770  0.24290  Biso   1.000  H
  H313     1.0000 0.94030  0.92500  0.23380  Biso   1.000  H
  H314     1.0000 0.91730  0.89150  0.27670  Biso   1.000  H
  H315     1.0000 0.31250  0.57050  0.48110  Biso   1.000  H
  H316     1.0000 0.34560  0.64010  0.47890  Biso   1.000  H
  H317     1.0000 0.41450  0.63230  0.34010  Biso   1.000  H
  H318     1.0000 0.37210  0.56650  0.34590  Biso   1.000  H
  H319     1.0000 0.36410  0.71090  0.43230  Biso   1.000  H
  H320     1.0000 0.40320  0.70600  0.37720  Biso   1.000  H
  H321     1.0000 0.40910  0.69190  0.21510  Biso   1.000  H
  H322     1.0000 0.33020  0.68400  0.28920  Biso   1.000  H
  H323     1.0000 0.23880  0.63700  0.30420  Biso   1.000  H
  H324     1.0000 0.23080  0.59870  0.24310  Biso   1.000  H
  H325     1.0000 0.32050  0.54530  0.00650  Biso   1.000  H
  H326     1.0000 0.39080  0.56560  0.97140  Biso   1.000  H
  H327     1.0000 0.21460  0.61760  0.00420  Biso   1.000  H
  H328     1.0000 0.28390  0.64120  0.97300  Biso   1.000  H
  H329     1.0000 0.30160  0.60220  0.90920  Biso   1.000  H
  H330     1.0000 0.27320  0.55990  0.93790  Biso   1.000  H
  H331     1.0000 0.17840  0.64340  0.92660  Biso   1.000  H
  H332     1.0000 0.14900  0.60200  0.95680  Biso   1.000  H
  H333     1.0000 0.23080  0.59000  0.85600  Biso   1.000  H
  H334     1.0000 0.13140  0.60580  0.87560  Biso   1.000  H
  H335     1.0000 0.18330  0.55530  0.88770  Biso   1.000  H
  H336     1.0000 0.34390  0.75400  0.09180  Biso   1.000  H
  H337     1.0000 0.22710  0.81550  0.09490  Biso   1.000  H
  H338     1.0000 0.10460  0.72440  0.08480  Biso   1.000  H
  H339     1.0000 0.22190  0.66530  0.08410  Biso   1.000  H
  H340     1.0000 0.07090  0.84040  0.11220  Biso   1.000  H
  H341     1.0000 0.09220  0.83500  0.05740  Biso   1.000  H
  H342     1.0000 0.02680  0.64610  0.09890  Biso   1.000  H
  H343     1.0000 0.93380  0.64800  0.05760  Biso   1.000  H
  H344     1.0000 0.94390  0.58300  0.01600  Biso   1.000  H
  H345     1.0000 0.05820  0.51880  0.01120  Biso   1.000  H
  H346     1.0000 0.47910  0.42490  0.07350  Biso   1.000  H
  H347     1.0000 0.43490  0.39270  0.05610  Biso   1.000  H
  H348     1.0000 0.41910  0.40510  0.15190  Biso   1.000  H
  H349     1.0000 0.48220  0.36110  0.12230  Biso   1.000  H
  H350     1.0000 0.30440  0.38330  0.14450  Biso   1.000  H
  H351     1.0000 0.36530  0.34090  0.11190  Biso   1.000  H
  H352     1.0000 0.35430  0.34760  0.20760  Biso   1.000  H
  H353     1.0000 0.41470  0.30490  0.17490  Biso   1.000  H
  H354     1.0000 0.23670  0.32840  0.19900  Biso   1.000  H
  H355     1.0000 0.29390  0.28540  0.22000  Biso   1.000  H
  H356     1.0000 0.29720  0.28570  0.16650  Biso   1.000  H
  H357     1.0000 0.24640  0.46570  0.19630  Biso   1.000  H
  H358     1.0000 0.03570  0.49290  0.22690  Biso   1.000  H
  H359     1.0000 0.03050  0.48700  0.28080  Biso   1.000  H
  H360     1.0000 0.03490  0.44390  0.25170  Biso   1.000  H
  H361     1.0000 0.16840  0.39890  0.27270  Biso   1.000  H
  H362     1.0000 0.15500  0.44330  0.30270  Biso   1.000  H
  H363     1.0000 0.23960  0.42510  0.26230  Biso   1.000  H
  H364     1.0000 0.79110  0.69190  0.92710  Biso   1.000  H
  H365     1.0000 0.72880  0.77040  0.92940  Biso   1.000  H
  H366     1.0000 0.59410  0.80180  0.97640  Biso   1.000  H
  H367     1.0000 0.51960  0.75210  0.01770  Biso   1.000  H
  H368     1.0000 0.47650  0.53550  0.11070  Biso   1.000  H
  H369     1.0000 0.54490  0.49120  0.08340  Biso   1.000  H
  H370     1.0000 0.63660  0.49720  0.12800  Biso   1.000  H
  H371     1.0000 0.55440  0.48480  0.15920  Biso   1.000  H
  H372     1.0000 0.57760  0.57490  0.15110  Biso   1.000  H
  H373     1.0000 0.49450  0.56310  0.18170  Biso   1.000  H
  H374     1.0000 0.65270  0.52940  0.20060  Biso   1.000  H
  H375     1.0000 0.57040  0.51640  0.23100  Biso   1.000  H
  H376     1.0000 0.50910  0.59230  0.25710  Biso   1.000  H
  H377     1.0000 0.59910  0.57500  0.26620  Biso   1.000  H
  H378     1.0000 0.58550  0.60850  0.22330  Biso   1.000  H
  H379     1.0000 0.86410  0.92950  0.01890  Biso   1.000  H
  H380     1.0000 0.96460  0.85990  0.02110  Biso   1.000  H
  H381     1.0000 0.88690  0.86770  0.15990  Biso   1.000  H
  H382     1.0000 0.78450  0.93350  0.15410  Biso   1.000  H
  H383     1.0000 0.00730  0.78910  0.06770  Biso   1.000  H
  H384     1.0000 0.98640  0.79400  0.12280  Biso   1.000  H
  H385     1.0000 0.10100  0.71510  0.30810  Biso   1.000  H
  H386     1.0000 0.01420  0.78920  0.31600  Biso   1.000  H
  H387     1.0000 0.87580  0.80420  0.36300  Biso   1.000  H
  H388     1.0000 0.82950  0.74310  0.40130  Biso   1.000  H
  H389     1.0000 0.86580  0.50650  0.45470  Biso   1.000  H
  H390     1.0000 0.95640  0.47140  0.43440  Biso   1.000  H
  H391     1.0000 0.83220  0.50420  0.38240  Biso   1.000  H
  H392     1.0000 0.92510  0.47300  0.35880  Biso   1.000  H
  H393     1.0000 0.90380  0.40920  0.39780  Biso   1.000  H
  H394     1.0000 0.83310  0.43790  0.44010  Biso   1.000  H
  H395     1.0000 0.82180  0.42660  0.35660  Biso   1.000  H
  H396     1.0000 0.75100  0.45680  0.39800  Biso   1.000  H
  H397     1.0000 0.82080  0.35600  0.41000  Biso   1.000  H
  H398     1.0000 0.73720  0.37560  0.39420  Biso   1.000  H
  H399     1.0000 0.73860  0.38770  0.44470  Biso   1.000  H
  H400     1.0000 0.09790  0.59180  0.24600  Biso   1.000  H
  H401     1.0000 0.04260  0.59490  0.18450  Biso   1.000  H
  H402     1.0000 0.82900  0.58480  0.27560  Biso   1.000  H
  H403     1.0000 0.88720  0.58410  0.33470  Biso   1.000  H
  H404     1.0000 0.91130  0.61220  0.15960  Biso   1.000  H
  H405     1.0000 0.92720  0.55740  0.16500  Biso   1.000  H
  H406     1.0000 0.67290  0.59890  0.35390  Biso   1.000  H
  H407     1.0000 0.58180  0.55760  0.35200  Biso   1.000  H
  H408     1.0000 0.52690  0.51600  0.41700  Biso   1.000  H
  H409     1.0000 0.57700  0.51120  0.48120  Biso   1.000  H
  H410     1.0000 0.90400  0.57350  0.57510  Biso   1.000  H
  H411     1.0000 0.82760  0.55610  0.60730  Biso   1.000  H
  H412     1.0000 0.82420  0.65190  0.59490  Biso   1.000  H
  H413     1.0000 0.84330  0.62230  0.63890  Biso   1.000  H
  H414     1.0000 0.68770  0.64450  0.61670  Biso   1.000  H
  H415     1.0000 0.70620  0.61190  0.65910  Biso   1.000  H
  H416     1.0000 0.70190  0.70760  0.65240  Biso   1.000  H
  H417     1.0000 0.71960  0.67490  0.69510  Biso   1.000  H
  H418     1.0000 0.56510  0.69900  0.67160  Biso   1.000  H
  H419     1.0000 0.57930  0.72000  0.71460  Biso   1.000  H
  H420     1.0000 0.58290  0.66650  0.71430  Biso   1.000  H
  H421     1.0000 0.71210  0.69630  0.53430  Biso   1.000  H
  H422     1.0000 0.52860  0.72690  0.50710  Biso   1.000  H
  H423     1.0000 0.51750  0.78080  0.51300  Biso   1.000  H
  H424     1.0000 0.47880  0.75170  0.55610  Biso   1.000  H
  H425     1.0000 0.56730  0.77270  0.60110  Biso   1.000  H
  H426     1.0000 0.59830  0.80270  0.55670  Biso   1.000  H
  H427     1.0000 0.66470  0.76230  0.57490  Biso   1.000  H
  H428     1.0000 0.48300  0.42710  0.30810  Biso   1.000  H
  H429     1.0000 0.49920  0.42940  0.22960  Biso   1.000  H
  H430     1.0000 0.39590  0.47640  0.19820  Biso   1.000  H
  H431     1.0000 0.27170  0.51770  0.24790  Biso   1.000  H
  H432     1.0000 0.01200  0.61070  0.46450  Biso   1.000  H
  H433     1.0000 0.03610  0.58340  0.50880  Biso   1.000  H
  H434     1.0000 0.13380  0.62800  0.50280  Biso   1.000  H
  H435     1.0000 0.03920  0.65920  0.51520  Biso   1.000  H
  H436     1.0000 0.15250  0.65110  0.42510  Biso   1.000  H
  H437     1.0000 0.05760  0.68170  0.43690  Biso   1.000  H
  H438     1.0000 0.18210  0.70060  0.47060  Biso   1.000  H
  H439     1.0000 0.08680  0.73100  0.48360  Biso   1.000  H
  H440     1.0000 0.10140  0.75710  0.40770  Biso   1.000  H
  H441     1.0000 0.17410  0.76620  0.42500  Biso   1.000  H
  H442     1.0000 0.19400  0.72330  0.39150  Biso   1.000  H
  H443     1.0000 0.79360  0.51890  0.07050  Biso   1.000  H
  H444     1.0000 0.82450  0.52110  0.14010  Biso   1.000  H
  H445     1.0000 0.75460  0.65990  0.13230  Biso   1.000  H
  H446     1.0000 0.71800  0.65410  0.06650  Biso   1.000  H
  H447     1.0000 0.79640  0.56770  0.21090  Biso   1.000  H
  H448     1.0000 0.78040  0.62280  0.20600  Biso   1.000  H
  H449     1.0000 0.62420  0.78490  0.19190  Biso   1.000  H
  H450     1.0000 0.61940  0.71080  0.18400  Biso   1.000  H
  H451     1.0000 0.54300  0.69580  0.13700  Biso   1.000  H
  H452     1.0000 0.47390  0.75690  0.09870  Biso   1.000  H
  H453     1.0000 0.32700  0.99350  0.04530  Biso   1.000  H
  H454     1.0000 0.36220  0.02860  0.06560  Biso   1.000  H
  H455     1.0000 0.21880  0.99580  0.11760  Biso   1.000  H
  H456     1.0000 0.25690  0.02700  0.14120  Biso   1.000  H
  H457     1.0000 0.21080  0.09080  0.10220  Biso   1.000  H
  H458     1.0000 0.21110  0.06210  0.05990  Biso   1.000  H
  H459     1.0000 0.10500  0.07340  0.14340  Biso   1.000  H
  H460     1.0000 0.10580  0.04320  0.10200  Biso   1.000  H
  H461     1.0000 0.08680  0.14400  0.09000  Biso   1.000  H
  H462     1.0000 0.00700  0.12440  0.10580  Biso   1.000  H
  H463     1.0000 0.07100  0.11230  0.05530  Biso   1.000  H
  H464     1.0000 0.43570  0.90820  0.25400  Biso   1.000  H
  H465     1.0000 0.32200  0.90510  0.31550  Biso   1.000  H
  H466     1.0000 0.18940  0.91520  0.22440  Biso   1.000  H
  H467     1.0000 0.30600  0.91590  0.16530  Biso   1.000  H
  H468     1.0000 0.18310  0.88780  0.34040  Biso   1.000  H
  H469     1.0000 0.14960  0.94260  0.33500  Biso   1.000  H
  H470     1.0000 0.12570  0.90110  0.14610  Biso   1.000  H
  H471     1.0000 0.99140  0.94240  0.14800  Biso   1.000  H
  H472     1.0000 0.95990  0.98400  0.08300  Biso   1.000  H
  H473     1.0000 0.06940  0.98880  0.01880  Biso   1.000  H
  H474     1.0000 0.55260  0.92650  0.92490  Biso   1.000  H
  H475     1.0000 0.49100  0.94390  0.89270  Biso   1.000  H
  H476     1.0000 0.57100  0.84810  0.90510  Biso   1.000  H
  H477     1.0000 0.60450  0.87770  0.86110  Biso   1.000  H
  H478     1.0000 0.44890  0.85550  0.88330  Biso   1.000  H
  H479     1.0000 0.47720  0.88810  0.84090  Biso   1.000  H
  H480     1.0000 0.56190  0.79240  0.84760  Biso   1.000  H
  H481     1.0000 0.58960  0.82510  0.80490  Biso   1.000  H
  H482     1.0000 0.43570  0.80100  0.82840  Biso   1.000  H
  H483     1.0000 0.51390  0.78000  0.78540  Biso   1.000  H
  H484     1.0000 0.46370  0.83350  0.78570  Biso   1.000  H
  H485     1.0000 0.44270  0.80370  0.96570  Biso   1.000  H
  H486     1.0000 0.26260  0.77310  0.99290  Biso   1.000  H
  H487     1.0000 0.31130  0.71920  0.98700  Biso   1.000  H
  H488     1.0000 0.28660  0.74830  0.94390  Biso   1.000  H
  H489     1.0000 0.44110  0.72730  0.89890  Biso   1.000  H
  H490     1.0000 0.45770  0.69730  0.94330  Biso   1.000  H
  H491     1.0000 0.50190  0.73770  0.92510  Biso   1.000  H
  H492     1.0000 0.71820  0.07290  0.19190  Biso   1.000  H
  H493     1.0000 0.65820  0.07060  0.27040  Biso   1.000  H
  H494     1.0000 0.57050  0.02360  0.30180  Biso   1.000  H
  H495     1.0000 0.53730  0.98230  0.25210  Biso   1.000  H
  H496     1.0000 0.58720  0.88930  0.03550  Biso   1.000  H
  H497     1.0000 0.62830  0.91660  0.99120  Biso   1.000  H
  H498     1.0000 0.76460  0.87200  0.99720  Biso   1.000  H
  H499     1.0000 0.71360  0.84080  0.98480  Biso   1.000  H
  H500     1.0000 0.72870  0.84890  0.07490  Biso   1.000  H
  H501     1.0000 0.67620  0.81830  0.06310  Biso   1.000  H
  H502     1.0000 0.85330  0.79940  0.02940  Biso   1.000  H
  H503     1.0000 0.80140  0.76900  0.01640  Biso   1.000  H
  H504     1.0000 0.76620  0.74290  0.09230  Biso   1.000  H
  H505     1.0000 0.86530  0.73380  0.07500  Biso   1.000  H
  H506     1.0000 0.80880  0.77670  0.10850  Biso   1.000  H
  H507     1.0000 0.88300  0.98110  0.42950  Biso   1.000  H
  H508     1.0000 0.98570  0.97890  0.35990  Biso   1.000  H
  H509     1.0000 0.04680  0.84010  0.36770  Biso   1.000  H
  H510     1.0000 0.93860  0.84590  0.43350  Biso   1.000  H
  H511     1.0000 0.07500  0.93230  0.28910  Biso   1.000  H
  H512     1.0000 0.10920  0.87720  0.29400  Biso   1.000  H
  C1       1.0000 0.29892  0.15058  0.68278  Biso   1.000  C
  C2       1.0000 0.23436  0.17285  0.72043  Biso   1.000  C
  C3       1.0000 0.24161  0.16816  0.76442  Biso   1.000  C
  C4       1.0000 0.31448  0.14033  0.77351  Biso   1.000  C
  C5       1.0000 0.37773  0.11801  0.73713  Biso   1.000  C
  C6       1.0000 0.37286  0.12227  0.69181  Biso   1.000  C
  C7       1.0000 0.44570  0.09627  0.65513  Biso   1.000  C
  C8       1.0000 0.51594  0.09208  0.53744  Biso   1.000  C
  C9       1.0000 0.59052  0.07371  0.49705  Biso   1.000  C
  C10      1.0000 0.64019  0.11173  0.47969  Biso   1.000  C
  C11      1.0000 0.70980  0.09420  0.43620  Biso   1.000  C
  C12      1.0000 0.77010  0.10920  0.42940  Biso   1.000  C
  C13      1.0000 0.84640  0.08790  0.38230  Biso   1.000  C
  C14      1.0000 0.36749  0.24790  0.59052  Biso   1.000  C
  C15      1.0000 0.39857  0.28479  0.59167  Biso   1.000  C
  C16      1.0000 0.48108  0.27727  0.58817  Biso   1.000  C
  C17      1.0000 0.52888  0.23138  0.58606  Biso   1.000  C
  C18      1.0000 0.49456  0.19634  0.58574  Biso   1.000  C
  C19      1.0000 0.51560  0.31870  0.58730  Biso   1.000  C
  C20      1.0000 0.73872  0.08003  0.58193  Biso   1.000  C
  C21      1.0000 0.76531  0.11960  0.58178  Biso   1.000  C
  C22      1.0000 0.84443  0.12057  0.55717  Biso   1.000  C
  C23      1.0000 0.90162  0.08254  0.53162  Biso   1.000  C
  C24      1.0000 0.87469  0.04436  0.52986  Biso   1.000  C
  C25      1.0000 0.79504  0.04155  0.55437  Biso   1.000  C
  C26      1.0000 0.77082  0.00054  0.54802  Biso   1.000  C
  C27      1.0000 0.60793  0.95302  0.58672  Biso   1.000  C
  C28      1.0000 0.57576  0.91295  0.58173  Biso   1.000  C
  C29      1.0000 0.56194  0.88447  0.62605  Biso   1.000  C
  C30      1.0000 0.64238  0.85979  0.63865  Biso   1.000  C
  C31      1.0000 0.63022  0.82878  0.68078  Biso   1.000  C
  C32      1.0000 0.71160  0.80497  0.69263  Biso   1.000  C
  C33      1.0000 0.63490  0.97572  0.70188  Biso   1.000  C
  C34      1.0000 0.72379  0.97162  0.75060  Biso   1.000  C
  C35      1.0000 0.61977  0.92920  0.77186  Biso   1.000  C
  C36      1.0000 0.16287  0.17293  0.47173  Biso   1.000  C
  C37      1.0000 0.11492  0.20364  0.44592  Biso   1.000  C
  C38      1.0000 0.10356  0.25039  0.44749  Biso   1.000  C
  C39      1.0000 0.13752  0.26917  0.47479  Biso   1.000  C
  C40      1.0000 0.18578  0.23966  0.49938  Biso   1.000  C
  C41      1.0000 0.19960  0.19156  0.49844  Biso   1.000  C
  C42      1.0000 0.25166  0.16330  0.52678  Biso   1.000  C
  C43      1.0000 0.30535  0.05193  0.56517  Biso   1.000  C
  C44      1.0000 0.34331  0.02042  0.59916  Biso   1.000  C
  C45      1.0000 0.27511  0.00946  0.64012  Biso   1.000  C
  C46      1.0000 0.22322  0.05062  0.67034  Biso   1.000  C
  C47      1.0000 0.15574  0.04118  0.71194  Biso   1.000  C
  C48      1.0000 0.10550  0.08290  0.74230  Biso   1.000  C
  C49      1.0000 0.66788  0.41607  0.54817  Biso   1.000  C
  C50      1.0000 0.64767  0.37461  0.54925  Biso   1.000  C
  C51      1.0000 0.61791  0.35485  0.59153  Biso   1.000  C
  C52      1.0000 0.60867  0.37889  0.63017  Biso   1.000  C
  C53      1.0000 0.63232  0.41879  0.62637  Biso   1.000  C
  C54      1.0000 0.59510  0.30980  0.59280  Biso   1.000  C
  C55      1.0000 0.63228  0.34942  0.81722  Biso   1.000  C
  C56      1.0000 0.62764  0.32715  0.77957  Biso   1.000  C
  C57      1.0000 0.67419  0.33184  0.73558  Biso   1.000  C
  C58      1.0000 0.72832  0.35967  0.72649  Biso   1.000  C
  C59      1.0000 0.73287  0.38199  0.76287  Biso   1.000  C
  C60      1.0000 0.68694  0.37773  0.80819  Biso   1.000  C
  C61      1.0000 0.69710  0.40373  0.84487  Biso   1.000  C
  C62      1.0000 0.64546  0.40792  0.96256  Biso   1.000  C
  C63      1.0000 0.66128  0.42629  0.00295  Biso   1.000  C
  C64      1.0000 0.73161  0.38827  0.02031  Biso   1.000  C
  C65      1.0000 0.74020  0.40580  0.06380  Biso   1.000  C
  C66      1.0000 0.80870  0.39080  0.07060  Biso   1.000  C
  C67      1.0000 0.81660  0.41210  0.11770  Biso   1.000  C
  C68      1.0000 0.70591  0.25210  0.90948  Biso   1.000  C
  C69      1.0000 0.77503  0.21521  0.90833  Biso   1.000  C
  C70      1.0000 0.84652  0.22273  0.91183  Biso   1.000  C
  C71      1.0000 0.84632  0.26862  0.91394  Biso   1.000  C
  C72      1.0000 0.77664  0.30366  0.91426  Biso   1.000  C
  C73      1.0000 0.92160  0.18130  0.91270  Biso   1.000  C
  C74      1.0000 0.90068  0.41997  0.91807  Biso   1.000  C
  C75      1.0000 0.96669  0.38040  0.91822  Biso   1.000  C
  C76      1.0000 0.02217  0.37943  0.94283  Biso   1.000  C
  C77      1.0000 0.01578  0.41746  0.96838  Biso   1.000  C
  C78      1.0000 0.94891  0.45564  0.97014  Biso   1.000  C
  C79      1.0000 0.89096  0.45845  0.94563  Biso   1.000  C
  C80      1.0000 0.81938  0.49946  0.95198  Biso   1.000  C
  C81      1.0000 0.64767  0.54698  0.91328  Biso   1.000  C
  C82      1.0000 0.57044  0.58705  0.91827  Biso   1.000  C
  C83      1.0000 0.57246  0.61553  0.87395  Biso   1.000  C
  C84      1.0000 0.64082  0.64021  0.86135  Biso   1.000  C
  C85      1.0000 0.63978  0.67122  0.81922  Biso   1.000  C
  C86      1.0000 0.70920  0.69503  0.80737  Biso   1.000  C
  C87      1.0000 0.81250  0.52428  0.79812  Biso   1.000  C
  C88      1.0000 0.94601  0.52838  0.74940  Biso   1.000  C
  C89      1.0000 0.82083  0.57080  0.72814  Biso   1.000  C
  C90      1.0000 0.30753  0.32707  0.02827  Biso   1.000  C
  C91      1.0000 0.26448  0.29636  0.05408  Biso   1.000  C
  C92      1.0000 0.30144  0.24961  0.05251  Biso   1.000  C
  C93      1.0000 0.38148  0.23083  0.02521  Biso   1.000  C
  C94      1.0000 0.42482  0.26034  0.00062  Biso   1.000  C
  C95      1.0000 0.38960  0.30844  0.00156  Biso   1.000  C
  C96      1.0000 0.44174  0.33670  0.97322  Biso   1.000  C
  C97      1.0000 0.42245  0.44807  0.93483  Biso   1.000  C
  C98      1.0000 0.46289  0.47958  0.90084  Biso   1.000  C
  C99      1.0000 0.42469  0.49054  0.85988  Biso   1.000  C
  C100     1.0000 0.44418  0.44938  0.82966  Biso   1.000  C
  C101     1.0000 0.40886  0.45882  0.78806  Biso   1.000  C
  C102     1.0000 0.43070  0.41710  0.75770  Biso   1.000  C
  C103     1.0000 0.13212  0.08393  0.95183  Biso   1.000  C
  C104     1.0000 0.07153  0.12539  0.95075  Biso   1.000  C
  C105     1.0000 0.06429  0.14515  0.90847  Biso   1.000  C
  C106     1.0000 0.11773  0.12111  0.86983  Biso   1.000  C
  C107     1.0000 0.17748  0.08121  0.87363  Biso   1.000  C
  C108     1.0000 0.99770  0.19020  0.90720  Biso   1.000  C
  C109     1.0000 0.98170  0.31722  0.65058  Biso   1.000  C
  C110     1.0000 0.95479  0.27957  0.67285  Biso   1.000  C
  C111     1.0000 0.00603  0.23558  0.66816  Biso   1.000  C
  C112     1.0000 0.08799  0.22649  0.64033  Biso   1.000  C
  C113     1.0000 0.11486  0.26287  0.61801  Biso   1.000  C
  C114     1.0000 0.06467  0.30819  0.62227  Biso   1.000  C
  C115     1.0000 0.10083  0.34487  0.59627  Biso   1.000  C
  C116     1.0000 0.05338  0.46256  0.59208  Biso   1.000  C
  C117     1.0000 0.08757  0.50295  0.57371  Biso   1.000  C
  C118     1.0000 0.11988  0.52031  0.61173  Biso   1.000  C
  C119     1.0000 0.14600  0.56380  0.59420  Biso   1.000  C
  C120     1.0000 0.19950  0.57060  0.60920  Biso   1.000  C
  C121     1.0000 0.22870  0.61770  0.58790  Biso   1.000  C
  C122     1.0000 0.95801  0.40948  0.74790  Biso   1.000  C
  C123     1.0000 0.99024  0.40833  0.78479  Biso   1.000  C
  C124     1.0000 0.06925  0.41183  0.77727  Biso   1.000  C
  C125     1.0000 0.11494  0.41394  0.73138  Biso   1.000  C
  C126     1.0000 0.08030  0.41426  0.69634  Biso   1.000  C
  C127     1.0000 0.10290  0.41270  0.81870  Biso   1.000  C
  C128     1.0000 0.32065  0.41807  0.58003  Biso   1.000  C
  C129     1.0000 0.34709  0.41822  0.61960  Biso   1.000  C
  C130     1.0000 0.40160  0.44283  0.62057  Biso   1.000  C
  C131     1.0000 0.43324  0.46838  0.58254  Biso   1.000  C
  C132     1.0000 0.40455  0.47014  0.54436  Biso   1.000  C
  C133     1.0000 0.34941  0.44563  0.54155  Biso   1.000  C
  C134     1.0000 0.31884  0.45198  0.50054  Biso   1.000  C
  C135     1.0000 0.19465  0.41328  0.45302  Biso   1.000  C
  C136     1.0000 0.15749  0.41827  0.41295  Biso   1.000  C
  C137     1.0000 0.18799  0.37395  0.38447  Biso   1.000  C
  C138     1.0000 0.28103  0.36135  0.35979  Biso   1.000  C
  C139     1.0000 0.31100  0.31922  0.32878  Biso   1.000  C
  C140     1.0000 0.40423  0.30737  0.30497  Biso   1.000  C
  C141     1.0000 0.33678  0.29812  0.47572  Biso   1.000  C
  C142     1.0000 0.47439  0.24940  0.47162  Biso   1.000  C
  C143     1.0000 0.39163  0.22814  0.42920  Biso   1.000  C
  C144     1.0000 0.63460  0.52827  0.67293  Biso   1.000  C
  C145     1.0000 0.56084  0.55408  0.70364  Biso   1.000  C
  C146     1.0000 0.55105  0.55251  0.75039  Biso   1.000  C
  C147     1.0000 0.61231  0.52521  0.76917  Biso   1.000  C
  C148     1.0000 0.68516  0.50062  0.73966  Biso   1.000  C
  C149     1.0000 0.69804  0.50156  0.69156  Biso   1.000  C
  C150     1.0000 0.77844  0.47322  0.66330  Biso   1.000  C
  C151     1.0000 0.87052  0.43483  0.55193  Biso   1.000  C
  C152     1.0000 0.94247  0.40084  0.52042  Biso   1.000  C
  C153     1.0000 0.91523  0.35988  0.50946  Biso   1.000  C
  C154     1.0000 0.89356  0.32966  0.55062  Biso   1.000  C
  C155     1.0000 0.86768  0.28806  0.54118  Biso   1.000  C
  C156     1.0000 0.84780  0.25770  0.58290  Biso   1.000  C
  C157     1.0000 0.21605  0.45183  0.91607  Biso   1.000  C
  C158     1.0000 0.19692  0.45075  0.87461  Biso   1.000  C
  C159     1.0000 0.20944  0.40847  0.85485  Biso   1.000  C
  C160     1.0000 0.23884  0.36983  0.87889  Biso   1.000  C
  C161     1.0000 0.25869  0.37363  0.91879  Biso   1.000  C
  C162     1.0000 0.18790  0.40720  0.80980  Biso   1.000  C
  C163     1.0000 0.44950  0.18278  0.84942  Biso   1.000  C
  C164     1.0000 0.40721  0.22043  0.82715  Biso   1.000  C
  C165     1.0000 0.40977  0.26442  0.83184  Biso   1.000  C
  C166     1.0000 0.45481  0.27351  0.85967  Biso   1.000  C
  C167     1.0000 0.49574  0.23713  0.88199  Biso   1.000  C
  C168     1.0000 0.49513  0.19181  0.87773  Biso   1.000  C
  C169     1.0000 0.54197  0.15513  0.90373  Biso   1.000  C
  C170     1.0000 0.60802  0.03744  0.90792  Biso   1.000  C
  C171     1.0000 0.66423  0.99705  0.92629  Biso   1.000  C
  C172     1.0000 0.75192  0.97969  0.88827  Biso   1.000  C
  C173     1.0000 0.80400  0.93620  0.90580  Biso   1.000  C
  C174     1.0000 0.87930  0.92940  0.89080  Biso   1.000  C
  C175     1.0000 0.93430  0.88230  0.91210  Biso   1.000  C
  C176     1.0000 0.61539  0.09052  0.75210  Biso   1.000  C
  C177     1.0000 0.68336  0.09167  0.71521  Biso   1.000  C
  C178     1.0000 0.75835  0.08817  0.72273  Biso   1.000  C
  C179     1.0000 0.76026  0.08606  0.76862  Biso   1.000  C
  C180     1.0000 0.69090  0.08574  0.80366  Biso   1.000  C
  C181     1.0000 0.83430  0.08730  0.68130  Biso   1.000  C
  C182     1.0000 0.81875  0.08193  0.91997  Biso   1.000  C
  C183     1.0000 0.88491  0.08178  0.88040  Biso   1.000  C
  C184     1.0000 0.96500  0.05717  0.87943  Biso   1.000  C
  C185     1.0000 0.98416  0.03162  0.91746  Biso   1.000  C
  C186     1.0000 0.91905  0.02986  0.95564  Biso   1.000  C
  C187     1.0000 0.83659  0.05437  0.95845  Biso   1.000  C
  C188     1.0000 0.77136  0.04802  0.99946  Biso   1.000  C
  C189     1.0000 0.56095  0.08672  0.04698  Biso   1.000  C
  C190     1.0000 0.48871  0.08173  0.08705  Biso   1.000  C
  C191     1.0000 0.44641  0.12605  0.11553  Biso   1.000  C
  C192     1.0000 0.50217  0.13865  0.14021  Biso   1.000  C
  C193     1.0000 0.45900  0.18078  0.17122  Biso   1.000  C
  C194     1.0000 0.51657  0.19263  0.19503  Biso   1.000  C
  C195     1.0000 0.61062  0.20188  0.02428  Biso   1.000  C
  C196     1.0000 0.69541  0.25060  0.02838  Biso   1.000  C
  C197     1.0000 0.54897  0.27186  0.07080  Biso   1.000  C
  C198     1.0000 0.33580  0.97173  0.82707  Biso   1.000  C
  C199     1.0000 0.31856  0.94592  0.79636  Biso   1.000  C
  C200     1.0000 0.35395  0.94749  0.74961  Biso   1.000  C
  C201     1.0000 0.40669  0.97479  0.73083  Biso   1.000  C
  C202     1.0000 0.42544  0.99938  0.76034  Biso   1.000  C
  C203     1.0000 0.39116  0.99844  0.80844  Biso   1.000  C
  C204     1.0000 0.41496  0.02678  0.83670  Biso   1.000  C
  C205     1.0000 0.35728  0.06517  0.94807  Biso   1.000  C
  C206     1.0000 0.36373  0.09916  0.97958  Biso   1.000  C
  C207     1.0000 0.28457  0.14012  0.99054  Biso   1.000  C
  C208     1.0000 0.27384  0.17034  0.94938  Biso   1.000  C
  C209     1.0000 0.19692  0.21194  0.95882  Biso   1.000  C
  C210     1.0000 0.18840  0.24230  0.91710  Biso   1.000  C
  C211     1.0000 0.08395  0.04817  0.58393  Biso   1.000  C
  C212     1.0000 0.02228  0.04925  0.62539  Biso   1.000  C
  C213     1.0000 0.97276  0.09153  0.64515  Biso   1.000  C
  C214     1.0000 0.98756  0.13017  0.62111  Biso   1.000  C
  C215     1.0000 0.05111  0.12637  0.58121  Biso   1.000  C
  C216     1.0000 0.90490  0.09280  0.69020  Biso   1.000  C
  C217     1.0000 0.70108  0.84942  0.31722  Biso   1.000  C
  C218     1.0000 0.76564  0.82715  0.27957  Biso   1.000  C
  C219     1.0000 0.75839  0.83184  0.23558  Biso   1.000  C
  C220     1.0000 0.68552  0.85967  0.22649  Biso   1.000  C
  C221     1.0000 0.62227  0.88199  0.26287  Biso   1.000  C
  C222     1.0000 0.62714  0.87773  0.30819  Biso   1.000  C
  C223     1.0000 0.55430  0.90373  0.34487  Biso   1.000  C
  C224     1.0000 0.48406  0.90792  0.46256  Biso   1.000  C
  C225     1.0000 0.40948  0.92629  0.50295  Biso   1.000  C
  C226     1.0000 0.35981  0.88827  0.52031  Biso   1.000  C
  C227     1.0000 0.29020  0.90580  0.56380  Biso   1.000  C
  C228     1.0000 0.22990  0.89080  0.57060  Biso   1.000  C
  C229     1.0000 0.15360  0.91210  0.61770  Biso   1.000  C
  C230     1.0000 0.63251  0.75210  0.40948  Biso   1.000  C
  C231     1.0000 0.60143  0.71521  0.40833  Biso   1.000  C
  C232     1.0000 0.51892  0.72273  0.41183  Biso   1.000  C
  C233     1.0000 0.47112  0.76862  0.41394  Biso   1.000  C
  C234     1.0000 0.50544  0.80366  0.41426  Biso   1.000  C
  C235     1.0000 0.48440  0.68130  0.41270  Biso   1.000  C
  C236     1.0000 0.26128  0.91997  0.41807  Biso   1.000  C
  C237     1.0000 0.23469  0.88040  0.41822  Biso   1.000  C
  C238     1.0000 0.15557  0.87943  0.44283  Biso   1.000  C
  C239     1.0000 0.09838  0.91746  0.46838  Biso   1.000  C
  C240     1.0000 0.12531  0.95564  0.47014  Biso   1.000  C
  C241     1.0000 0.20496  0.95845  0.44563  Biso   1.000  C
  C242     1.0000 0.22918  0.99946  0.45198  Biso   1.000  C
  C243     1.0000 0.39207  0.04698  0.41328  Biso   1.000  C
  C244     1.0000 0.42424  0.08705  0.41827  Biso   1.000  C
  C245     1.0000 0.43806  0.11553  0.37395  Biso   1.000  C
  C246     1.0000 0.35762  0.14021  0.36135  Biso   1.000  C
  C247     1.0000 0.36978  0.17122  0.31922  Biso   1.000  C
  C248     1.0000 0.28840  0.19503  0.30737  Biso   1.000  C
  C249     1.0000 0.36510  0.02428  0.29812  Biso   1.000  C
  C250     1.0000 0.27621  0.02838  0.24940  Biso   1.000  C
  C251     1.0000 0.38023  0.07080  0.22814  Biso   1.000  C
  C252     1.0000 0.83713  0.82707  0.52827  Biso   1.000  C
  C253     1.0000 0.88508  0.79636  0.55408  Biso   1.000  C
  C254     1.0000 0.89644  0.74961  0.55251  Biso   1.000  C
  C255     1.0000 0.86248  0.73083  0.52521  Biso   1.000  C
  C256     1.0000 0.81422  0.76034  0.50062  Biso   1.000  C
  C257     1.0000 0.80040  0.80844  0.50156  Biso   1.000  C
  C258     1.0000 0.74834  0.83670  0.47322  Biso   1.000  C
  C259     1.0000 0.69465  0.94807  0.43483  Biso   1.000  C
  C260     1.0000 0.65669  0.97958  0.40084  Biso   1.000  C
  C261     1.0000 0.72489  0.99054  0.35988  Biso   1.000  C
  C262     1.0000 0.77678  0.94938  0.32966  Biso   1.000  C
  C263     1.0000 0.84426  0.95882  0.28806  Biso   1.000  C
  C264     1.0000 0.89450  0.91710  0.25770  Biso   1.000  C
  C265     1.0000 0.33212  0.58393  0.45183  Biso   1.000  C
  C266     1.0000 0.35233  0.62539  0.45075  Biso   1.000  C
  C267     1.0000 0.38209  0.64515  0.40847  Biso   1.000  C
  C268     1.0000 0.39133  0.62111  0.36983  Biso   1.000  C
  C269     1.0000 0.36768  0.58121  0.37363  Biso   1.000  C
  C270     1.0000 0.40490  0.69020  0.40720  Biso   1.000  C
  C271     1.0000 0.36772  0.65058  0.18278  Biso   1.000  C
  C272     1.0000 0.37236  0.67285  0.22043  Biso   1.000  C
  C273     1.0000 0.32581  0.66816  0.26442  Biso   1.000  C
  C274     1.0000 0.27168  0.64033  0.27351  Biso   1.000  C
  C275     1.0000 0.26713  0.61801  0.23713  Biso   1.000  C
  C276     1.0000 0.31306  0.62227  0.19181  Biso   1.000  C
  C277     1.0000 0.30290  0.59627  0.15513  Biso   1.000  C
  C278     1.0000 0.35454  0.59208  0.03744  Biso   1.000  C
  C279     1.0000 0.33872  0.57371  0.99705  Biso   1.000  C
  C280     1.0000 0.26839  0.61173  0.97969  Biso   1.000  C
  C281     1.0000 0.25980  0.59420  0.93620  Biso   1.000  C
  C282     1.0000 0.19130  0.60920  0.92940  Biso   1.000  C
  C283     1.0000 0.18340  0.58790  0.88230  Biso   1.000  C
  C284     1.0000 0.29409  0.74790  0.09052  Biso   1.000  C
  C285     1.0000 0.22497  0.78479  0.09167  Biso   1.000  C
  C286     1.0000 0.15348  0.77727  0.08817  Biso   1.000  C
  C287     1.0000 0.15368  0.73138  0.08606  Biso   1.000  C
  C288     1.0000 0.22336  0.69634  0.08574  Biso   1.000  C
  C289     1.0000 0.07840  0.81870  0.08730  Biso   1.000  C
  C290     1.0000 0.09932  0.58003  0.08193  Biso   1.000  C
  C291     1.0000 0.03331  0.61960  0.08178  Biso   1.000  C
  C292     1.0000 0.97783  0.62057  0.05717  Biso   1.000  C
  C293     1.0000 0.98422  0.58254  0.03162  Biso   1.000  C
  C294     1.0000 0.05109  0.54436  0.02986  Biso   1.000  C
  C295     1.0000 0.10904  0.54155  0.05437  Biso   1.000  C
  C296     1.0000 0.18062  0.50054  0.04802  Biso   1.000  C
  C297     1.0000 0.35233  0.45302  0.08672  Biso   1.000  C
  C298     1.0000 0.42956  0.41295  0.08173  Biso   1.000  C
  C299     1.0000 0.42754  0.38447  0.12605  Biso   1.000  C
  C300     1.0000 0.35918  0.35979  0.13865  Biso   1.000  C
  C301     1.0000 0.36022  0.32878  0.18078  Biso   1.000  C
  C302     1.0000 0.29080  0.30497  0.19263  Biso   1.000  C
  C303     1.0000 0.18750  0.47572  0.20188  Biso   1.000  C
  C304     1.0000 0.05399  0.47162  0.25060  Biso   1.000  C
  C305     1.0000 0.17917  0.42920  0.27186  Biso   1.000  C
  C306     1.0000 0.69247  0.67293  0.97173  Biso   1.000  C
  C307     1.0000 0.73552  0.70364  0.94592  Biso   1.000  C
  C308     1.0000 0.69856  0.75039  0.94749  Biso   1.000  C
  C309     1.0000 0.61852  0.76917  0.97479  Biso   1.000  C
  C310     1.0000 0.57518  0.73966  0.99938  Biso   1.000  C
  C311     1.0000 0.61040  0.69156  0.99844  Biso   1.000  C
  C312     1.0000 0.55826  0.66330  0.02678  Biso   1.000  C
  C313     1.0000 0.57755  0.55193  0.06517  Biso   1.000  C
  C314     1.0000 0.53711  0.52042  0.09916  Biso   1.000  C
  C315     1.0000 0.57531  0.50946  0.14012  Biso   1.000  C
  C316     1.0000 0.55582  0.55062  0.17034  Biso   1.000  C
  C317     1.0000 0.59114  0.54118  0.21194  Biso   1.000  C
  C318     1.0000 0.56930  0.58290  0.24230  Biso   1.000  C
  C319     1.0000 0.86788  0.91607  0.04817  Biso   1.000  C
  C320     1.0000 0.92847  0.87461  0.04925  Biso   1.000  C
  C321     1.0000 0.93571  0.85485  0.09153  Biso   1.000  C
  C322     1.0000 0.88227  0.87889  0.13017  Biso   1.000  C
  C323     1.0000 0.82252  0.91879  0.12637  Biso   1.000  C
  C324     1.0000 0.00230  0.80980  0.09280  Biso   1.000  C
  C325     1.0000 0.01830  0.68278  0.34942  Biso   1.000  C
  C326     1.0000 0.04521  0.72043  0.32715  Biso   1.000  C
  C327     1.0000 0.99397  0.76442  0.33184  Biso   1.000  C
  C328     1.0000 0.91201  0.77351  0.35967  Biso   1.000  C
  C329     1.0000 0.88514  0.73713  0.38199  Biso   1.000  C
  C330     1.0000 0.93533  0.69181  0.37773  Biso   1.000  C
  C331     1.0000 0.89917  0.65513  0.40373  Biso   1.000  C
  C332     1.0000 0.94662  0.53744  0.40792  Biso   1.000  C
  C333     1.0000 0.91243  0.49705  0.42629  Biso   1.000  C
  C334     1.0000 0.88012  0.47969  0.38827  Biso   1.000  C
  C335     1.0000 0.85400  0.43620  0.40580  Biso   1.000  C
  C336     1.0000 0.80050  0.42940  0.39080  Biso   1.000  C
  C337     1.0000 0.77130  0.38230  0.41210  Biso   1.000  C
  C338     1.0000 0.04199  0.59052  0.25210  Biso   1.000  C
  C339     1.0000 0.00976  0.59167  0.21521  Biso   1.000  C
  C340     1.0000 0.93075  0.58817  0.22273  Biso   1.000  C
  C341     1.0000 0.88506  0.58606  0.26862  Biso   1.000  C
  C342     1.0000 0.91970  0.58574  0.30366  Biso   1.000  C
  C343     1.0000 0.89710  0.58730  0.18130  Biso   1.000  C
  C344     1.0000 0.67935  0.58193  0.41997  Biso   1.000  C
  C345     1.0000 0.65291  0.58178  0.38040  Biso   1.000  C
  C346     1.0000 0.59840  0.55717  0.37943  Biso   1.000  C
  C347     1.0000 0.56676  0.53162  0.41746  Biso   1.000  C
  C348     1.0000 0.59545  0.52986  0.45564  Biso   1.000  C
  C349     1.0000 0.65059  0.55437  0.45845  Biso   1.000  C
  C350     1.0000 0.68116  0.54802  0.49946  Biso   1.000  C
  C351     1.0000 0.80535  0.58672  0.54698  Biso   1.000  C
  C352     1.0000 0.84251  0.58173  0.58705  Biso   1.000  C
  C353     1.0000 0.81201  0.62605  0.61553  Biso   1.000  C
  C354     1.0000 0.71897  0.63865  0.64021  Biso   1.000  C
  C355     1.0000 0.68900  0.68078  0.67122  Biso   1.000  C
  C356     1.0000 0.59577  0.69263  0.69503  Biso   1.000  C
  C357     1.0000 0.66322  0.70188  0.52428  Biso   1.000  C
  C358     1.0000 0.52561  0.75060  0.52838  Biso   1.000  C
  C359     1.0000 0.60837  0.77186  0.57080  Biso   1.000  C
  C360     1.0000 0.36540  0.47173  0.32707  Biso   1.000  C
  C361     1.0000 0.43916  0.44592  0.29636  Biso   1.000  C
  C362     1.0000 0.44895  0.44749  0.24961  Biso   1.000  C
  C363     1.0000 0.38769  0.47479  0.23083  Biso   1.000  C
  C364     1.0000 0.31484  0.49938  0.26034  Biso   1.000  C
  C365     1.0000 0.30196  0.49844  0.30844  Biso   1.000  C
  C366     1.0000 0.22156  0.52678  0.33670  Biso   1.000  C
  C367     1.0000 0.12948  0.56517  0.44807  Biso   1.000  C
  C368     1.0000 0.05753  0.59916  0.47958  Biso   1.000  C
  C369     1.0000 0.08477  0.64012  0.49054  Biso   1.000  C
  C370     1.0000 0.10644  0.67034  0.44938  Biso   1.000  C
  C371     1.0000 0.13232  0.71194  0.45882  Biso   1.000  C
  C372     1.0000 0.15220  0.74230  0.41710  Biso   1.000  C
  C373     1.0000 0.78395  0.54817  0.08393  Biso   1.000  C
  C374     1.0000 0.80308  0.54925  0.12539  Biso   1.000  C
  C375     1.0000 0.79056  0.59153  0.14515  Biso   1.000  C
  C376     1.0000 0.76116  0.63017  0.12111  Biso   1.000  C
  C377     1.0000 0.74131  0.62637  0.08121  Biso   1.000  C
  C378     1.0000 0.81210  0.59280  0.19020  Biso   1.000  C
  C379     1.0000 0.55050  0.81722  0.15058  Biso   1.000  C
  C380     1.0000 0.59279  0.77957  0.17285  Biso   1.000  C
  C381     1.0000 0.59023  0.73558  0.16816  Biso   1.000  C
  C382     1.0000 0.54519  0.72649  0.14033  Biso   1.000  C
  C383     1.0000 0.50426  0.76287  0.11801  Biso   1.000  C
  C384     1.0000 0.50487  0.80819  0.12227  Biso   1.000  C
  C385     1.0000 0.45803  0.84487  0.09627  Biso   1.000  C
  C386     1.0000 0.39198  0.96256  0.09208  Biso   1.000  C
  C387     1.0000 0.33577  0.00295  0.07371  Biso   1.000  C
  C388     1.0000 0.24808  0.02031  0.11173  Biso   1.000  C
  C389     1.0000 0.19600  0.06380  0.09420  Biso   1.000  C
  C390     1.0000 0.12070  0.07060  0.10920  Biso   1.000  C
  C391     1.0000 0.06570  0.11770  0.08790  Biso   1.000  C
  C392     1.0000 0.38461  0.90948  0.24790  Biso   1.000  C
  C393     1.0000 0.31664  0.90833  0.28479  Biso   1.000  C
  C394     1.0000 0.24165  0.91183  0.27727  Biso   1.000  C
  C395     1.0000 0.23974  0.91394  0.23138  Biso   1.000  C
  C396     1.0000 0.30910  0.91426  0.19634  Biso   1.000  C
  C397     1.0000 0.16570  0.91270  0.31870  Biso   1.000  C
  C398     1.0000 0.18125  0.91807  0.08003  Biso   1.000  C
  C399     1.0000 0.11509  0.91822  0.11960  Biso   1.000  C
  C400     1.0000 0.03500  0.94283  0.12057  Biso   1.000  C
  C401     1.0000 0.01584  0.96838  0.08254  Biso   1.000  C
  C402     1.0000 0.08095  0.97014  0.04436  Biso   1.000  C
  C403     1.0000 0.16341  0.94563  0.04155  Biso   1.000  C
  C404     1.0000 0.22864  0.95198  0.00054  Biso   1.000  C
  C405     1.0000 0.43905  0.91328  0.95302  Biso   1.000  C
  C406     1.0000 0.51129  0.91827  0.91295  Biso   1.000  C
  C407     1.0000 0.55359  0.87395  0.88447  Biso   1.000  C
  C408     1.0000 0.49783  0.86135  0.85979  Biso   1.000  C
  C409     1.0000 0.54100  0.81922  0.82878  Biso   1.000  C
  C410     1.0000 0.48343  0.80737  0.80497  Biso   1.000  C
  C411     1.0000 0.38938  0.79812  0.97572  Biso   1.000  C
  C412     1.0000 0.30459  0.74940  0.97162  Biso   1.000  C
  C413     1.0000 0.45103  0.72814  0.92920  Biso   1.000  C
  C414     1.0000 0.66420  0.02827  0.17293  Biso   1.000  C
  C415     1.0000 0.68144  0.05408  0.20364  Biso   1.000  C
  C416     1.0000 0.64605  0.05251  0.25039  Biso   1.000  C
  C417     1.0000 0.59331  0.02521  0.26917  Biso   1.000  C
  C418     1.0000 0.57456  0.00062  0.23966  Biso   1.000  C
  C419     1.0000 0.60884  0.00156  0.19156  Biso   1.000  C
  C420     1.0000 0.58504  0.97322  0.16330  Biso   1.000  C
  C421     1.0000 0.64272  0.93483  0.05193  Biso   1.000  C
  C422     1.0000 0.63627  0.90084  0.02042  Biso   1.000  C
  C423     1.0000 0.71543  0.85988  0.00946  Biso   1.000  C
  C424     1.0000 0.72616  0.82966  0.05062  Biso   1.000  C
  C425     1.0000 0.80308  0.78806  0.04118  Biso   1.000  C
  C426     1.0000 0.81160  0.75770  0.08290  Biso   1.000  C
  C427     1.0000 0.91605  0.95183  0.41607  Biso   1.000  C
  C428     1.0000 0.97772  0.95075  0.37461  Biso   1.000  C
  C429     1.0000 0.02724  0.90847  0.35485  Biso   1.000  C
  C430     1.0000 0.01244  0.86983  0.37889  Biso   1.000  C
  C431     1.0000 0.94889  0.87363  0.41879  Biso   1.000  C
  C432     1.0000 0.09510  0.90720  0.30980  Biso   1.000  C
  N1       1.0000 0.44341  0.10202  0.61162  Biso   1.000  N
  N2       1.0000 0.51766  0.07801  0.57927  Biso   1.000  N
  N3       1.0000 0.41406  0.20415  0.58773  Biso   1.000  N
  N4       1.0000 0.69544  0.99686  0.57066  Biso   1.000  N
  N5       1.0000 0.67942  0.95589  0.56027  Biso   1.000  N
  N6       1.0000 0.65957  0.95863  0.73943  Biso   1.000  N
  N7       1.0000 0.25872  0.11856  0.53056  Biso   1.000  N
  N8       1.0000 0.30339  0.09486  0.56180  Biso   1.000  N
  N9       1.0000 0.66068  0.43793  0.58651  Biso   1.000  N
  N10      1.0000 0.65705  0.39798  0.88838  Biso   1.000  N
  N11      1.0000 0.67494  0.42199  0.92073  Biso   1.000  N
  N12      1.0000 0.70594  0.29585  0.91227  Biso   1.000  N
  N13      1.0000 0.76296  0.50314  0.92934  Biso   1.000  N
  N14      1.0000 0.69558  0.54411  0.93973  Biso   1.000  N
  N15      1.0000 0.85763  0.54137  0.76057  Biso   1.000  N
  N16      1.0000 0.40784  0.38144  0.96944  Biso   1.000  N
  N17      1.0000 0.46005  0.40514  0.93820  Biso   1.000  N
  N18      1.0000 0.18512  0.06207  0.91349  Biso   1.000  N
  N19      1.0000 0.05503  0.38838  0.60202  Biso   1.000  N
  N20      1.0000 0.09693  0.42073  0.57801  Biso   1.000  N
  N21      1.0000 0.00179  0.41227  0.70415  Biso   1.000  N
  N22      1.0000 0.26610  0.42934  0.49686  Biso   1.000  N
  N23      1.0000 0.23969  0.43973  0.45589  Biso   1.000  N
  N24      1.0000 0.39900  0.26057  0.45863  Biso   1.000  N
  N25      1.0000 0.78928  0.46944  0.61856  Biso   1.000  N
  N26      1.0000 0.86519  0.43820  0.59486  Biso   1.000  N
  N27      1.0000 0.24719  0.41349  0.93793  Biso   1.000  N
  N28      1.0000 0.54543  0.11162  0.89798  Biso   1.000  N
  N29      1.0000 0.59567  0.07927  0.92199  Biso   1.000  N
  N30      1.0000 0.61821  0.08773  0.79585  Biso   1.000  N
  N31      1.0000 0.69230  0.07066  0.00314  Biso   1.000  N
  N32      1.0000 0.63531  0.06027  0.04411  Biso   1.000  N
  N33      1.0000 0.61820  0.23943  0.04137  Biso   1.000  N
  N34      1.0000 0.37728  0.03056  0.88144  Biso   1.000  N
  N35      1.0000 0.39825  0.06180  0.90514  Biso   1.000  N
  N36      1.0000 0.09861  0.08651  0.56207  Biso   1.000  N
  N37      1.0000 0.55659  0.89798  0.38838  Biso   1.000  N
  N38      1.0000 0.48234  0.92199  0.42073  Biso   1.000  N
  N39      1.0000 0.58594  0.79585  0.41227  Biso   1.000  N
  N40      1.0000 0.30456  0.00314  0.42934  Biso   1.000  N
  N41      1.0000 0.32058  0.04411  0.43973  Biso   1.000  N
  N42      1.0000 0.34043  0.04137  0.26057  Biso   1.000  N
  N43      1.0000 0.74128  0.88144  0.46944  Biso   1.000  N
  N44      1.0000 0.69661  0.90514  0.43820  Biso   1.000  N
  N45      1.0000 0.33932  0.56207  0.41349  Biso   1.000  N
  N46      1.0000 0.34295  0.60202  0.11162  Biso   1.000  N
  N47      1.0000 0.32506  0.57801  0.07927  Biso   1.000  N
  N48      1.0000 0.29406  0.70415  0.08773  Biso   1.000  N
  N49      1.0000 0.23704  0.49686  0.07066  Biso   1.000  N
  N50      1.0000 0.30442  0.45589  0.06027  Biso   1.000  N
  N51      1.0000 0.14237  0.45863  0.23943  Biso   1.000  N
  N52      1.0000 0.59216  0.61856  0.03056  Biso   1.000  N
  N53      1.0000 0.53995  0.59486  0.06180  Biso   1.000  N
  N54      1.0000 0.81488  0.93793  0.08651  Biso   1.000  N
  N55      1.0000 0.94497  0.61162  0.39798  Biso   1.000  N
  N56      1.0000 0.90307  0.57927  0.42199  Biso   1.000  N
  N57      1.0000 0.99821  0.58773  0.29585  Biso   1.000  N
  N58      1.0000 0.73390  0.57066  0.50314  Biso   1.000  N
  N59      1.0000 0.76031  0.56027  0.54411  Biso   1.000  N
  N60      1.0000 0.60100  0.73943  0.54137  Biso   1.000  N
  N61      1.0000 0.21072  0.53056  0.38144  Biso   1.000  N
  N62      1.0000 0.13481  0.56180  0.40514  Biso   1.000  N
  N63      1.0000 0.75281  0.58651  0.06207  Biso   1.000  N
  N64      1.0000 0.45457  0.88838  0.10202  Biso   1.000  N
  N65      1.0000 0.40433  0.92073  0.07801  Biso   1.000  N
  N66      1.0000 0.38179  0.91227  0.20415  Biso   1.000  N
  N67      1.0000 0.30770  0.92934  0.99686  Biso   1.000  N
  N68      1.0000 0.36469  0.93973  0.95589  Biso   1.000  N
  N69      1.0000 0.38180  0.76057  0.95863  Biso   1.000  N
  N70      1.0000 0.62272  0.96944  0.11856  Biso   1.000  N
  N71      1.0000 0.60175  0.93820  0.09486  Biso   1.000  N
  N72      1.0000 0.90139  0.91349  0.43793  Biso   1.000  N
  O1       1.0000 0.28578  0.15763  0.64105  Biso   1.000  O
  O2       1.0000 0.50919  0.06993  0.66641  Biso   1.000  O
  O3       1.0000 0.45282  0.12342  0.52864  Biso   1.000  O
  O4       1.0000 0.66277  0.08091  0.60827  Biso   1.000  O
  O5       1.0000 0.82330  0.96855  0.52019  Biso   1.000  O
  O6       1.0000 0.56089  0.98411  0.61893  Biso   1.000  O
  O7       1.0000 0.66216  0.00238  0.67452  Biso   1.000  O
  O8       1.0000 0.16955  0.12824  0.46876  Biso   1.000  O
  O9       1.0000 0.28695  0.18251  0.54833  Biso   1.000  O
  O10      1.0000 0.27161  0.03356  0.54054  Biso   1.000  O
  O11      1.0000 0.58446  0.34237  0.85895  Biso   1.000  O
  O12      1.0000 0.74553  0.43007  0.83359  Biso   1.000  O
  O13      1.0000 0.60488  0.37658  0.97136  Biso   1.000  O
  O14      1.0000 0.85195  0.41909  0.89173  Biso   1.000  O
  O15      1.0000 0.81204  0.53145  0.97981  Biso   1.000  O
  O16      1.0000 0.66393  0.51589  0.88107  Biso   1.000  O
  O17      1.0000 0.83906  0.49762  0.82548  Biso   1.000  O
  O18      1.0000 0.26655  0.37176  0.03124  Biso   1.000  O
  O19      1.0000 0.51779  0.31749  0.95167  Biso   1.000  O
  O20      1.0000 0.34571  0.46644  0.95946  Biso   1.000  O
  O21      1.0000 0.92683  0.35895  0.65763  Biso   1.000  O
  O22      1.0000 0.17560  0.33359  0.56993  Biso   1.000  O
  O23      1.0000 0.98146  0.47136  0.62342  Biso   1.000  O
  O24      1.0000 0.27104  0.39173  0.58091  Biso   1.000  O
  O25      1.0000 0.34349  0.47981  0.46855  Biso   1.000  O
  O26      1.0000 0.17982  0.38107  0.48411  Biso   1.000  O
  O27      1.0000 0.33668  0.32548  0.50238  Biso   1.000  O
  O28      1.0000 0.63831  0.53124  0.62824  Biso   1.000  O
  O29      1.0000 0.83528  0.45167  0.68251  Biso   1.000  O
  O30      1.0000 0.81215  0.45946  0.53356  Biso   1.000  O
  O31      1.0000 0.44341  0.14105  0.84237  Biso   1.000  O
  O32      1.0000 0.57912  0.16641  0.93007  Biso   1.000  O
  O33      1.0000 0.57624  0.02864  0.87658  Biso   1.000  O
  O34      1.0000 0.74368  0.10827  0.91909  Biso   1.000  O
  O35      1.0000 0.79185  0.02019  0.03145  Biso   1.000  O
  O36      1.0000 0.54500  0.11893  0.01589  Biso   1.000  O
  O37      1.0000 0.66454  0.17452  0.99762  Biso   1.000  O
  O38      1.0000 0.29779  0.96876  0.87176  Biso   1.000  O
  O39      1.0000 0.46946  0.04833  0.81749  Biso   1.000  O
  O40      1.0000 0.30517  0.04054  0.96644  Biso   1.000  O
  O41      1.0000 0.71422  0.84237  0.35895  Biso   1.000  O
  O42      1.0000 0.49081  0.93007  0.33359  Biso   1.000  O
  O43      1.0000 0.54718  0.87658  0.47136  Biso   1.000  O
  O44      1.0000 0.33723  0.91909  0.39173  Biso   1.000  O
  O45      1.0000 0.17670  0.03145  0.47981  Biso   1.000  O
  O46      1.0000 0.43911  0.01589  0.38107  Biso   1.000  O
  O47      1.0000 0.33784  0.99762  0.32548  Biso   1.000  O
  O48      1.0000 0.83045  0.87176  0.53124  Biso   1.000  O
  O49      1.0000 0.71305  0.81749  0.45167  Biso   1.000  O
  O50      1.0000 0.72839  0.96644  0.45946  Biso   1.000  O
  O51      1.0000 0.41554  0.65763  0.14105  Biso   1.000  O
  O52      1.0000 0.25447  0.56993  0.16641  Biso   1.000  O
  O53      1.0000 0.39512  0.62342  0.02864  Biso   1.000  O
  O54      1.0000 0.14805  0.58091  0.10827  Biso   1.000  O
  O55      1.0000 0.18796  0.46855  0.02019  Biso   1.000  O
  O56      1.0000 0.33607  0.48411  0.11893  Biso   1.000  O
  O57      1.0000 0.16094  0.50238  0.17452  Biso   1.000  O
  O58      1.0000 0.73345  0.62824  0.96876  Biso   1.000  O
  O59      1.0000 0.48221  0.68251  0.04833  Biso   1.000  O
  O60      1.0000 0.65429  0.53356  0.04054  Biso   1.000  O
  O61      1.0000 0.07317  0.64105  0.34237  Biso   1.000  O
  O62      1.0000 0.82440  0.66641  0.43007  Biso   1.000  O
  O63      1.0000 0.01854  0.52864  0.37658  Biso   1.000  O
  O64      1.0000 0.72896  0.60827  0.41909  Biso   1.000  O
  O65      1.0000 0.65651  0.52019  0.53145  Biso   1.000  O
  O66      1.0000 0.82018  0.61893  0.51589  Biso   1.000  O
  O67      1.0000 0.66332  0.67452  0.49762  Biso   1.000  O
  O68      1.0000 0.36169  0.46876  0.37176  Biso   1.000  O
  O69      1.0000 0.16472  0.54833  0.31749  Biso   1.000  O
  O70      1.0000 0.18785  0.54054  0.46644  Biso   1.000  O
  O71      1.0000 0.55659  0.85895  0.15763  Biso   1.000  O
  O72      1.0000 0.42088  0.83359  0.06993  Biso   1.000  O
  O73      1.0000 0.42376  0.97136  0.12342  Biso   1.000  O
  O74      1.0000 0.25632  0.89173  0.08091  Biso   1.000  O
  O75      1.0000 0.20815  0.97981  0.96855  Biso   1.000  O
  O76      1.0000 0.45500  0.88107  0.98411  Biso   1.000  O
  O77      1.0000 0.33546  0.82548  0.00238  Biso   1.000  O
  O78      1.0000 0.70221  0.03124  0.12824  Biso   1.000  O
  O79      1.0000 0.53054  0.95167  0.18251  Biso   1.000  O
  O80      1.0000 0.69483  0.95946  0.03356  Biso   1.000  O
