data_image0
_cell_length_a       17.204
_cell_length_b       30.0292
_cell_length_c       30.0292
_cell_angle_alpha    85.2932
_cell_angle_beta     73.3542
_cell_angle_gamma    73.3542

_symmetry_space_group_name_H-M    P 1
_symmetry_int_tables_number       1

loop_
  _symmetry_equiv_pos_as_xyz
  'x, y, z'

loop_
  _atom_site_label
  _atom_site_occupancy
  _atom_site_fract_x
  _atom_site_fract_y
  _atom_site_fract_z
  _atom_site_thermal_displace_type
  _atom_site_B_iso_or_equiv
  _atom_site_type_symbol
  Mn1      1.0000 0.39403  0.96405  0.38061  Biso   1.000  Mn
  Mn2      1.0000 0.21502  0.07791  0.49996  Biso   1.000  Mn
  Mn3      1.0000 0.64085  0.85684  0.41604  Biso   1.000  Mn
  Mn4      1.0000 0.23869  0.53595  0.11939  Biso   1.000  Mn
  Mn5      1.0000 0.29290  0.42209  0.00004  Biso   1.000  Mn
  Mn6      1.0000 0.41373  0.64316  0.08396  Biso   1.000  Mn
  Mn7      1.0000 0.77464  0.61939  0.46405  Biso   1.000  Mn
  Mn8      1.0000 0.71499  0.50004  0.57790  Biso   1.000  Mn
  Mn9      1.0000 0.05689  0.58396  0.35684  Biso   1.000  Mn
  Mn10     1.0000 0.35808  0.88061  0.03595  Biso   1.000  Mn
  Mn11     1.0000 0.29293  0.99996  0.92210  Biso   1.000  Mn
  Mn12     1.0000 0.49769  0.91604  0.14316  Biso   1.000  Mn
  Mn13     1.0000 0.60597  0.03595  0.61939  Biso   1.000  Mn
  Mn14     1.0000 0.78498  0.92209  0.50004  Biso   1.000  Mn
  Mn15     1.0000 0.35915  0.14316  0.58396  Biso   1.000  Mn
  Mn16     1.0000 0.76131  0.46405  0.88061  Biso   1.000  Mn
  Mn17     1.0000 0.70710  0.57791  0.99996  Biso   1.000  Mn
  Mn18     1.0000 0.58627  0.35684  0.91604  Biso   1.000  Mn
  Mn19     1.0000 0.22536  0.38061  0.53595  Biso   1.000  Mn
  Mn20     1.0000 0.28501  0.49996  0.42210  Biso   1.000  Mn
  Mn21     1.0000 0.94311  0.41604  0.64316  Biso   1.000  Mn
  Mn22     1.0000 0.64192  0.11939  0.96405  Biso   1.000  Mn
  Mn23     1.0000 0.70707  0.00004  0.07790  Biso   1.000  Mn
  Mn24     1.0000 0.50231  0.08396  0.85684  Biso   1.000  Mn
  H1       1.0000 0.27380  0.85070  0.40230  Biso   1.000  H
  H2       1.0000 0.14070  0.84760  0.44680  Biso   1.000  H
  H3       1.0000 0.04600  0.91210  0.48650  Biso   1.000  H
  H4       1.0000 0.08710  0.97880  0.49000  Biso   1.000  H
  H5       1.0000 0.38090  0.10840  0.44140  Biso   1.000  H
  H6       1.0000 0.47630  0.07670  0.42470  Biso   1.000  H
  H7       1.0000 0.46500  0.13970  0.37510  Biso   1.000  H
  H8       1.0000 0.47470  0.09530  0.34570  Biso   1.000  H
  H9       1.0000 0.32890  0.11720  0.35400  Biso   1.000  H
  H10      1.0000 0.31550  0.15980  0.38660  Biso   1.000  H
  H11      1.0000 0.40670  0.15280  0.29020  Biso   1.000  H
  H12      1.0000 0.39480  0.19520  0.32280  Biso   1.000  H
  H13      1.0000 0.24760  0.21460  0.33320  Biso   1.000  H
  H14      1.0000 0.29800  0.21740  0.27960  Biso   1.000  H
  H15      1.0000 0.26230  0.17360  0.29820  Biso   1.000  H
  H16      1.0000 0.40790  0.03380  0.29980  Biso   1.000  H
  H17      1.0000 0.42640  0.06890  0.23310  Biso   1.000  H
  H18      1.0000 0.38850  0.05600  0.19460  Biso   1.000  H
  H19      1.0000 0.33680  0.09990  0.22790  Biso   1.000  H
  H20      1.0000 0.22760  0.05040  0.24140  Biso   1.000  H
  H21      1.0000 0.29840  0.00470  0.21870  Biso   1.000  H
  H22      1.0000 0.24710  0.00480  0.27240  Biso   1.000  H
  H23      1.0000 0.08450  0.19260  0.42620  Biso   1.000  H
  H24      1.0000 0.06880  0.27080  0.42680  Biso   1.000  H
  H25      1.0000 0.12650  0.30220  0.47420  Biso   1.000  H
  H26      1.0000 0.21190  0.25160  0.51580  Biso   1.000  H
  H27      1.0000 0.37840  0.99040  0.58400  Biso   1.000  H
  H28      1.0000 0.37320  0.03530  0.61130  Biso   1.000  H
  H29      1.0000 0.29550  0.98420  0.65940  Biso   1.000  H
  H30      1.0000 0.23240  0.99670  0.62710  Biso   1.000  H
  H31      1.0000 0.18960  0.07580  0.65000  Biso   1.000  H
  H32      1.0000 0.25480  0.06460  0.68080  Biso   1.000  H
  H33      1.0000 0.17540  0.01590  0.72950  Biso   1.000  H
  H34      1.0000 0.10800  0.03160  0.70000  Biso   1.000  H
  H35      1.0000 0.12460  0.10860  0.72820  Biso   1.000  H
  H36      1.0000 0.04340  0.08920  0.74460  Biso   1.000  H
  H37      1.0000 0.11370  0.07490  0.77230  Biso   1.000  H
  H38      1.0000 0.05840  0.15390  0.56730  Biso   1.000  H
  H39      1.0000 0.95080  0.15720  0.63360  Biso   1.000  H
  H40      1.0000 0.11340  0.01820  0.56680  Biso   1.000  H
  H41      1.0000 0.00940  0.01950  0.63650  Biso   1.000  H
  H42      1.0000 0.89850  0.11680  0.70860  Biso   1.000  H
  H43      1.0000 0.91650  0.06150  0.70670  Biso   1.000  H
  H44      1.0000 0.82260  0.80800  0.28500  Biso   1.000  H
  H45      1.0000 0.81000  0.81570  0.20970  Biso   1.000  H
  H46      1.0000 0.68760  0.86360  0.19380  Biso   1.000  H
  H47      1.0000 0.57700  0.90220  0.25440  Biso   1.000  H
  H48      1.0000 0.37170  0.95460  0.49140  Biso   1.000  H
  H49      1.0000 0.42790  0.93570  0.52690  Biso   1.000  H
  H50      1.0000 0.33990  0.88110  0.49470  Biso   1.000  H
  H51      1.0000 0.39910  0.86060  0.52820  Biso   1.000  H
  H52      1.0000 0.30730  0.90870  0.58810  Biso   1.000  H
  H53      1.0000 0.25270  0.93700  0.55480  Biso   1.000  H
  H54      1.0000 0.26300  0.84570  0.58190  Biso   1.000  H
  H55      1.0000 0.20470  0.87620  0.55060  Biso   1.000  H
  H56      1.0000 0.13680  0.93600  0.61420  Biso   1.000  H
  H57      1.0000 0.19300  0.90450  0.64550  Biso   1.000  H
  H58      1.0000 0.12080  0.88740  0.63420  Biso   1.000  H
  H59      1.0000 0.69270  0.08440  0.83560  Biso   1.000  H
  H60      1.0000 0.80810  0.09270  0.77670  Biso   1.000  H
  H61      1.0000 0.56050  0.09530  0.74650  Biso   1.000  H
  H62      1.0000 0.66980  0.10170  0.68610  Biso   1.000  H
  H63      1.0000 0.81680  0.12590  0.66670  Biso   1.000  H
  H64      1.0000 0.83750  0.07130  0.66090  Biso   1.000  H
  H65      1.0000 0.02680  0.64930  0.09770  Biso   1.000  H
  H66      1.0000 0.93510  0.65240  0.05320  Biso   1.000  H
  H67      1.0000 0.94460  0.58790  0.01350  Biso   1.000  H
  H68      1.0000 0.05590  0.52120  0.01000  Biso   1.000  H
  H69      1.0000 0.43070  0.39160  0.05860  Biso   1.000  H
  H70      1.0000 0.47770  0.42330  0.07530  Biso   1.000  H
  H71      1.0000 0.47980  0.36030  0.12490  Biso   1.000  H
  H72      1.0000 0.41570  0.40470  0.15430  Biso   1.000  H
  H73      1.0000 0.30010  0.38280  0.14600  Biso   1.000  H
  H74      1.0000 0.36190  0.34020  0.11340  Biso   1.000  H
  H75      1.0000 0.34970  0.34720  0.20980  Biso   1.000  H
  H76      1.0000 0.41280  0.30480  0.17720  Biso   1.000  H
  H77      1.0000 0.29540  0.28540  0.16680  Biso   1.000  H
  H78      1.0000 0.29500  0.28260  0.22040  Biso   1.000  H
  H79      1.0000 0.23410  0.32640  0.20180  Biso   1.000  H
  H80      1.0000 0.24150  0.46620  0.20020  Biso   1.000  H
  H81      1.0000 0.22840  0.43110  0.26690  Biso   1.000  H
  H82      1.0000 0.13910  0.44400  0.30540  Biso   1.000  H
  H83      1.0000 0.16460  0.40010  0.27210  Biso   1.000  H
  H84      1.0000 0.01940  0.44960  0.25860  Biso   1.000  H
  H85      1.0000 0.02180  0.49530  0.28130  Biso   1.000  H
  H86      1.0000 0.02430  0.49520  0.22760  Biso   1.000  H
  H87      1.0000 0.20330  0.30740  0.07380  Biso   1.000  H
  H88      1.0000 0.26640  0.22920  0.07320  Biso   1.000  H
  H89      1.0000 0.40290  0.19780  0.02580  Biso   1.000  H
  H90      1.0000 0.47930  0.24840  0.98420  Biso   1.000  H
  H91      1.0000 0.45280  0.50960  0.91600  Biso   1.000  H
  H92      1.0000 0.51980  0.46470  0.88870  Biso   1.000  H
  H93      1.0000 0.43910  0.51580  0.84060  Biso   1.000  H
  H94      1.0000 0.35620  0.50330  0.87290  Biso   1.000  H
  H95      1.0000 0.41540  0.42420  0.85000  Biso   1.000  H
  H96      1.0000 0.50020  0.43540  0.81920  Biso   1.000  H
  H97      1.0000 0.42080  0.48410  0.77050  Biso   1.000  H
  H98      1.0000 0.33960  0.46840  0.80000  Biso   1.000  H
  H99      1.0000 0.46140  0.39140  0.77180  Biso   1.000  H
  H100     1.0000 0.37720  0.41080  0.75540  Biso   1.000  H
  H101     1.0000 0.46090  0.42510  0.72770  Biso   1.000  H
  H102     1.0000 0.27960  0.34610  0.93270  Biso   1.000  H
  H103     1.0000 0.24160  0.34280  0.86640  Biso   1.000  H
  H104     1.0000 0.19840  0.48180  0.93320  Biso   1.000  H
  H105     1.0000 0.16540  0.48050  0.86350  Biso   1.000  H
  H106     1.0000 0.22390  0.38320  0.79140  Biso   1.000  H
  H107     1.0000 0.18470  0.43850  0.79330  Biso   1.000  H
  H108     1.0000 0.41560  0.69200  0.21500  Biso   1.000  H
  H109     1.0000 0.33540  0.68430  0.29030  Biso   1.000  H
  H110     1.0000 0.24500  0.63640  0.30620  Biso   1.000  H
  H111     1.0000 0.23360  0.59780  0.24560  Biso   1.000  H
  H112     1.0000 0.31770  0.54540  0.00860  Biso   1.000  H
  H113     1.0000 0.39050  0.56430  0.97310  Biso   1.000  H
  H114     1.0000 0.21570  0.61890  0.00530  Biso   1.000  H
  H115     1.0000 0.28790  0.63940  0.97180  Biso   1.000  H
  H116     1.0000 0.30410  0.59130  0.91190  Biso   1.000  H
  H117     1.0000 0.24450  0.56300  0.94520  Biso   1.000  H
  H118     1.0000 0.19060  0.65430  0.91810  Biso   1.000  H
  H119     1.0000 0.13150  0.62380  0.94940  Biso   1.000  H
  H120     1.0000 0.18700  0.56400  0.88580  Biso   1.000  H
  H121     1.0000 0.24300  0.59550  0.85450  Biso   1.000  H
  H122     1.0000 0.14240  0.61260  0.86580  Biso   1.000  H
  H123     1.0000 0.11270  0.41560  0.66440  Biso   1.000  H
  H124     1.0000 0.17750  0.40730  0.72330  Biso   1.000  H
  H125     1.0000 0.90230  0.40470  0.75350  Biso   1.000  H
  H126     1.0000 0.95760  0.39830  0.81390  Biso   1.000  H
  H127     1.0000 0.10940  0.37410  0.83330  Biso   1.000  H
  H128     1.0000 0.06970  0.42870  0.83910  Biso   1.000  H
  H129     1.0000 0.67610  0.59770  0.35070  Biso   1.000  H
  H130     1.0000 0.58750  0.55320  0.34760  Biso   1.000  H
  H131     1.0000 0.53250  0.51350  0.41210  Biso   1.000  H
  H132     1.0000 0.57710  0.51000  0.47880  Biso   1.000  H
  H133     1.0000 0.82230  0.55860  0.60840  Biso   1.000  H
  H134     1.0000 0.90100  0.57530  0.57670  Biso   1.000  H
  H135     1.0000 0.84010  0.62490  0.63970  Biso   1.000  H
  H136     1.0000 0.82040  0.65430  0.59530  Biso   1.000  H
  H137     1.0000 0.68290  0.64600  0.61720  Biso   1.000  H
  H138     1.0000 0.70210  0.61340  0.65980  Biso   1.000  H
  H139     1.0000 0.69690  0.70980  0.65280  Biso   1.000  H
  H140     1.0000 0.71760  0.67720  0.69520  Biso   1.000  H
  H141     1.0000 0.58080  0.66680  0.71460  Biso   1.000  H
  H142     1.0000 0.57760  0.72040  0.71740  Biso   1.000  H
  H143     1.0000 0.56050  0.70180  0.67360  Biso   1.000  H
  H144     1.0000 0.70770  0.70020  0.53380  Biso   1.000  H
  H145     1.0000 0.65950  0.76690  0.56890  Biso   1.000  H
  H146     1.0000 0.58310  0.80540  0.55600  Biso   1.000  H
  H147     1.0000 0.56470  0.77210  0.59990  Biso   1.000  H
  H148     1.0000 0.46900  0.75860  0.55040  Biso   1.000  H
  H149     1.0000 0.51710  0.78130  0.50470  Biso   1.000  H
  H150     1.0000 0.51950  0.72760  0.50480  Biso   1.000  H
  H151     1.0000 0.51070  0.57380  0.69260  Biso   1.000  H
  H152     1.0000 0.49560  0.57320  0.77080  Biso   1.000  H
  H153     1.0000 0.60070  0.52580  0.80220  Biso   1.000  H
  H154     1.0000 0.72770  0.48420  0.75160  Biso   1.000  H
  H155     1.0000 0.96240  0.41600  0.49040  Biso   1.000  H
  H156     1.0000 0.98450  0.38870  0.53530  Biso   1.000  H
  H157     1.0000 0.95490  0.34060  0.48420  Biso   1.000  H
  H158     1.0000 0.85950  0.37290  0.49670  Biso   1.000  H
  H159     1.0000 0.83960  0.35000  0.57580  Biso   1.000  H
  H160     1.0000 0.93560  0.31920  0.56460  Biso   1.000  H
  H161     1.0000 0.90490  0.27050  0.51590  Biso   1.000  H
  H162     1.0000 0.80800  0.30000  0.53160  Biso   1.000  H
  H163     1.0000 0.85280  0.27180  0.60860  Biso   1.000  H
  H164     1.0000 0.78800  0.25540  0.58920  Biso   1.000  H
  H165     1.0000 0.88600  0.22770  0.57490  Biso   1.000  H
  H166     1.0000 0.62570  0.43270  0.65390  Biso   1.000  H
  H167     1.0000 0.58440  0.36640  0.65720  Biso   1.000  H
  H168     1.0000 0.68020  0.43320  0.51820  Biso   1.000  H
  H169     1.0000 0.64590  0.36350  0.51950  Biso   1.000  H
  H170     1.0000 0.60710  0.29140  0.61680  Biso   1.000  H
  H171     1.0000 0.62320  0.29330  0.56150  Biso   1.000  H
  H172     1.0000 0.10760  0.71500  0.30800  Biso   1.000  H
  H173     1.0000 0.01970  0.79030  0.31570  Biso   1.000  H
  H174     1.0000 0.88140  0.80620  0.36360  Biso   1.000  H
  H175     1.0000 0.83140  0.74560  0.40220  Biso   1.000  H
  H176     1.0000 0.86310  0.50860  0.45460  Biso   1.000  H
  H177     1.0000 0.95480  0.47310  0.43570  Biso   1.000  H
  H178     1.0000 0.83460  0.50530  0.38110  Biso   1.000  H
  H179     1.0000 0.92730  0.47180  0.36060  Biso   1.000  H
  H180     1.0000 0.89540  0.41190  0.40870  Biso   1.000  H
  H181     1.0000 0.80750  0.44520  0.43700  Biso   1.000  H
  H182     1.0000 0.84490  0.41810  0.34570  Biso   1.000  H
  H183     1.0000 0.75530  0.44940  0.37620  Biso   1.000  H
  H184     1.0000 0.75100  0.38580  0.43600  Biso   1.000  H
  H185     1.0000 0.83850  0.35450  0.40450  Biso   1.000  H
  H186     1.0000 0.75500  0.36580  0.38740  Biso   1.000  H
  H187     1.0000 0.52830  0.16440  0.58440  Biso   1.000  H
  H188     1.0000 0.58480  0.22330  0.59270  Biso   1.000  H
  H189     1.0000 0.30700  0.25350  0.59530  Biso   1.000  H
  H190     1.0000 0.35590  0.31390  0.60170  Biso   1.000  H
  H191     1.0000 0.48350  0.33330  0.62590  Biso   1.000  H
  H192     1.0000 0.49840  0.33910  0.57130  Biso   1.000  H
  H193     1.0000 0.12450  0.90230  0.14930  Biso   1.000  H
  H194     1.0000 0.98830  0.94680  0.15240  Biso   1.000  H
  H195     1.0000 0.95810  0.98650  0.08790  Biso   1.000  H
  H196     1.0000 0.06590  0.99000  0.02120  Biso   1.000  H
  H197     1.0000 0.48930  0.94140  0.89160  Biso   1.000  H
  H198     1.0000 0.55300  0.92470  0.92330  Biso   1.000  H
  H199     1.0000 0.60470  0.87510  0.86030  Biso   1.000  H
  H200     1.0000 0.57000  0.84570  0.90470  Biso   1.000  H
  H201     1.0000 0.44610  0.85400  0.88280  Biso   1.000  H
  H202     1.0000 0.47530  0.88660  0.84020  Biso   1.000  H
  H203     1.0000 0.55950  0.79020  0.84720  Biso   1.000  H
  H204     1.0000 0.59000  0.82280  0.80480  Biso   1.000  H
  H205     1.0000 0.46220  0.83320  0.78540  Biso   1.000  H
  H206     1.0000 0.51540  0.77960  0.78260  Biso   1.000  H
  H207     1.0000 0.43590  0.79820  0.82640  Biso   1.000  H
  H208     1.0000 0.44170  0.79980  0.96620  Biso   1.000  H
  H209     1.0000 0.49530  0.73310  0.93110  Biso   1.000  H
  H210     1.0000 0.44450  0.69460  0.94400  Biso   1.000  H
  H211     1.0000 0.43670  0.72790  0.90010  Biso   1.000  H
  H212     1.0000 0.27800  0.74140  0.94960  Biso   1.000  H
  H213     1.0000 0.30310  0.71870  0.99530  Biso   1.000  H
  H214     1.0000 0.25190  0.77240  0.99520  Biso   1.000  H
  H215     1.0000 0.27710  0.92620  0.80740  Biso   1.000  H
  H216     1.0000 0.33960  0.92680  0.72920  Biso   1.000  H
  H217     1.0000 0.42870  0.97420  0.69780  Biso   1.000  H
  H218     1.0000 0.46350  0.01580  0.74840  Biso   1.000  H
  H219     1.0000 0.36880  0.08400  0.00960  Biso   1.000  H
  H220     1.0000 0.40850  0.11130  0.96470  Biso   1.000  H
  H221     1.0000 0.27970  0.15940  0.01580  Biso   1.000  H
  H222     1.0000 0.22910  0.12710  0.00330  Biso   1.000  H
  H223     1.0000 0.26540  0.15000  0.92420  Biso   1.000  H
  H224     1.0000 0.31940  0.18080  0.93540  Biso   1.000  H
  H225     1.0000 0.19130  0.22950  0.98410  Biso   1.000  H
  H226     1.0000 0.13960  0.20000  0.96840  Biso   1.000  H
  H227     1.0000 0.23320  0.22820  0.89140  Biso   1.000  H
  H228     1.0000 0.13260  0.24460  0.91080  Biso   1.000  H
  H229     1.0000 0.18860  0.27230  0.92510  Biso   1.000  H
  H230     1.0000 0.21230  0.06730  0.84610  Biso   1.000  H
  H231     1.0000 0.10800  0.13360  0.84280  Biso   1.000  H
  H232     1.0000 0.13160  0.06680  0.98180  Biso   1.000  H
  H233     1.0000 0.02890  0.13650  0.98050  Biso   1.000  H
  H234     1.0000 0.01530  0.20860  0.88320  Biso   1.000  H
  H235     1.0000 0.97800  0.20670  0.93850  Biso   1.000  H
  H236     1.0000 0.63060  0.78500  0.19200  Biso   1.000  H
  H237     1.0000 0.62570  0.70970  0.18430  Biso   1.000  H
  H238     1.0000 0.55120  0.69380  0.13640  Biso   1.000  H
  H239     1.0000 0.47920  0.75440  0.09780  Biso   1.000  H
  H240     1.0000 0.32630  0.99140  0.04540  Biso   1.000  H
  H241     1.0000 0.36360  0.02690  0.06430  Biso   1.000  H
  H242     1.0000 0.22100  0.99470  0.11890  Biso   1.000  H
  H243     1.0000 0.25970  0.02820  0.13940  Biso   1.000  H
  H244     1.0000 0.21600  0.08810  0.09130  Biso   1.000  H
  H245     1.0000 0.18970  0.05480  0.06300  Biso   1.000  H
  H246     1.0000 0.10870  0.08190  0.15430  Biso   1.000  H
  H247     1.0000 0.08090  0.05060  0.12380  Biso   1.000  H
  H248     1.0000 0.07280  0.11420  0.06400  Biso   1.000  H
  H249     1.0000 0.09750  0.14550  0.09550  Biso   1.000  H
  H250     1.0000 0.00820  0.13420  0.11260  Biso   1.000  H
  H251     1.0000 0.77710  0.33560  0.91560  Biso   1.000  H
  H252     1.0000 0.90080  0.27670  0.90730  Biso   1.000  H
  H253     1.0000 0.65580  0.24650  0.90470  Biso   1.000  H
  H254     1.0000 0.77150  0.18610  0.89830  Biso   1.000  H
  H255     1.0000 0.94270  0.16670  0.87410  Biso   1.000  H
  H256     1.0000 0.90880  0.16090  0.92870  Biso   1.000  H
  H257     1.0000 0.72620  0.14930  0.59770  Biso   1.000  H
  H258     1.0000 0.85930  0.15240  0.55320  Biso   1.000  H
  H259     1.0000 0.95400  0.08790  0.51350  Biso   1.000  H
  H260     1.0000 0.91290  0.02120  0.51000  Biso   1.000  H
  H261     1.0000 0.61910  0.89160  0.55860  Biso   1.000  H
  H262     1.0000 0.52370  0.92330  0.57530  Biso   1.000  H
  H263     1.0000 0.53500  0.86030  0.62490  Biso   1.000  H
  H264     1.0000 0.52530  0.90470  0.65430  Biso   1.000  H
  H265     1.0000 0.67110  0.88280  0.64600  Biso   1.000  H
  H266     1.0000 0.68450  0.84020  0.61340  Biso   1.000  H
  H267     1.0000 0.59330  0.84720  0.70980  Biso   1.000  H
  H268     1.0000 0.60520  0.80480  0.67720  Biso   1.000  H
  H269     1.0000 0.75240  0.78540  0.66680  Biso   1.000  H
  H270     1.0000 0.70200  0.78260  0.72040  Biso   1.000  H
  H271     1.0000 0.73770  0.82640  0.70180  Biso   1.000  H
  H272     1.0000 0.59210  0.96620  0.70020  Biso   1.000  H
  H273     1.0000 0.57360  0.93110  0.76690  Biso   1.000  H
  H274     1.0000 0.61150  0.94400  0.80540  Biso   1.000  H
  H275     1.0000 0.66320  0.90010  0.77210  Biso   1.000  H
  H276     1.0000 0.77240  0.94960  0.75860  Biso   1.000  H
  H277     1.0000 0.70160  0.99530  0.78130  Biso   1.000  H
  H278     1.0000 0.75290  0.99520  0.72760  Biso   1.000  H
  H279     1.0000 0.91550  0.80740  0.57380  Biso   1.000  H
  H280     1.0000 0.93120  0.72920  0.57320  Biso   1.000  H
  H281     1.0000 0.87350  0.69780  0.52580  Biso   1.000  H
  H282     1.0000 0.78810  0.74840  0.48420  Biso   1.000  H
  H283     1.0000 0.62160  0.00960  0.41600  Biso   1.000  H
  H284     1.0000 0.62680  0.96470  0.38870  Biso   1.000  H
  H285     1.0000 0.70450  0.01580  0.34060  Biso   1.000  H
  H286     1.0000 0.76760  0.00330  0.37290  Biso   1.000  H
  H287     1.0000 0.81040  0.92420  0.35000  Biso   1.000  H
  H288     1.0000 0.74520  0.93540  0.31920  Biso   1.000  H
  H289     1.0000 0.82460  0.98410  0.27050  Biso   1.000  H
  H290     1.0000 0.89200  0.96840  0.30000  Biso   1.000  H
  H291     1.0000 0.87540  0.89140  0.27180  Biso   1.000  H
  H292     1.0000 0.95660  0.91080  0.25540  Biso   1.000  H
  H293     1.0000 0.88630  0.92510  0.22770  Biso   1.000  H
  H294     1.0000 0.94160  0.84610  0.43270  Biso   1.000  H
  H295     1.0000 0.04920  0.84280  0.36640  Biso   1.000  H
  H296     1.0000 0.88660  0.98180  0.43320  Biso   1.000  H
  H297     1.0000 0.99060  0.98050  0.36350  Biso   1.000  H
  H298     1.0000 0.10150  0.88320  0.29140  Biso   1.000  H
  H299     1.0000 0.08350  0.93850  0.29330  Biso   1.000  H
  H300     1.0000 0.17740  0.19200  0.71500  Biso   1.000  H
  H301     1.0000 0.19000  0.18430  0.79030  Biso   1.000  H
  H302     1.0000 0.31240  0.13640  0.80620  Biso   1.000  H
  H303     1.0000 0.42300  0.09780  0.74560  Biso   1.000  H
  H304     1.0000 0.62830  0.04540  0.50860  Biso   1.000  H
  H305     1.0000 0.57210  0.06430  0.47310  Biso   1.000  H
  H306     1.0000 0.66010  0.11890  0.50530  Biso   1.000  H
  H307     1.0000 0.60090  0.13940  0.47180  Biso   1.000  H
  H308     1.0000 0.69270  0.09130  0.41190  Biso   1.000  H
  H309     1.0000 0.74730  0.06300  0.44520  Biso   1.000  H
  H310     1.0000 0.73700  0.15430  0.41810  Biso   1.000  H
  H311     1.0000 0.79530  0.12380  0.44940  Biso   1.000  H
  H312     1.0000 0.86320  0.06400  0.38580  Biso   1.000  H
  H313     1.0000 0.80700  0.09550  0.35450  Biso   1.000  H
  H314     1.0000 0.87920  0.11260  0.36580  Biso   1.000  H
  H315     1.0000 0.30730  0.91560  0.16440  Biso   1.000  H
  H316     1.0000 0.19190  0.90730  0.22330  Biso   1.000  H
  H317     1.0000 0.43950  0.90470  0.25350  Biso   1.000  H
  H318     1.0000 0.33020  0.89830  0.31390  Biso   1.000  H
  H319     1.0000 0.18320  0.87410  0.33330  Biso   1.000  H
  H320     1.0000 0.16250  0.92870  0.33910  Biso   1.000  H
  H321     1.0000 0.97320  0.35070  0.90230  Biso   1.000  H
  H322     1.0000 0.06490  0.34760  0.94680  Biso   1.000  H
  H323     1.0000 0.05540  0.41210  0.98650  Biso   1.000  H
  H324     1.0000 0.94410  0.47880  0.99000  Biso   1.000  H
  H325     1.0000 0.56930  0.60840  0.94140  Biso   1.000  H
  H326     1.0000 0.52230  0.57670  0.92470  Biso   1.000  H
  H327     1.0000 0.52020  0.63970  0.87510  Biso   1.000  H
  H328     1.0000 0.58430  0.59530  0.84570  Biso   1.000  H
  H329     1.0000 0.69990  0.61720  0.85400  Biso   1.000  H
  H330     1.0000 0.63810  0.65980  0.88660  Biso   1.000  H
  H331     1.0000 0.65030  0.65280  0.79020  Biso   1.000  H
  H332     1.0000 0.58720  0.69520  0.82280  Biso   1.000  H
  H333     1.0000 0.70460  0.71460  0.83320  Biso   1.000  H
  H334     1.0000 0.70500  0.71740  0.77960  Biso   1.000  H
  H335     1.0000 0.76590  0.67360  0.79820  Biso   1.000  H
  H336     1.0000 0.75850  0.53380  0.79980  Biso   1.000  H
  H337     1.0000 0.77160  0.56890  0.73310  Biso   1.000  H
  H338     1.0000 0.86090  0.55600  0.69460  Biso   1.000  H
  H339     1.0000 0.83540  0.59990  0.72790  Biso   1.000  H
  H340     1.0000 0.98060  0.55040  0.74140  Biso   1.000  H
  H341     1.0000 0.97820  0.50470  0.71870  Biso   1.000  H
  H342     1.0000 0.97570  0.50480  0.77240  Biso   1.000  H
  H343     1.0000 0.79670  0.69260  0.92620  Biso   1.000  H
  H344     1.0000 0.73360  0.77080  0.92680  Biso   1.000  H
  H345     1.0000 0.59710  0.80220  0.97420  Biso   1.000  H
  H346     1.0000 0.52070  0.75160  0.01580  Biso   1.000  H
  H347     1.0000 0.54720  0.49040  0.08400  Biso   1.000  H
  H348     1.0000 0.48020  0.53530  0.11130  Biso   1.000  H
  H349     1.0000 0.56090  0.48420  0.15940  Biso   1.000  H
  H350     1.0000 0.64380  0.49670  0.12710  Biso   1.000  H
  H351     1.0000 0.58460  0.57580  0.15000  Biso   1.000  H
  H352     1.0000 0.49980  0.56460  0.18080  Biso   1.000  H
  H353     1.0000 0.57920  0.51590  0.22950  Biso   1.000  H
  H354     1.0000 0.66040  0.53160  0.20000  Biso   1.000  H
  H355     1.0000 0.53860  0.60860  0.22820  Biso   1.000  H
  H356     1.0000 0.62280  0.58920  0.24460  Biso   1.000  H
  H357     1.0000 0.53910  0.57490  0.27230  Biso   1.000  H
  H358     1.0000 0.72040  0.65390  0.06730  Biso   1.000  H
  H359     1.0000 0.75840  0.65720  0.13360  Biso   1.000  H
  H360     1.0000 0.80160  0.51820  0.06680  Biso   1.000  H
  H361     1.0000 0.83460  0.51950  0.13650  Biso   1.000  H
  H362     1.0000 0.77610  0.61680  0.20860  Biso   1.000  H
  H363     1.0000 0.81530  0.56150  0.20670  Biso   1.000  H
  H364     1.0000 0.58440  0.30800  0.78500  Biso   1.000  H
  H365     1.0000 0.66460  0.31570  0.70970  Biso   1.000  H
  H366     1.0000 0.75500  0.36360  0.69380  Biso   1.000  H
  H367     1.0000 0.76640  0.40220  0.75440  Biso   1.000  H
  H368     1.0000 0.68230  0.45460  0.99140  Biso   1.000  H
  H369     1.0000 0.60950  0.43570  0.02690  Biso   1.000  H
  H370     1.0000 0.78430  0.38110  0.99470  Biso   1.000  H
  H371     1.0000 0.71210  0.36060  0.02820  Biso   1.000  H
  H372     1.0000 0.69590  0.40870  0.08810  Biso   1.000  H
  H373     1.0000 0.75550  0.43700  0.05480  Biso   1.000  H
  H374     1.0000 0.80940  0.34570  0.08190  Biso   1.000  H
  H375     1.0000 0.86850  0.37620  0.05060  Biso   1.000  H
  H376     1.0000 0.81300  0.43600  0.11420  Biso   1.000  H
  H377     1.0000 0.75700  0.40450  0.14550  Biso   1.000  H
  H378     1.0000 0.85760  0.38740  0.13420  Biso   1.000  H
  H379     1.0000 0.88730  0.58440  0.33560  Biso   1.000  H
  H380     1.0000 0.82250  0.59270  0.27670  Biso   1.000  H
  H381     1.0000 0.09770  0.59530  0.24650  Biso   1.000  H
  H382     1.0000 0.04240  0.60170  0.18610  Biso   1.000  H
  H383     1.0000 0.89060  0.62590  0.16670  Biso   1.000  H
  H384     1.0000 0.93030  0.57130  0.16090  Biso   1.000  H
  H385     1.0000 0.32390  0.40230  0.64930  Biso   1.000  H
  H386     1.0000 0.41250  0.44680  0.65240  Biso   1.000  H
  H387     1.0000 0.46750  0.48650  0.58790  Biso   1.000  H
  H388     1.0000 0.42290  0.49000  0.52120  Biso   1.000  H
  H389     1.0000 0.17770  0.44140  0.39160  Biso   1.000  H
  H390     1.0000 0.09900  0.42470  0.42330  Biso   1.000  H
  H391     1.0000 0.15990  0.37510  0.36030  Biso   1.000  H
  H392     1.0000 0.17960  0.34570  0.40470  Biso   1.000  H
  H393     1.0000 0.31710  0.35400  0.38280  Biso   1.000  H
  H394     1.0000 0.29790  0.38660  0.34020  Biso   1.000  H
  H395     1.0000 0.30310  0.29020  0.34720  Biso   1.000  H
  H396     1.0000 0.28240  0.32280  0.30480  Biso   1.000  H
  H397     1.0000 0.41920  0.33320  0.28540  Biso   1.000  H
  H398     1.0000 0.42240  0.27960  0.28260  Biso   1.000  H
  H399     1.0000 0.43950  0.29820  0.32640  Biso   1.000  H
  H400     1.0000 0.29230  0.29980  0.46620  Biso   1.000  H
  H401     1.0000 0.34050  0.23310  0.43110  Biso   1.000  H
  H402     1.0000 0.41690  0.19460  0.44400  Biso   1.000  H
  H403     1.0000 0.43530  0.22790  0.40010  Biso   1.000  H
  H404     1.0000 0.53100  0.24140  0.44960  Biso   1.000  H
  H405     1.0000 0.48290  0.21870  0.49530  Biso   1.000  H
  H406     1.0000 0.48050  0.27240  0.49520  Biso   1.000  H
  H407     1.0000 0.48930  0.42620  0.30740  Biso   1.000  H
  H408     1.0000 0.50440  0.42680  0.22920  Biso   1.000  H
  H409     1.0000 0.39930  0.47420  0.19780  Biso   1.000  H
  H410     1.0000 0.27230  0.51580  0.24840  Biso   1.000  H
  H411     1.0000 0.03760  0.58400  0.50960  Biso   1.000  H
  H412     1.0000 0.01550  0.61130  0.46470  Biso   1.000  H
  H413     1.0000 0.04510  0.65940  0.51580  Biso   1.000  H
  H414     1.0000 0.14050  0.62710  0.50330  Biso   1.000  H
  H415     1.0000 0.16040  0.65000  0.42420  Biso   1.000  H
  H416     1.0000 0.06440  0.68080  0.43540  Biso   1.000  H
  H417     1.0000 0.09510  0.72950  0.48410  Biso   1.000  H
  H418     1.0000 0.19200  0.70000  0.46840  Biso   1.000  H
  H419     1.0000 0.14720  0.72820  0.39140  Biso   1.000  H
  H420     1.0000 0.21200  0.74460  0.41080  Biso   1.000  H
  H421     1.0000 0.11400  0.77230  0.42510  Biso   1.000  H
  H422     1.0000 0.37430  0.56730  0.34610  Biso   1.000  H
  H423     1.0000 0.41560  0.63360  0.34280  Biso   1.000  H
  H424     1.0000 0.31980  0.56680  0.48180  Biso   1.000  H
  H425     1.0000 0.35410  0.63650  0.48050  Biso   1.000  H
  H426     1.0000 0.39290  0.70860  0.38320  Biso   1.000  H
  H427     1.0000 0.37680  0.70670  0.43850  Biso   1.000  H
  H428     1.0000 0.89240  0.28500  0.69200  Biso   1.000  H
  H429     1.0000 0.98030  0.20970  0.68430  Biso   1.000  H
  H430     1.0000 0.11860  0.19380  0.63640  Biso   1.000  H
  H431     1.0000 0.16860  0.25440  0.59780  Biso   1.000  H
  H432     1.0000 0.13690  0.49140  0.54540  Biso   1.000  H
  H433     1.0000 0.04520  0.52690  0.56430  Biso   1.000  H
  H434     1.0000 0.16540  0.49470  0.61890  Biso   1.000  H
  H435     1.0000 0.07270  0.52820  0.63940  Biso   1.000  H
  H436     1.0000 0.10460  0.58810  0.59130  Biso   1.000  H
  H437     1.0000 0.19250  0.55480  0.56300  Biso   1.000  H
  H438     1.0000 0.15510  0.58190  0.65430  Biso   1.000  H
  H439     1.0000 0.24470  0.55060  0.62380  Biso   1.000  H
  H440     1.0000 0.24900  0.61420  0.56400  Biso   1.000  H
  H441     1.0000 0.16150  0.64550  0.59550  Biso   1.000  H
  H442     1.0000 0.24500  0.63420  0.61260  Biso   1.000  H
  H443     1.0000 0.47170  0.83560  0.41560  Biso   1.000  H
  H444     1.0000 0.41520  0.77670  0.40730  Biso   1.000  H
  H445     1.0000 0.69300  0.74650  0.40470  Biso   1.000  H
  H446     1.0000 0.64410  0.68610  0.39830  Biso   1.000  H
  H447     1.0000 0.51650  0.66670  0.37410  Biso   1.000  H
  H448     1.0000 0.50160  0.66090  0.42870  Biso   1.000  H
  H449     1.0000 0.87550  0.09770  0.85070  Biso   1.000  H
  H450     1.0000 0.01170  0.05320  0.84760  Biso   1.000  H
  H451     1.0000 0.04190  0.01350  0.91210  Biso   1.000  H
  H452     1.0000 0.93410  0.01000  0.97880  Biso   1.000  H
  H453     1.0000 0.51070  0.05860  0.10840  Biso   1.000  H
  H454     1.0000 0.44700  0.07530  0.07670  Biso   1.000  H
  H455     1.0000 0.39530  0.12490  0.13970  Biso   1.000  H
  H456     1.0000 0.43000  0.15430  0.09530  Biso   1.000  H
  H457     1.0000 0.55390  0.14600  0.11720  Biso   1.000  H
  H458     1.0000 0.52470  0.11340  0.15980  Biso   1.000  H
  H459     1.0000 0.44050  0.20980  0.15280  Biso   1.000  H
  H460     1.0000 0.41000  0.17720  0.19520  Biso   1.000  H
  H461     1.0000 0.53780  0.16680  0.21460  Biso   1.000  H
  H462     1.0000 0.48460  0.22040  0.21740  Biso   1.000  H
  H463     1.0000 0.56410  0.20180  0.17360  Biso   1.000  H
  H464     1.0000 0.55830  0.20020  0.03380  Biso   1.000  H
  H465     1.0000 0.50470  0.26690  0.06890  Biso   1.000  H
  H466     1.0000 0.55550  0.30540  0.05600  Biso   1.000  H
  H467     1.0000 0.56330  0.27210  0.09990  Biso   1.000  H
  H468     1.0000 0.72200  0.25860  0.05040  Biso   1.000  H
  H469     1.0000 0.69690  0.28130  0.00470  Biso   1.000  H
  H470     1.0000 0.74810  0.22760  0.00480  Biso   1.000  H
  H471     1.0000 0.72290  0.07380  0.19260  Biso   1.000  H
  H472     1.0000 0.66040  0.07320  0.27080  Biso   1.000  H
  H473     1.0000 0.57130  0.02580  0.30220  Biso   1.000  H
  H474     1.0000 0.53650  0.98420  0.25160  Biso   1.000  H
  H475     1.0000 0.63120  0.91600  0.99040  Biso   1.000  H
  H476     1.0000 0.59150  0.88870  0.03530  Biso   1.000  H
  H477     1.0000 0.72030  0.84060  0.98420  Biso   1.000  H
  H478     1.0000 0.77090  0.87290  0.99670  Biso   1.000  H
  H479     1.0000 0.73460  0.85000  0.07580  Biso   1.000  H
  H480     1.0000 0.68060  0.81920  0.06460  Biso   1.000  H
  H481     1.0000 0.80870  0.77050  0.01590  Biso   1.000  H
  H482     1.0000 0.86040  0.80000  0.03160  Biso   1.000  H
  H483     1.0000 0.76680  0.77180  0.10860  Biso   1.000  H
  H484     1.0000 0.86740  0.75540  0.08920  Biso   1.000  H
  H485     1.0000 0.81140  0.72770  0.07490  Biso   1.000  H
  H486     1.0000 0.78770  0.93270  0.15390  Biso   1.000  H
  H487     1.0000 0.89200  0.86640  0.15720  Biso   1.000  H
  H488     1.0000 0.86840  0.93320  0.01820  Biso   1.000  H
  H489     1.0000 0.97110  0.86350  0.01950  Biso   1.000  H
  H490     1.0000 0.98470  0.79140  0.11680  Biso   1.000  H
  H491     1.0000 0.02200  0.79330  0.06150  Biso   1.000  H
  H492     1.0000 0.36940  0.21500  0.80800  Biso   1.000  H
  H493     1.0000 0.37430  0.29030  0.81570  Biso   1.000  H
  H494     1.0000 0.44880  0.30620  0.86360  Biso   1.000  H
  H495     1.0000 0.52080  0.24560  0.90220  Biso   1.000  H
  H496     1.0000 0.67370  0.00860  0.95460  Biso   1.000  H
  H497     1.0000 0.63640  0.97310  0.93570  Biso   1.000  H
  H498     1.0000 0.77900  0.00530  0.88110  Biso   1.000  H
  H499     1.0000 0.74030  0.97180  0.86060  Biso   1.000  H
  H500     1.0000 0.78400  0.91190  0.90870  Biso   1.000  H
  H501     1.0000 0.81030  0.94520  0.93700  Biso   1.000  H
  H502     1.0000 0.89130  0.91810  0.84570  Biso   1.000  H
  H503     1.0000 0.91910  0.94940  0.87620  Biso   1.000  H
  H504     1.0000 0.92720  0.88580  0.93600  Biso   1.000  H
  H505     1.0000 0.90250  0.85450  0.90450  Biso   1.000  H
  H506     1.0000 0.99180  0.86580  0.88740  Biso   1.000  H
  H507     1.0000 0.22290  0.66440  0.08440  Biso   1.000  H
  H508     1.0000 0.09920  0.72330  0.09270  Biso   1.000  H
  H509     1.0000 0.34420  0.75350  0.09530  Biso   1.000  H
  H510     1.0000 0.22850  0.81390  0.10170  Biso   1.000  H
  H511     1.0000 0.05730  0.83330  0.12590  Biso   1.000  H
  H512     1.0000 0.09120  0.83910  0.07130  Biso   1.000  H
  C1       1.0000 0.26070  0.91816  0.41804  Biso   1.000  C
  C2       1.0000 0.23593  0.87726  0.41948  Biso   1.000  C
  C3       1.0000 0.15680  0.87550  0.44570  Biso   1.000  C
  C4       1.0000 0.10160  0.91320  0.47020  Biso   1.000  C
  C5       1.0000 0.12535  0.95320  0.47150  Biso   1.000  C
  C6       1.0000 0.20569  0.95622  0.44560  Biso   1.000  C
  C7       1.0000 0.22736  0.99857  0.45111  Biso   1.000  C
  C8       1.0000 0.39176  0.04779  0.41069  Biso   1.000  C
  C9       1.0000 0.42265  0.08813  0.41597  Biso   1.000  C
  C10      1.0000 0.43674  0.11628  0.37164  Biso   1.000  C
  C11      1.0000 0.35510  0.14073  0.35967  Biso   1.000  C
  C12      1.0000 0.36790  0.17190  0.31730  Biso   1.000  C
  C13      1.0000 0.28700  0.19650  0.30610  Biso   1.000  C
  C14      1.0000 0.36350  0.02321  0.29559  Biso   1.000  C
  C15      1.0000 0.37450  0.06830  0.22610  Biso   1.000  C
  C16      1.0000 0.27190  0.02360  0.24700  Biso   1.000  C
  C17      1.0000 0.16004  0.17318  0.47014  Biso   1.000  C
  C18      1.0000 0.11110  0.20434  0.44446  Biso   1.000  C
  C19      1.0000 0.10077  0.25081  0.44525  Biso   1.000  C
  C20      1.0000 0.13596  0.26951  0.47257  Biso   1.000  C
  C21      1.0000 0.18570  0.23931  0.49769  Biso   1.000  C
  C22      1.0000 0.19787  0.19164  0.49702  Biso   1.000  C
  C23      1.0000 0.25050  0.16284  0.52616  Biso   1.000  C
  C24      1.0000 0.30372  0.05078  0.56358  Biso   1.000  C
  C25      1.0000 0.33988  0.01974  0.59910  Biso   1.000  C
  C26      1.0000 0.26980  0.00873  0.63967  Biso   1.000  C
  C27      1.0000 0.21680  0.05178  0.66962  Biso   1.000  C
  C28      1.0000 0.14900  0.04170  0.71130  Biso   1.000  C
  C29      1.0000 0.10400  0.08190  0.74150  Biso   1.000  C
  C30      1.0000 0.04848  0.12575  0.58109  Biso   1.000  C
  C31      1.0000 0.98512  0.12778  0.62118  Biso   1.000  C
  C32      1.0000 0.08091  0.04734  0.58104  Biso   1.000  C
  C33      1.0000 0.01830  0.04790  0.62270  Biso   1.000  C
  C34      1.0000 0.96990  0.08930  0.64370  Biso   1.000  C
  C35      1.0000 0.90140  0.09080  0.68940  Biso   1.000  C
  C36      1.0000 0.70619  0.85008  0.31674  Biso   1.000  C
  C37      1.0000 0.77180  0.82724  0.27936  Biso   1.000  C
  C38      1.0000 0.76471  0.83194  0.23424  Biso   1.000  C
  C39      1.0000 0.69217  0.86010  0.22476  Biso   1.000  C
  C40      1.0000 0.62678  0.88282  0.26082  Biso   1.000  C
  C41      1.0000 0.63135  0.87828  0.30702  Biso   1.000  C
  C42      1.0000 0.55677  0.90398  0.34368  Biso   1.000  C
  C43      1.0000 0.48532  0.90791  0.46145  Biso   1.000  C
  C44      1.0000 0.40957  0.92655  0.50151  Biso   1.000  C
  C45      1.0000 0.36010  0.88910  0.51990  Biso   1.000  C
  C46      1.0000 0.28580  0.90560  0.56160  Biso   1.000  C
  C47      1.0000 0.23250  0.87770  0.57490  Biso   1.000  C
  C48      1.0000 0.16380  0.90400  0.62200  Biso   1.000  C
  C49      1.0000 0.68860  0.08830  0.80450  Biso   1.000  C
  C50      1.0000 0.75780  0.09210  0.76990  Biso   1.000  C
  C51      1.0000 0.61211  0.09441  0.75277  Biso   1.000  C
  C52      1.0000 0.67643  0.09768  0.71666  Biso   1.000  C
  C53      1.0000 0.75230  0.09520  0.72400  Biso   1.000  C
  C54      1.0000 0.83070  0.09590  0.68290  Biso   1.000  C
  C55      1.0000 0.09690  0.58184  0.08196  Biso   1.000  C
  C56      1.0000 0.03267  0.62274  0.08052  Biso   1.000  C
  C57      1.0000 0.97800  0.62450  0.05430  Biso   1.000  C
  C58      1.0000 0.98500  0.58680  0.02980  Biso   1.000  C
  C59      1.0000 0.05005  0.54680  0.02850  Biso   1.000  C
  C60      1.0000 0.10751  0.54378  0.05440  Biso   1.000  C
  C61      1.0000 0.17704  0.50143  0.04889  Biso   1.000  C
  C62      1.0000 0.35024  0.45221  0.08931  Biso   1.000  C
  C63      1.0000 0.42675  0.41187  0.08403  Biso   1.000  C
  C64      1.0000 0.42466  0.38372  0.12836  Biso   1.000  C
  C65      1.0000 0.35550  0.35927  0.14033  Biso   1.000  C
  C66      1.0000 0.35710  0.32810  0.18270  Biso   1.000  C
  C67      1.0000 0.28960  0.30350  0.19390  Biso   1.000  C
  C68      1.0000 0.18230  0.47679  0.20441  Biso   1.000  C
  C69      1.0000 0.16890  0.43170  0.27390  Biso   1.000  C
  C70      1.0000 0.04250  0.47640  0.25300  Biso   1.000  C
  C71      1.0000 0.30336  0.32682  0.02986  Biso   1.000  C
  C72      1.0000 0.25990  0.29566  0.05554  Biso   1.000  C
  C73      1.0000 0.29683  0.24919  0.05475  Biso   1.000  C
  C74      1.0000 0.37804  0.23049  0.02743  Biso   1.000  C
  C75      1.0000 0.42270  0.26069  0.00231  Biso   1.000  C
  C76      1.0000 0.38653  0.30836  0.00298  Biso   1.000  C
  C77      1.0000 0.43950  0.33716  0.97384  Biso   1.000  C
  C78      1.0000 0.41808  0.44922  0.93642  Biso   1.000  C
  C79      1.0000 0.45872  0.48026  0.90090  Biso   1.000  C
  C80      1.0000 0.41820  0.49127  0.86033  Biso   1.000  C
  C81      1.0000 0.43820  0.44822  0.83038  Biso   1.000  C
  C82      1.0000 0.40200  0.45830  0.78870  Biso   1.000  C
  C83      1.0000 0.42740  0.41810  0.75850  Biso   1.000  C
  C84      1.0000 0.25532  0.37425  0.91891  Biso   1.000  C
  C85      1.0000 0.23408  0.37222  0.87882  Biso   1.000  C
  C86      1.0000 0.20929  0.45266  0.91896  Biso   1.000  C
  C87      1.0000 0.18890  0.45210  0.87730  Biso   1.000  C
  C88      1.0000 0.20290  0.41070  0.85630  Biso   1.000  C
  C89      1.0000 0.18160  0.40920  0.81060  Biso   1.000  C
  C90      1.0000 0.37301  0.64992  0.18326  Biso   1.000  C
  C91      1.0000 0.37840  0.67276  0.22064  Biso   1.000  C
  C92      1.0000 0.33089  0.66806  0.26576  Biso   1.000  C
  C93      1.0000 0.27703  0.63990  0.27524  Biso   1.000  C
  C94      1.0000 0.27042  0.61718  0.23918  Biso   1.000  C
  C95      1.0000 0.31665  0.62172  0.19298  Biso   1.000  C
  C96      1.0000 0.30443  0.59602  0.15632  Biso   1.000  C
  C97      1.0000 0.35468  0.59209  0.03855  Biso   1.000  C
  C98      1.0000 0.33763  0.57345  0.99849  Biso   1.000  C
  C99      1.0000 0.26910  0.61090  0.98010  Biso   1.000  C
  C100     1.0000 0.25300  0.59440  0.93840  Biso   1.000  C
  C101     1.0000 0.18510  0.62230  0.92510  Biso   1.000  C
  C102     1.0000 0.18980  0.59600  0.87800  Biso   1.000  C
  C103     1.0000 0.08140  0.41170  0.69550  Biso   1.000  C
  C104     1.0000 0.11980  0.40790  0.73010  Biso   1.000  C
  C105     1.0000 0.95929  0.40559  0.74723  Biso   1.000  C
  C106     1.0000 0.99077  0.40232  0.78334  Biso   1.000  C
  C107     1.0000 0.07150  0.40480  0.77600  Biso   1.000  C
  C108     1.0000 0.10950  0.40410  0.81710  Biso   1.000  C
  C109     1.0000 0.67874  0.58196  0.41816  Biso   1.000  C
  C110     1.0000 0.65541  0.58052  0.37726  Biso   1.000  C
  C111     1.0000 0.60250  0.55430  0.37550  Biso   1.000  C
  C112     1.0000 0.57180  0.52980  0.41320  Biso   1.000  C
  C113     1.0000 0.59685  0.52850  0.45320  Biso   1.000  C
  C114     1.0000 0.65129  0.55440  0.45622  Biso   1.000  C
  C115     1.0000 0.67847  0.54889  0.49857  Biso   1.000  C
  C116     1.0000 0.80245  0.58931  0.54779  Biso   1.000  C
  C117     1.0000 0.83862  0.58403  0.58813  Biso   1.000  C
  C118     1.0000 0.80838  0.62836  0.61628  Biso   1.000  C
  C119     1.0000 0.71477  0.64033  0.64073  Biso   1.000  C
  C120     1.0000 0.68520  0.68270  0.67190  Biso   1.000  C
  C121     1.0000 0.59310  0.69390  0.69650  Biso   1.000  C
  C122     1.0000 0.65909  0.70441  0.52321  Biso   1.000  C
  C123     1.0000 0.60060  0.77390  0.56830  Biso   1.000  C
  C124     1.0000 0.51890  0.75300  0.52360  Biso   1.000  C
  C125     1.0000 0.63018  0.52986  0.67318  Biso   1.000  C
  C126     1.0000 0.55556  0.55554  0.70434  Biso   1.000  C
  C127     1.0000 0.54602  0.55475  0.75081  Biso   1.000  C
  C128     1.0000 0.60853  0.52743  0.76951  Biso   1.000  C
  C129     1.0000 0.68339  0.50231  0.73931  Biso   1.000  C
  C130     1.0000 0.69489  0.50298  0.69164  Biso   1.000  C
  C131     1.0000 0.77666  0.47384  0.66284  Biso   1.000  C
  C132     1.0000 0.86730  0.43642  0.55078  Biso   1.000  C
  C133     1.0000 0.93898  0.40090  0.51974  Biso   1.000  C
  C134     1.0000 0.90947  0.36033  0.50873  Biso   1.000  C
  C135     1.0000 0.88642  0.33038  0.55178  Biso   1.000  C
  C136     1.0000 0.86030  0.28870  0.54170  Biso   1.000  C
  C137     1.0000 0.84550  0.25850  0.58190  Biso   1.000  C
  C138     1.0000 0.62957  0.41891  0.62575  Biso   1.000  C
  C139     1.0000 0.60630  0.37882  0.62778  Biso   1.000  C
  C140     1.0000 0.66195  0.41896  0.54734  Biso   1.000  C
  C141     1.0000 0.64100  0.37730  0.54790  Biso   1.000  C
  C142     1.0000 0.61360  0.35630  0.58930  Biso   1.000  C
  C143     1.0000 0.59080  0.31060  0.59080  Biso   1.000  C
  C144     1.0000 0.02293  0.68326  0.35008  Biso   1.000  C
  C145     1.0000 0.05116  0.72064  0.32724  Biso   1.000  C
  C146     1.0000 0.99895  0.76576  0.33194  Biso   1.000  C
  C147     1.0000 0.91693  0.77524  0.36010  Biso   1.000  C
  C148     1.0000 0.88760  0.73918  0.38282  Biso   1.000  C
  C149     1.0000 0.93837  0.69298  0.37828  Biso   1.000  C
  C150     1.0000 0.90045  0.65632  0.40398  Biso   1.000  C
  C151     1.0000 0.94677  0.53855  0.40791  Biso   1.000  C
  C152     1.0000 0.91108  0.49849  0.42655  Biso   1.000  C
  C153     1.0000 0.88000  0.48010  0.38910  Biso   1.000  C
  C154     1.0000 0.84740  0.43840  0.40560  Biso   1.000  C
  C155     1.0000 0.80740  0.42510  0.37770  Biso   1.000  C
  C156     1.0000 0.78580  0.37800  0.40400  Biso   1.000  C
  C157     1.0000 0.49310  0.19550  0.58830  Biso   1.000  C
  C158     1.0000 0.52770  0.23010  0.59210  Biso   1.000  C
  C159     1.0000 0.36488  0.24723  0.59441  Biso   1.000  C
  C160     1.0000 0.39309  0.28334  0.59768  Biso   1.000  C
  C161     1.0000 0.47630  0.27600  0.59520  Biso   1.000  C
  C162     1.0000 0.51360  0.31710  0.59590  Biso   1.000  C
  C163     1.0000 0.17886  0.91804  0.08184  Biso   1.000  C
  C164     1.0000 0.11319  0.91948  0.12274  Biso   1.000  C
  C165     1.0000 0.03230  0.94570  0.12450  Biso   1.000  C
  C166     1.0000 0.01480  0.97020  0.08680  Biso   1.000  C
  C167     1.0000 0.07855  0.97150  0.04680  Biso   1.000  C
  C168     1.0000 0.16191  0.94560  0.04378  Biso   1.000  C
  C169     1.0000 0.22593  0.95111  0.00143  Biso   1.000  C
  C170     1.0000 0.43955  0.91069  0.95221  Biso   1.000  C
  C171     1.0000 0.51078  0.91597  0.91187  Biso   1.000  C
  C172     1.0000 0.55302  0.87164  0.88372  Biso   1.000  C
  C173     1.0000 0.49583  0.85967  0.85927  Biso   1.000  C
  C174     1.0000 0.53980  0.81730  0.82810  Biso   1.000  C
  C175     1.0000 0.48350  0.80610  0.80350  Biso   1.000  C
  C176     1.0000 0.38671  0.79559  0.97679  Biso   1.000  C
  C177     1.0000 0.44280  0.72610  0.93170  Biso   1.000  C
  C178     1.0000 0.29550  0.74700  0.97640  Biso   1.000  C
  C179     1.0000 0.33322  0.97014  0.82682  Biso   1.000  C
  C180     1.0000 0.31544  0.94446  0.79566  Biso   1.000  C
  C181     1.0000 0.35158  0.94525  0.74919  Biso   1.000  C
  C182     1.0000 0.40547  0.97257  0.73049  Biso   1.000  C
  C183     1.0000 0.42501  0.99769  0.76069  Biso   1.000  C
  C184     1.0000 0.38951  0.99702  0.80836  Biso   1.000  C
  C185     1.0000 0.41334  0.02616  0.83716  Biso   1.000  C
  C186     1.0000 0.35450  0.06358  0.94922  Biso   1.000  C
  C187     1.0000 0.35962  0.09910  0.98026  Biso   1.000  C
  C188     1.0000 0.27853  0.13967  0.99127  Biso   1.000  C
  C189     1.0000 0.26858  0.16962  0.94822  Biso   1.000  C
  C190     1.0000 0.19070  0.21130  0.95830  Biso   1.000  C
  C191     1.0000 0.18590  0.24150  0.91810  Biso   1.000  C
  C192     1.0000 0.17423  0.08109  0.87425  Biso   1.000  C
  C193     1.0000 0.11290  0.12118  0.87222  Biso   1.000  C
  C194     1.0000 0.12825  0.08104  0.95266  Biso   1.000  C
  C195     1.0000 0.06620  0.12270  0.95210  Biso   1.000  C
  C196     1.0000 0.05920  0.14370  0.91070  Biso   1.000  C
  C197     1.0000 0.99220  0.18940  0.90920  Biso   1.000  C
  C198     1.0000 0.55627  0.81674  0.14992  Biso   1.000  C
  C199     1.0000 0.59904  0.77936  0.17276  Biso   1.000  C
  C200     1.0000 0.59665  0.73424  0.16806  Biso   1.000  C
  C201     1.0000 0.55227  0.72476  0.13990  Biso   1.000  C
  C202     1.0000 0.50960  0.76082  0.11718  Biso   1.000  C
  C203     1.0000 0.50963  0.80702  0.12172  Biso   1.000  C
  C204     1.0000 0.46075  0.84368  0.09602  Biso   1.000  C
  C205     1.0000 0.39323  0.96145  0.09209  Biso   1.000  C
  C206     1.0000 0.33612  0.00151  0.07345  Biso   1.000  C
  C207     1.0000 0.24920  0.01990  0.11090  Biso   1.000  C
  C208     1.0000 0.19140  0.06160  0.09440  Biso   1.000  C
  C209     1.0000 0.11020  0.07490  0.12230  Biso   1.000  C
  C210     1.0000 0.06780  0.12200  0.09600  Biso   1.000  C
  C211     1.0000 0.77690  0.30450  0.91170  Biso   1.000  C
  C212     1.0000 0.84990  0.26990  0.90790  Biso   1.000  C
  C213     1.0000 0.70652  0.25277  0.90559  Biso   1.000  C
  C214     1.0000 0.77411  0.21666  0.90232  Biso   1.000  C
  C215     1.0000 0.84750  0.22400  0.90480  Biso   1.000  C
  C216     1.0000 0.92660  0.18290  0.90410  Biso   1.000  C
  C217     1.0000 0.73930  0.08184  0.58196  Biso   1.000  C
  C218     1.0000 0.76407  0.12274  0.58052  Biso   1.000  C
  C219     1.0000 0.84320  0.12450  0.55430  Biso   1.000  C
  C220     1.0000 0.89840  0.08680  0.52980  Biso   1.000  C
  C221     1.0000 0.87465  0.04680  0.52850  Biso   1.000  C
  C222     1.0000 0.79431  0.04378  0.55440  Biso   1.000  C
  C223     1.0000 0.77264  0.00143  0.54889  Biso   1.000  C
  C224     1.0000 0.60824  0.95221  0.58931  Biso   1.000  C
  C225     1.0000 0.57735  0.91187  0.58403  Biso   1.000  C
  C226     1.0000 0.56326  0.88372  0.62836  Biso   1.000  C
  C227     1.0000 0.64490  0.85927  0.64033  Biso   1.000  C
  C228     1.0000 0.63210  0.82810  0.68270  Biso   1.000  C
  C229     1.0000 0.71300  0.80350  0.69390  Biso   1.000  C
  C230     1.0000 0.63650  0.97679  0.70441  Biso   1.000  C
  C231     1.0000 0.62550  0.93170  0.77390  Biso   1.000  C
  C232     1.0000 0.72810  0.97640  0.75300  Biso   1.000  C
  C233     1.0000 0.83996  0.82682  0.52986  Biso   1.000  C
  C234     1.0000 0.88890  0.79566  0.55554  Biso   1.000  C
  C235     1.0000 0.89923  0.74919  0.55475  Biso   1.000  C
  C236     1.0000 0.86404  0.73049  0.52743  Biso   1.000  C
  C237     1.0000 0.81430  0.76069  0.50231  Biso   1.000  C
  C238     1.0000 0.80213  0.80836  0.50298  Biso   1.000  C
  C239     1.0000 0.74950  0.83716  0.47384  Biso   1.000  C
  C240     1.0000 0.69628  0.94922  0.43642  Biso   1.000  C
  C241     1.0000 0.66012  0.98026  0.40090  Biso   1.000  C
  C242     1.0000 0.73020  0.99127  0.36033  Biso   1.000  C
  C243     1.0000 0.78320  0.94822  0.33038  Biso   1.000  C
  C244     1.0000 0.85100  0.95830  0.28870  Biso   1.000  C
  C245     1.0000 0.89600  0.91810  0.25850  Biso   1.000  C
  C246     1.0000 0.95152  0.87425  0.41891  Biso   1.000  C
  C247     1.0000 0.01488  0.87222  0.37882  Biso   1.000  C
  C248     1.0000 0.91909  0.95266  0.41896  Biso   1.000  C
  C249     1.0000 0.98170  0.95210  0.37730  Biso   1.000  C
  C250     1.0000 0.03010  0.91070  0.35630  Biso   1.000  C
  C251     1.0000 0.09860  0.90920  0.31060  Biso   1.000  C
  C252     1.0000 0.29381  0.14992  0.68326  Biso   1.000  C
  C253     1.0000 0.22820  0.17276  0.72064  Biso   1.000  C
  C254     1.0000 0.23529  0.16806  0.76576  Biso   1.000  C
  C255     1.0000 0.30783  0.13990  0.77524  Biso   1.000  C
  C256     1.0000 0.37322  0.11718  0.73918  Biso   1.000  C
  C257     1.0000 0.36865  0.12172  0.69298  Biso   1.000  C
  C258     1.0000 0.44323  0.09602  0.65632  Biso   1.000  C
  C259     1.0000 0.51468  0.09209  0.53855  Biso   1.000  C
  C260     1.0000 0.59043  0.07345  0.49849  Biso   1.000  C
  C261     1.0000 0.63990  0.11090  0.48010  Biso   1.000  C
  C262     1.0000 0.71420  0.09440  0.43840  Biso   1.000  C
  C263     1.0000 0.76750  0.12230  0.42510  Biso   1.000  C
  C264     1.0000 0.83620  0.09600  0.37800  Biso   1.000  C
  C265     1.0000 0.31140  0.91170  0.19550  Biso   1.000  C
  C266     1.0000 0.24220  0.90790  0.23010  Biso   1.000  C
  C267     1.0000 0.38789  0.90559  0.24723  Biso   1.000  C
  C268     1.0000 0.32357  0.90232  0.28334  Biso   1.000  C
  C269     1.0000 0.24770  0.90480  0.27600  Biso   1.000  C
  C270     1.0000 0.16930  0.90410  0.31710  Biso   1.000  C
  C271     1.0000 0.90310  0.41816  0.91804  Biso   1.000  C
  C272     1.0000 0.96733  0.37726  0.91948  Biso   1.000  C
  C273     1.0000 0.02200  0.37550  0.94570  Biso   1.000  C
  C274     1.0000 0.01500  0.41320  0.97020  Biso   1.000  C
  C275     1.0000 0.94995  0.45320  0.97150  Biso   1.000  C
  C276     1.0000 0.89249  0.45622  0.94560  Biso   1.000  C
  C277     1.0000 0.82296  0.49857  0.95111  Biso   1.000  C
  C278     1.0000 0.64976  0.54779  0.91069  Biso   1.000  C
  C279     1.0000 0.57325  0.58813  0.91597  Biso   1.000  C
  C280     1.0000 0.57534  0.61628  0.87164  Biso   1.000  C
  C281     1.0000 0.64450  0.64073  0.85967  Biso   1.000  C
  C282     1.0000 0.64290  0.67190  0.81730  Biso   1.000  C
  C283     1.0000 0.71040  0.69650  0.80610  Biso   1.000  C
  C284     1.0000 0.81770  0.52321  0.79559  Biso   1.000  C
  C285     1.0000 0.83110  0.56830  0.72610  Biso   1.000  C
  C286     1.0000 0.95750  0.52360  0.74700  Biso   1.000  C
  C287     1.0000 0.69664  0.67318  0.97014  Biso   1.000  C
  C288     1.0000 0.74010  0.70434  0.94446  Biso   1.000  C
  C289     1.0000 0.70317  0.75081  0.94525  Biso   1.000  C
  C290     1.0000 0.62196  0.76951  0.97257  Biso   1.000  C
  C291     1.0000 0.57730  0.73931  0.99769  Biso   1.000  C
  C292     1.0000 0.61347  0.69164  0.99702  Biso   1.000  C
  C293     1.0000 0.56050  0.66284  0.02616  Biso   1.000  C
  C294     1.0000 0.58192  0.55078  0.06358  Biso   1.000  C
  C295     1.0000 0.54128  0.51974  0.09910  Biso   1.000  C
  C296     1.0000 0.58180  0.50873  0.13967  Biso   1.000  C
  C297     1.0000 0.56180  0.55178  0.16962  Biso   1.000  C
  C298     1.0000 0.59800  0.54170  0.21130  Biso   1.000  C
  C299     1.0000 0.57260  0.58190  0.24150  Biso   1.000  C
  C300     1.0000 0.74468  0.62575  0.08109  Biso   1.000  C
  C301     1.0000 0.76592  0.62778  0.12118  Biso   1.000  C
  C302     1.0000 0.79071  0.54734  0.08104  Biso   1.000  C
  C303     1.0000 0.81110  0.54790  0.12270  Biso   1.000  C
  C304     1.0000 0.79710  0.58930  0.14370  Biso   1.000  C
  C305     1.0000 0.81840  0.59080  0.18940  Biso   1.000  C
  C306     1.0000 0.62699  0.35008  0.81674  Biso   1.000  C
  C307     1.0000 0.62160  0.32724  0.77936  Biso   1.000  C
  C308     1.0000 0.66911  0.33194  0.73424  Biso   1.000  C
  C309     1.0000 0.72297  0.36010  0.72476  Biso   1.000  C
  C310     1.0000 0.72958  0.38282  0.76082  Biso   1.000  C
  C311     1.0000 0.68335  0.37828  0.80702  Biso   1.000  C
  C312     1.0000 0.69557  0.40398  0.84368  Biso   1.000  C
  C313     1.0000 0.64532  0.40791  0.96145  Biso   1.000  C
  C314     1.0000 0.66237  0.42655  0.00151  Biso   1.000  C
  C315     1.0000 0.73090  0.38910  0.01990  Biso   1.000  C
  C316     1.0000 0.74700  0.40560  0.06160  Biso   1.000  C
  C317     1.0000 0.81490  0.37770  0.07490  Biso   1.000  C
  C318     1.0000 0.81020  0.40400  0.12200  Biso   1.000  C
  C319     1.0000 0.91860  0.58830  0.30450  Biso   1.000  C
  C320     1.0000 0.88020  0.59210  0.26990  Biso   1.000  C
  C321     1.0000 0.04071  0.59441  0.25277  Biso   1.000  C
  C322     1.0000 0.00923  0.59768  0.21666  Biso   1.000  C
  C323     1.0000 0.92850  0.59520  0.22400  Biso   1.000  C
  C324     1.0000 0.89050  0.59590  0.18290  Biso   1.000  C
  C325     1.0000 0.32126  0.41804  0.58184  Biso   1.000  C
  C326     1.0000 0.34459  0.41948  0.62274  Biso   1.000  C
  C327     1.0000 0.39750  0.44570  0.62450  Biso   1.000  C
  C328     1.0000 0.42820  0.47020  0.58680  Biso   1.000  C
  C329     1.0000 0.40315  0.47150  0.54680  Biso   1.000  C
  C330     1.0000 0.34871  0.44560  0.54378  Biso   1.000  C
  C331     1.0000 0.32153  0.45111  0.50143  Biso   1.000  C
  C332     1.0000 0.19755  0.41069  0.45221  Biso   1.000  C
  C333     1.0000 0.16138  0.41597  0.41187  Biso   1.000  C
  C334     1.0000 0.19162  0.37164  0.38372  Biso   1.000  C
  C335     1.0000 0.28523  0.35967  0.35927  Biso   1.000  C
  C336     1.0000 0.31480  0.31730  0.32810  Biso   1.000  C
  C337     1.0000 0.40690  0.30610  0.30350  Biso   1.000  C
  C338     1.0000 0.34091  0.29559  0.47679  Biso   1.000  C
  C339     1.0000 0.39940  0.22610  0.43170  Biso   1.000  C
  C340     1.0000 0.48110  0.24700  0.47640  Biso   1.000  C
  C341     1.0000 0.36982  0.47014  0.32682  Biso   1.000  C
  C342     1.0000 0.44444  0.44446  0.29566  Biso   1.000  C
  C343     1.0000 0.45398  0.44525  0.24919  Biso   1.000  C
  C344     1.0000 0.39147  0.47257  0.23049  Biso   1.000  C
  C345     1.0000 0.31661  0.49769  0.26069  Biso   1.000  C
  C346     1.0000 0.30511  0.49702  0.30836  Biso   1.000  C
  C347     1.0000 0.22334  0.52616  0.33716  Biso   1.000  C
  C348     1.0000 0.13270  0.56358  0.44922  Biso   1.000  C
  C349     1.0000 0.06102  0.59910  0.48026  Biso   1.000  C
  C350     1.0000 0.09053  0.63967  0.49127  Biso   1.000  C
  C351     1.0000 0.11358  0.66962  0.44822  Biso   1.000  C
  C352     1.0000 0.13970  0.71130  0.45830  Biso   1.000  C
  C353     1.0000 0.15450  0.74150  0.41810  Biso   1.000  C
  C354     1.0000 0.37043  0.58109  0.37425  Biso   1.000  C
  C355     1.0000 0.39370  0.62118  0.37222  Biso   1.000  C
  C356     1.0000 0.33805  0.58104  0.45266  Biso   1.000  C
  C357     1.0000 0.35900  0.62270  0.45210  Biso   1.000  C
  C358     1.0000 0.38640  0.64370  0.41070  Biso   1.000  C
  C359     1.0000 0.40920  0.68940  0.40920  Biso   1.000  C
  C360     1.0000 0.97707  0.31674  0.64992  Biso   1.000  C
  C361     1.0000 0.94884  0.27936  0.67276  Biso   1.000  C
  C362     1.0000 0.00105  0.23424  0.66806  Biso   1.000  C
  C363     1.0000 0.08307  0.22476  0.63990  Biso   1.000  C
  C364     1.0000 0.11240  0.26082  0.61718  Biso   1.000  C
  C365     1.0000 0.06163  0.30702  0.62172  Biso   1.000  C
  C366     1.0000 0.09955  0.34368  0.59602  Biso   1.000  C
  C367     1.0000 0.05323  0.46145  0.59209  Biso   1.000  C
  C368     1.0000 0.08892  0.50151  0.57345  Biso   1.000  C
  C369     1.0000 0.12000  0.51990  0.61090  Biso   1.000  C
  C370     1.0000 0.15260  0.56160  0.59440  Biso   1.000  C
  C371     1.0000 0.19260  0.57490  0.62230  Biso   1.000  C
  C372     1.0000 0.21420  0.62200  0.59600  Biso   1.000  C
  C373     1.0000 0.50690  0.80450  0.41170  Biso   1.000  C
  C374     1.0000 0.47230  0.76990  0.40790  Biso   1.000  C
  C375     1.0000 0.63512  0.75277  0.40559  Biso   1.000  C
  C376     1.0000 0.60691  0.71666  0.40232  Biso   1.000  C
  C377     1.0000 0.52370  0.72400  0.40480  Biso   1.000  C
  C378     1.0000 0.48640  0.68290  0.40410  Biso   1.000  C
  C379     1.0000 0.82114  0.08196  0.91816  Biso   1.000  C
  C380     1.0000 0.88681  0.08052  0.87726  Biso   1.000  C
  C381     1.0000 0.96770  0.05430  0.87550  Biso   1.000  C
  C382     1.0000 0.98520  0.02980  0.91320  Biso   1.000  C
  C383     1.0000 0.92145  0.02850  0.95320  Biso   1.000  C
  C384     1.0000 0.83809  0.05440  0.95622  Biso   1.000  C
  C385     1.0000 0.77407  0.04889  0.99857  Biso   1.000  C
  C386     1.0000 0.56045  0.08931  0.04779  Biso   1.000  C
  C387     1.0000 0.48922  0.08403  0.08813  Biso   1.000  C
  C388     1.0000 0.44698  0.12836  0.11628  Biso   1.000  C
  C389     1.0000 0.50417  0.14033  0.14073  Biso   1.000  C
  C390     1.0000 0.46020  0.18270  0.17190  Biso   1.000  C
  C391     1.0000 0.51650  0.19390  0.19650  Biso   1.000  C
  C392     1.0000 0.61329  0.20441  0.02321  Biso   1.000  C
  C393     1.0000 0.55720  0.27390  0.06830  Biso   1.000  C
  C394     1.0000 0.70450  0.25300  0.02360  Biso   1.000  C
  C395     1.0000 0.66678  0.02986  0.17318  Biso   1.000  C
  C396     1.0000 0.68456  0.05554  0.20434  Biso   1.000  C
  C397     1.0000 0.64842  0.05475  0.25081  Biso   1.000  C
  C398     1.0000 0.59453  0.02743  0.26951  Biso   1.000  C
  C399     1.0000 0.57499  0.00231  0.23931  Biso   1.000  C
  C400     1.0000 0.61049  0.00298  0.19164  Biso   1.000  C
  C401     1.0000 0.58666  0.97384  0.16284  Biso   1.000  C
  C402     1.0000 0.64550  0.93642  0.05078  Biso   1.000  C
  C403     1.0000 0.64038  0.90090  0.01974  Biso   1.000  C
  C404     1.0000 0.72147  0.86033  0.00873  Biso   1.000  C
  C405     1.0000 0.73142  0.83038  0.05178  Biso   1.000  C
  C406     1.0000 0.80930  0.78870  0.04170  Biso   1.000  C
  C407     1.0000 0.81410  0.75850  0.08190  Biso   1.000  C
  C408     1.0000 0.82577  0.91891  0.12575  Biso   1.000  C
  C409     1.0000 0.88710  0.87882  0.12778  Biso   1.000  C
  C410     1.0000 0.87175  0.91896  0.04734  Biso   1.000  C
  C411     1.0000 0.93380  0.87730  0.04790  Biso   1.000  C
  C412     1.0000 0.94080  0.85630  0.08930  Biso   1.000  C
  C413     1.0000 0.00780  0.81060  0.09080  Biso   1.000  C
  C414     1.0000 0.44373  0.18326  0.85008  Biso   1.000  C
  C415     1.0000 0.40096  0.22064  0.82724  Biso   1.000  C
  C416     1.0000 0.40335  0.26576  0.83194  Biso   1.000  C
  C417     1.0000 0.44773  0.27524  0.86010  Biso   1.000  C
  C418     1.0000 0.49040  0.23918  0.88282  Biso   1.000  C
  C419     1.0000 0.49037  0.19298  0.87828  Biso   1.000  C
  C420     1.0000 0.53925  0.15632  0.90398  Biso   1.000  C
  C421     1.0000 0.60677  0.03855  0.90791  Biso   1.000  C
  C422     1.0000 0.66388  0.99849  0.92655  Biso   1.000  C
  C423     1.0000 0.75080  0.98010  0.88910  Biso   1.000  C
  C424     1.0000 0.80860  0.93840  0.90560  Biso   1.000  C
  C425     1.0000 0.88980  0.92510  0.87770  Biso   1.000  C
  C426     1.0000 0.93220  0.87800  0.90400  Biso   1.000  C
  C427     1.0000 0.22310  0.69550  0.08830  Biso   1.000  C
  C428     1.0000 0.15010  0.73010  0.09210  Biso   1.000  C
  C429     1.0000 0.29348  0.74723  0.09441  Biso   1.000  C
  C430     1.0000 0.22589  0.78334  0.09768  Biso   1.000  C
  C431     1.0000 0.15250  0.77600  0.09520  Biso   1.000  C
  C432     1.0000 0.07340  0.81710  0.09590  Biso   1.000  C
  N1       1.0000 0.30369  0.00234  0.42768  Biso   1.000  N
  N2       1.0000 0.31883  0.04418  0.43776  Biso   1.000  N
  N3       1.0000 0.33317  0.03896  0.25910  Biso   1.000  N
  N4       1.0000 0.25687  0.11763  0.52883  Biso   1.000  N
  N5       1.0000 0.30151  0.09443  0.56135  Biso   1.000  N
  N6       1.0000 0.09693  0.08554  0.56060  Biso   1.000  N
  N7       1.0000 0.55958  0.89857  0.38747  Biso   1.000  N
  N8       1.0000 0.48377  0.92226  0.42000  Biso   1.000  N
  N9       1.0000 0.61399  0.09001  0.79661  Biso   1.000  N
  N10      1.0000 0.23371  0.49766  0.07232  Biso   1.000  N
  N11      1.0000 0.30077  0.45582  0.06224  Biso   1.000  N
  N12      1.0000 0.13123  0.46104  0.24090  Biso   1.000  N
  N13      1.0000 0.40333  0.38237  0.97117  Biso   1.000  N
  N14      1.0000 0.45729  0.40557  0.93865  Biso   1.000  N
  N15      1.0000 0.24307  0.41446  0.93940  Biso   1.000  N
  N16      1.0000 0.34562  0.60143  0.11253  Biso   1.000  N
  N17      1.0000 0.32603  0.57774  0.08000  Biso   1.000  N
  N18      1.0000 0.00061  0.40999  0.70339  Biso   1.000  N
  N19      1.0000 0.73137  0.57232  0.50234  Biso   1.000  N
  N20      1.0000 0.75659  0.56224  0.54418  Biso   1.000  N
  N21      1.0000 0.59227  0.74090  0.53896  Biso   1.000  N
  N22      1.0000 0.78570  0.47117  0.61763  Biso   1.000  N
  N23      1.0000 0.86286  0.43865  0.59443  Biso   1.000  N
  N24      1.0000 0.65753  0.43940  0.58554  Biso   1.000  N
  N25      1.0000 0.94705  0.61253  0.39857  Biso   1.000  N
  N26      1.0000 0.90377  0.58000  0.42226  Biso   1.000  N
  N27      1.0000 0.41060  0.20339  0.59001  Biso   1.000  N
  N28      1.0000 0.30603  0.92768  0.99766  Biso   1.000  N
  N29      1.0000 0.36301  0.93776  0.95582  Biso   1.000  N
  N30      1.0000 0.37213  0.75910  0.96104  Biso   1.000  N
  N31      1.0000 0.37450  0.02883  0.88237  Biso   1.000  N
  N32      1.0000 0.39594  0.06135  0.90557  Biso   1.000  N
  N33      1.0000 0.18247  0.06060  0.91446  Biso   1.000  N
  N34      1.0000 0.45815  0.88747  0.10143  Biso   1.000  N
  N35      1.0000 0.40603  0.92000  0.07774  Biso   1.000  N
  N36      1.0000 0.70400  0.29661  0.90999  Biso   1.000  N
  N37      1.0000 0.69631  0.99766  0.57232  Biso   1.000  N
  N38      1.0000 0.68117  0.95582  0.56224  Biso   1.000  N
  N39      1.0000 0.66683  0.96104  0.74090  Biso   1.000  N
  N40      1.0000 0.74313  0.88237  0.47117  Biso   1.000  N
  N41      1.0000 0.69849  0.90557  0.43865  Biso   1.000  N
  N42      1.0000 0.90307  0.91446  0.43940  Biso   1.000  N
  N43      1.0000 0.44042  0.10143  0.61253  Biso   1.000  N
  N44      1.0000 0.51623  0.07774  0.58000  Biso   1.000  N
  N45      1.0000 0.38601  0.90999  0.20339  Biso   1.000  N
  N46      1.0000 0.76629  0.50234  0.92768  Biso   1.000  N
  N47      1.0000 0.69923  0.54418  0.93776  Biso   1.000  N
  N48      1.0000 0.86877  0.53896  0.75910  Biso   1.000  N
  N49      1.0000 0.59667  0.61763  0.02883  Biso   1.000  N
  N50      1.0000 0.54271  0.59443  0.06135  Biso   1.000  N
  N51      1.0000 0.75693  0.58554  0.06060  Biso   1.000  N
  N52      1.0000 0.65438  0.39857  0.88747  Biso   1.000  N
  N53      1.0000 0.67397  0.42226  0.92000  Biso   1.000  N
  N54      1.0000 0.99939  0.59001  0.29661  Biso   1.000  N
  N55      1.0000 0.26863  0.42768  0.49766  Biso   1.000  N
  N56      1.0000 0.24341  0.43776  0.45582  Biso   1.000  N
  N57      1.0000 0.40773  0.25910  0.46104  Biso   1.000  N
  N58      1.0000 0.21430  0.52883  0.38237  Biso   1.000  N
  N59      1.0000 0.13714  0.56135  0.40557  Biso   1.000  N
  N60      1.0000 0.34247  0.56060  0.41446  Biso   1.000  N
  N61      1.0000 0.05295  0.38747  0.60143  Biso   1.000  N
  N62      1.0000 0.09623  0.42000  0.57774  Biso   1.000  N
  N63      1.0000 0.58940  0.79661  0.40999  Biso   1.000  N
  N64      1.0000 0.69397  0.07232  0.00234  Biso   1.000  N
  N65      1.0000 0.63699  0.06224  0.04418  Biso   1.000  N
  N66      1.0000 0.62787  0.24090  0.03896  Biso   1.000  N
  N67      1.0000 0.62550  0.97117  0.11763  Biso   1.000  N
  N68      1.0000 0.60406  0.93865  0.09443  Biso   1.000  N
  N69      1.0000 0.81753  0.93940  0.08554  Biso   1.000  N
  N70      1.0000 0.54185  0.11253  0.89857  Biso   1.000  N
  N71      1.0000 0.59397  0.08000  0.92226  Biso   1.000  N
  N72      1.0000 0.29600  0.70339  0.09001  Biso   1.000  N
  O1       1.0000 0.33754  0.91804  0.39068  Biso   1.000  O
  O2       1.0000 0.17431  0.03034  0.47792  Biso   1.000  O
  O3       1.0000 0.43876  0.01692  0.37936  Biso   1.000  O
  O4       1.0000 0.33643  0.99584  0.32350  Biso   1.000  O
  O5       1.0000 0.16574  0.12849  0.46723  Biso   1.000  O
  O6       1.0000 0.28460  0.18290  0.54818  Biso   1.000  O
  O7       1.0000 0.27170  0.03256  0.53828  Biso   1.000  O
  O8       1.0000 0.71930  0.84304  0.35836  Biso   1.000  O
  O9       1.0000 0.49210  0.92986  0.33194  Biso   1.000  O
  O10      1.0000 0.54736  0.87700  0.47108  Biso   1.000  O
  O11      1.0000 0.14626  0.58196  0.10932  Biso   1.000  O
  O12      1.0000 0.18257  0.46966  0.02208  Biso   1.000  O
  O13      1.0000 0.33504  0.48308  0.12064  Biso   1.000  O
  O14      1.0000 0.15577  0.50416  0.17650  Biso   1.000  O
  O15      1.0000 0.26146  0.37151  0.03277  Biso   1.000  O
  O16      1.0000 0.51568  0.31710  0.95182  Biso   1.000  O
  O17      1.0000 0.34254  0.46744  0.96172  Biso   1.000  O
  O18      1.0000 0.42070  0.65696  0.14164  Biso   1.000  O
  O19      1.0000 0.25390  0.57014  0.16806  Biso   1.000  O
  O20      1.0000 0.39544  0.62300  0.02892  Biso   1.000  O
  O21      1.0000 0.72822  0.60932  0.41804  Biso   1.000  O
  O22      1.0000 0.65223  0.52208  0.53034  Biso   1.000  O
  O23      1.0000 0.81812  0.62064  0.51692  Biso   1.000  O
  O24      1.0000 0.65993  0.67650  0.49584  Biso   1.000  O
  O25      1.0000 0.63297  0.53277  0.62849  Biso   1.000  O
  O26      1.0000 0.83278  0.45182  0.68290  Biso   1.000  O
  O27      1.0000 0.80998  0.46172  0.53256  Biso   1.000  O
  O28      1.0000 0.07766  0.64164  0.34304  Biso   1.000  O
  O29      1.0000 0.82404  0.66806  0.42986  Biso   1.000  O
  O30      1.0000 0.01844  0.52892  0.37700  Biso   1.000  O
  O31      1.0000 0.25558  0.89068  0.08196  Biso   1.000  O
  O32      1.0000 0.20465  0.97792  0.96966  Biso   1.000  O
  O33      1.0000 0.45568  0.87936  0.98308  Biso   1.000  O
  O34      1.0000 0.33227  0.82350  0.00416  Biso   1.000  O
  O35      1.0000 0.29423  0.96723  0.87151  Biso   1.000  O
  O36      1.0000 0.46750  0.04818  0.81710  Biso   1.000  O
  O37      1.0000 0.30426  0.03828  0.96744  Biso   1.000  O
  O38      1.0000 0.56234  0.85836  0.15696  Biso   1.000  O
  O39      1.0000 0.42196  0.83194  0.07014  Biso   1.000  O
  O40      1.0000 0.42436  0.97108  0.12300  Biso   1.000  O
  O41      1.0000 0.66246  0.08196  0.60932  Biso   1.000  O
  O42      1.0000 0.82569  0.96966  0.52208  Biso   1.000  O
  O43      1.0000 0.56124  0.98308  0.62064  Biso   1.000  O
  O44      1.0000 0.66357  0.00416  0.67650  Biso   1.000  O
  O45      1.0000 0.83426  0.87151  0.53277  Biso   1.000  O
  O46      1.0000 0.71540  0.81710  0.45182  Biso   1.000  O
  O47      1.0000 0.72830  0.96744  0.46172  Biso   1.000  O
  O48      1.0000 0.28070  0.15696  0.64164  Biso   1.000  O
  O49      1.0000 0.50790  0.07014  0.66806  Biso   1.000  O
  O50      1.0000 0.45264  0.12300  0.52892  Biso   1.000  O
  O51      1.0000 0.85374  0.41804  0.89068  Biso   1.000  O
  O52      1.0000 0.81743  0.53034  0.97792  Biso   1.000  O
  O53      1.0000 0.66496  0.51692  0.87936  Biso   1.000  O
  O54      1.0000 0.84423  0.49584  0.82350  Biso   1.000  O
  O55      1.0000 0.73854  0.62849  0.96723  Biso   1.000  O
  O56      1.0000 0.48432  0.68290  0.04818  Biso   1.000  O
  O57      1.0000 0.65746  0.53256  0.03828  Biso   1.000  O
  O58      1.0000 0.57930  0.34304  0.85836  Biso   1.000  O
  O59      1.0000 0.74610  0.42986  0.83194  Biso   1.000  O
  O60      1.0000 0.60456  0.37700  0.97108  Biso   1.000  O
  O61      1.0000 0.27178  0.39068  0.58196  Biso   1.000  O
  O62      1.0000 0.34777  0.47792  0.46966  Biso   1.000  O
  O63      1.0000 0.18188  0.37936  0.48308  Biso   1.000  O
  O64      1.0000 0.34007  0.32350  0.50416  Biso   1.000  O
  O65      1.0000 0.36703  0.46723  0.37151  Biso   1.000  O
  O66      1.0000 0.16722  0.54818  0.31710  Biso   1.000  O
  O67      1.0000 0.19002  0.53828  0.46744  Biso   1.000  O
  O68      1.0000 0.92234  0.35836  0.65696  Biso   1.000  O
  O69      1.0000 0.17596  0.33194  0.57014  Biso   1.000  O
  O70      1.0000 0.98156  0.47108  0.62300  Biso   1.000  O
  O71      1.0000 0.74442  0.10932  0.91804  Biso   1.000  O
  O72      1.0000 0.79535  0.02208  0.03034  Biso   1.000  O
  O73      1.0000 0.54432  0.12064  0.01692  Biso   1.000  O
  O74      1.0000 0.66773  0.17650  0.99584  Biso   1.000  O
  O75      1.0000 0.70577  0.03277  0.12849  Biso   1.000  O
  O76      1.0000 0.53250  0.95182  0.18290  Biso   1.000  O
  O77      1.0000 0.69574  0.96172  0.03256  Biso   1.000  O
  O78      1.0000 0.43766  0.14164  0.84304  Biso   1.000  O
  O79      1.0000 0.57804  0.16806  0.92986  Biso   1.000  O
  O80      1.0000 0.57564  0.02892  0.87700  Biso   1.000  O
