data_image0
_cell_length_a       13.7073
_cell_length_b       27.873
_cell_length_c       45.852
_cell_angle_alpha    90
_cell_angle_beta     90
_cell_angle_gamma    90

_symmetry_space_group_name_H-M    P 1
_symmetry_int_tables_number       1

loop_
  _symmetry_equiv_pos_as_xyz
  'x, y, z'

loop_
  _atom_site_label
  _atom_site_occupancy
  _atom_site_fract_x
  _atom_site_fract_y
  _atom_site_fract_z
  _atom_site_thermal_displace_type
  _atom_site_B_iso_or_equiv
  _atom_site_type_symbol
  Zn1      1.0000 0.16187  0.94235  0.42983  Biso   1.000  Zn
  Zn2      1.0000 0.14267  0.75552  0.68908  Biso   1.000  Zn
  Zn3      1.0000 0.35074  0.97214  0.58674  Biso   1.000  Zn
  Zn4      1.0000 0.83813  0.55765  0.92983  Biso   1.000  Zn
  Zn5      1.0000 0.85733  0.74448  0.18908  Biso   1.000  Zn
  Zn6      1.0000 0.64926  0.52786  0.08674  Biso   1.000  Zn
  Zn7      1.0000 0.66187  0.05765  0.07017  Biso   1.000  Zn
  Zn8      1.0000 0.64267  0.24448  0.81092  Biso   1.000  Zn
  Zn9      1.0000 0.85074  0.02786  0.91326  Biso   1.000  Zn
  Zn10     1.0000 0.33813  0.44235  0.57017  Biso   1.000  Zn
  Zn11     1.0000 0.35733  0.25552  0.31092  Biso   1.000  Zn
  Zn12     1.0000 0.14926  0.47214  0.41326  Biso   1.000  Zn
  H1       1.0000 0.96180  0.96070  0.45500  Biso   1.000  H
  H2       1.0000 0.86810  0.94100  0.49540  Biso   1.000  H
  H3       1.0000 0.10320  0.87330  0.52930  Biso   1.000  H
  H4       1.0000 0.19140  0.89620  0.48870  Biso   1.000  H
  H5       1.0000 0.65740  0.93510  0.53070  Biso   1.000  H
  H6       1.0000 0.50040  0.96400  0.53830  Biso   1.000  H
  H7       1.0000 0.50000  0.91360  0.61900  Biso   1.000  H
  H8       1.0000 0.65630  0.88420  0.61340  Biso   1.000  H
  H9       1.0000 0.84490  0.81850  0.63750  Biso   1.000  H
  H10      1.0000 0.93210  0.78200  0.67440  Biso   1.000  H
  H11      1.0000 0.18080  0.80990  0.63580  Biso   1.000  H
  H12      1.0000 0.10130  0.84600  0.59680  Biso   1.000  H
  H13      1.0000 0.91920  0.66500  0.22820  Biso   1.000  H
  H14      1.0000 0.98120  0.65370  0.27500  Biso   1.000  H
  H15      1.0000 0.03130  0.79620  0.27960  Biso   1.000  H
  H16      1.0000 0.97280  0.80320  0.23190  Biso   1.000  H
  H17      1.0000 0.07920  0.58520  0.33000  Biso   1.000  H
  H18      1.0000 0.10760  0.51240  0.35320  Biso   1.000  H
  H19      1.0000 0.11720  0.57530  0.42990  Biso   1.000  H
  H20      1.0000 0.09480  0.65000  0.40870  Biso   1.000  H
  H21      1.0000 0.12520  0.76510  0.41260  Biso   1.000  H
  H22      1.0000 0.15660  0.83510  0.43820  Biso   1.000  H
  H23      1.0000 0.08710  0.91420  0.37020  Biso   1.000  H
  H24      1.0000 0.05990  0.84630  0.34180  Biso   1.000  H
  H25      1.0000 0.03820  0.53930  0.95500  Biso   1.000  H
  H26      1.0000 0.13190  0.55900  0.99540  Biso   1.000  H
  H27      1.0000 0.89680  0.62670  0.02930  Biso   1.000  H
  H28      1.0000 0.80860  0.60380  0.98870  Biso   1.000  H
  H29      1.0000 0.34260  0.56490  0.03070  Biso   1.000  H
  H30      1.0000 0.49960  0.53600  0.03830  Biso   1.000  H
  H31      1.0000 0.50000  0.58640  0.11900  Biso   1.000  H
  H32      1.0000 0.34370  0.61580  0.11340  Biso   1.000  H
  H33      1.0000 0.15510  0.68150  0.13750  Biso   1.000  H
  H34      1.0000 0.06790  0.71800  0.17440  Biso   1.000  H
  H35      1.0000 0.81920  0.69010  0.13580  Biso   1.000  H
  H36      1.0000 0.89870  0.65400  0.09680  Biso   1.000  H
  H37      1.0000 0.08080  0.83500  0.72820  Biso   1.000  H
  H38      1.0000 0.01880  0.84630  0.77500  Biso   1.000  H
  H39      1.0000 0.96870  0.70380  0.77960  Biso   1.000  H
  H40      1.0000 0.02720  0.69680  0.73190  Biso   1.000  H
  H41      1.0000 0.92080  0.91480  0.83000  Biso   1.000  H
  H42      1.0000 0.89240  0.98760  0.85320  Biso   1.000  H
  H43      1.0000 0.88280  0.92470  0.92990  Biso   1.000  H
  H44      1.0000 0.90520  0.85000  0.90870  Biso   1.000  H
  H45      1.0000 0.87480  0.73490  0.91260  Biso   1.000  H
  H46      1.0000 0.84340  0.66490  0.93820  Biso   1.000  H
  H47      1.0000 0.91290  0.58580  0.87020  Biso   1.000  H
  H48      1.0000 0.94010  0.65370  0.84180  Biso   1.000  H
  H49      1.0000 0.46180  0.03930  0.04500  Biso   1.000  H
  H50      1.0000 0.36810  0.05900  0.00460  Biso   1.000  H
  H51      1.0000 0.60320  0.12670  0.97070  Biso   1.000  H
  H52      1.0000 0.69140  0.10380  0.01130  Biso   1.000  H
  H53      1.0000 0.15740  0.06490  0.96930  Biso   1.000  H
  H54      1.0000 0.00040  0.03600  0.96170  Biso   1.000  H
  H55      1.0000 0.00000  0.08640  0.88100  Biso   1.000  H
  H56      1.0000 0.15630  0.11580  0.88660  Biso   1.000  H
  H57      1.0000 0.34490  0.18150  0.86250  Biso   1.000  H
  H58      1.0000 0.43210  0.21800  0.82560  Biso   1.000  H
  H59      1.0000 0.68080  0.19010  0.86420  Biso   1.000  H
  H60      1.0000 0.60130  0.15400  0.90320  Biso   1.000  H
  H61      1.0000 0.41920  0.33500  0.27180  Biso   1.000  H
  H62      1.0000 0.48120  0.34630  0.22500  Biso   1.000  H
  H63      1.0000 0.53130  0.20380  0.22040  Biso   1.000  H
  H64      1.0000 0.47280  0.19680  0.26810  Biso   1.000  H
  H65      1.0000 0.57920  0.41480  0.17000  Biso   1.000  H
  H66      1.0000 0.60760  0.48760  0.14680  Biso   1.000  H
  H67      1.0000 0.61720  0.42470  0.07010  Biso   1.000  H
  H68      1.0000 0.59480  0.35000  0.09130  Biso   1.000  H
  H69      1.0000 0.62520  0.23490  0.08740  Biso   1.000  H
  H70      1.0000 0.65660  0.16490  0.06180  Biso   1.000  H
  H71      1.0000 0.58710  0.08580  0.12980  Biso   1.000  H
  H72      1.0000 0.55990  0.15370  0.15820  Biso   1.000  H
  H73      1.0000 0.53820  0.46070  0.54500  Biso   1.000  H
  H74      1.0000 0.63190  0.44100  0.50460  Biso   1.000  H
  H75      1.0000 0.39680  0.37330  0.47070  Biso   1.000  H
  H76      1.0000 0.30860  0.39620  0.51130  Biso   1.000  H
  H77      1.0000 0.84260  0.43510  0.46930  Biso   1.000  H
  H78      1.0000 0.99960  0.46400  0.46170  Biso   1.000  H
  H79      1.0000 0.00000  0.41360  0.38100  Biso   1.000  H
  H80      1.0000 0.84370  0.38420  0.38660  Biso   1.000  H
  H81      1.0000 0.65510  0.31850  0.36250  Biso   1.000  H
  H82      1.0000 0.56790  0.28200  0.32560  Biso   1.000  H
  H83      1.0000 0.31920  0.30990  0.36420  Biso   1.000  H
  H84      1.0000 0.39870  0.34600  0.40320  Biso   1.000  H
  H85      1.0000 0.58080  0.16500  0.77180  Biso   1.000  H
  H86      1.0000 0.51880  0.15370  0.72500  Biso   1.000  H
  H87      1.0000 0.46870  0.29620  0.72040  Biso   1.000  H
  H88      1.0000 0.52720  0.30320  0.76810  Biso   1.000  H
  H89      1.0000 0.42080  0.08520  0.67000  Biso   1.000  H
  H90      1.0000 0.39240  0.01240  0.64680  Biso   1.000  H
  H91      1.0000 0.38280  0.07530  0.57010  Biso   1.000  H
  H92      1.0000 0.40520  0.15000  0.59130  Biso   1.000  H
  H93      1.0000 0.37480  0.26510  0.58740  Biso   1.000  H
  H94      1.0000 0.34340  0.33510  0.56180  Biso   1.000  H
  H95      1.0000 0.41290  0.41420  0.62980  Biso   1.000  H
  H96      1.0000 0.44010  0.34630  0.65820  Biso   1.000  H
  C1       1.0000 0.99060  0.94260  0.47034  Biso   1.000  C
  C2       1.0000 0.93400  0.93050  0.49418  Biso   1.000  C
  C3       1.0000 0.97420  0.90330  0.51609  Biso   1.000  C
  C4       1.0000 0.07260  0.89090  0.51413  Biso   1.000  C
  C5       1.0000 0.12440  0.90470  0.48990  Biso   1.000  C
  C6       1.0000 0.91700  0.88960  0.54252  Biso   1.000  C
  C7       1.0000 0.77650  0.89050  0.56810  Biso   1.000  C
  C8       1.0000 0.91190  0.85760  0.58773  Biso   1.000  C
  C9       1.0000 0.67460  0.90660  0.57121  Biso   1.000  C
  C10      1.0000 0.62650  0.93050  0.54908  Biso   1.000  C
  C11      1.0000 0.53290  0.94790  0.55374  Biso   1.000  C
  C12      1.0000 0.53280  0.91840  0.60096  Biso   1.000  C
  C13      1.0000 0.62550  0.90060  0.59771  Biso   1.000  C
  C14      1.0000 0.96400  0.83500  0.61243  Biso   1.000  C
  C15      1.0000 0.91400  0.81650  0.63639  Biso   1.000  C
  C16      1.0000 0.96670  0.79520  0.65834  Biso   1.000  C
  C17      1.0000 0.11160  0.81120  0.63581  Biso   1.000  C
  C18      1.0000 0.06480  0.83290  0.61248  Biso   1.000  C
  C19      1.0000 0.94200  0.69200  0.23887  Biso   1.000  C
  C20      1.0000 0.97850  0.68500  0.26682  Biso   1.000  C
  C21      1.0000 0.01080  0.72380  0.28259  Biso   1.000  C
  C22      1.0000 0.00860  0.76870  0.26944  Biso   1.000  C
  C23      1.0000 0.97260  0.77260  0.24115  Biso   1.000  C
  C24      1.0000 0.04130  0.71910  0.31343  Biso   1.000  C
  C25      1.0000 0.07460  0.67340  0.35308  Biso   1.000  C
  C26      1.0000 0.07740  0.75420  0.35656  Biso   1.000  C
  C27      1.0000 0.08670  0.62570  0.36705  Biso   1.000  C
  C28      1.0000 0.08850  0.58410  0.35048  Biso   1.000  C
  C29      1.0000 0.10430  0.54080  0.36462  Biso   1.000  C
  C30      1.0000 0.11080  0.57740  0.40936  Biso   1.000  C
  C31      1.0000 0.09710  0.62210  0.39681  Biso   1.000  C
  C32      1.0000 0.09200  0.79800  0.37428  Biso   1.000  C
  C33      1.0000 0.11870  0.79540  0.40325  Biso   1.000  C
  C34      1.0000 0.13580  0.83720  0.41843  Biso   1.000  C
  C35      1.0000 0.09610  0.88350  0.37864  Biso   1.000  C
  C36      1.0000 0.07940  0.84330  0.36155  Biso   1.000  C
  C37      1.0000 0.00940  0.55740  0.97034  Biso   1.000  C
  C38      1.0000 0.06600  0.56950  0.99418  Biso   1.000  C
  C39      1.0000 0.02580  0.59670  0.01609  Biso   1.000  C
  C40      1.0000 0.92740  0.60910  0.01413  Biso   1.000  C
  C41      1.0000 0.87560  0.59530  0.98990  Biso   1.000  C
  C42      1.0000 0.08300  0.61040  0.04252  Biso   1.000  C
  C43      1.0000 0.22350  0.60950  0.06810  Biso   1.000  C
  C44      1.0000 0.08810  0.64240  0.08773  Biso   1.000  C
  C45      1.0000 0.32540  0.59340  0.07121  Biso   1.000  C
  C46      1.0000 0.37350  0.56950  0.04908  Biso   1.000  C
  C47      1.0000 0.46710  0.55210  0.05374  Biso   1.000  C
  C48      1.0000 0.46720  0.58160  0.10096  Biso   1.000  C
  C49      1.0000 0.37450  0.59940  0.09771  Biso   1.000  C
  C50      1.0000 0.03600  0.66500  0.11243  Biso   1.000  C
  C51      1.0000 0.08600  0.68350  0.13639  Biso   1.000  C
  C52      1.0000 0.03330  0.70480  0.15834  Biso   1.000  C
  C53      1.0000 0.88840  0.68880  0.13581  Biso   1.000  C
  C54      1.0000 0.93520  0.66710  0.11248  Biso   1.000  C
  C55      1.0000 0.05800  0.80800  0.73887  Biso   1.000  C
  C56      1.0000 0.02150  0.81500  0.76682  Biso   1.000  C
  C57      1.0000 0.98920  0.77620  0.78259  Biso   1.000  C
  C58      1.0000 0.99140  0.73130  0.76944  Biso   1.000  C
  C59      1.0000 0.02740  0.72740  0.74115  Biso   1.000  C
  C60      1.0000 0.95870  0.78090  0.81343  Biso   1.000  C
  C61      1.0000 0.92540  0.82660  0.85308  Biso   1.000  C
  C62      1.0000 0.92260  0.74580  0.85656  Biso   1.000  C
  C63      1.0000 0.91330  0.87430  0.86705  Biso   1.000  C
  C64      1.0000 0.91150  0.91590  0.85048  Biso   1.000  C
  C65      1.0000 0.89570  0.95920  0.86462  Biso   1.000  C
  C66      1.0000 0.88920  0.92260  0.90936  Biso   1.000  C
  C67      1.0000 0.90290  0.87790  0.89681  Biso   1.000  C
  C68      1.0000 0.90800  0.70200  0.87428  Biso   1.000  C
  C69      1.0000 0.88130  0.70460  0.90325  Biso   1.000  C
  C70      1.0000 0.86420  0.66280  0.91843  Biso   1.000  C
  C71      1.0000 0.90390  0.61650  0.87864  Biso   1.000  C
  C72      1.0000 0.92060  0.65670  0.86155  Biso   1.000  C
  C73      1.0000 0.49060  0.05740  0.02966  Biso   1.000  C
  C74      1.0000 0.43400  0.06950  0.00582  Biso   1.000  C
  C75      1.0000 0.47420  0.09670  0.98391  Biso   1.000  C
  C76      1.0000 0.57260  0.10910  0.98587  Biso   1.000  C
  C77      1.0000 0.62440  0.09530  0.01010  Biso   1.000  C
  C78      1.0000 0.41700  0.11040  0.95748  Biso   1.000  C
  C79      1.0000 0.27650  0.10950  0.93190  Biso   1.000  C
  C80      1.0000 0.41190  0.14240  0.91227  Biso   1.000  C
  C81      1.0000 0.17460  0.09340  0.92879  Biso   1.000  C
  C82      1.0000 0.12650  0.06950  0.95092  Biso   1.000  C
  C83      1.0000 0.03290  0.05210  0.94626  Biso   1.000  C
  C84      1.0000 0.03280  0.08160  0.89904  Biso   1.000  C
  C85      1.0000 0.12550  0.09940  0.90229  Biso   1.000  C
  C86      1.0000 0.46400  0.16500  0.88757  Biso   1.000  C
  C87      1.0000 0.41400  0.18350  0.86361  Biso   1.000  C
  C88      1.0000 0.46670  0.20480  0.84166  Biso   1.000  C
  C89      1.0000 0.61160  0.18880  0.86419  Biso   1.000  C
  C90      1.0000 0.56480  0.16710  0.88752  Biso   1.000  C
  C91      1.0000 0.44200  0.30800  0.26113  Biso   1.000  C
  C92      1.0000 0.47850  0.31500  0.23318  Biso   1.000  C
  C93      1.0000 0.51080  0.27620  0.21741  Biso   1.000  C
  C94      1.0000 0.50860  0.23130  0.23056  Biso   1.000  C
  C95      1.0000 0.47260  0.22740  0.25885  Biso   1.000  C
  C96      1.0000 0.54130  0.28090  0.18657  Biso   1.000  C
  C97      1.0000 0.57460  0.32660  0.14692  Biso   1.000  C
  C98      1.0000 0.57740  0.24580  0.14344  Biso   1.000  C
  C99      1.0000 0.58670  0.37430  0.13295  Biso   1.000  C
  C100     1.0000 0.58850  0.41590  0.14952  Biso   1.000  C
  C101     1.0000 0.60430  0.45920  0.13538  Biso   1.000  C
  C102     1.0000 0.61080  0.42260  0.09064  Biso   1.000  C
  C103     1.0000 0.59710  0.37790  0.10319  Biso   1.000  C
  C104     1.0000 0.59200  0.20200  0.12572  Biso   1.000  C
  C105     1.0000 0.61870  0.20460  0.09675  Biso   1.000  C
  C106     1.0000 0.63580  0.16280  0.08157  Biso   1.000  C
  C107     1.0000 0.59610  0.11650  0.12136  Biso   1.000  C
  C108     1.0000 0.57940  0.15670  0.13845  Biso   1.000  C
  C109     1.0000 0.50940  0.44260  0.52966  Biso   1.000  C
  C110     1.0000 0.56600  0.43050  0.50582  Biso   1.000  C
  C111     1.0000 0.52580  0.40330  0.48391  Biso   1.000  C
  C112     1.0000 0.42740  0.39090  0.48587  Biso   1.000  C
  C113     1.0000 0.37560  0.40470  0.51010  Biso   1.000  C
  C114     1.0000 0.58300  0.38960  0.45748  Biso   1.000  C
  C115     1.0000 0.72350  0.39050  0.43190  Biso   1.000  C
  C116     1.0000 0.58810  0.35760  0.41227  Biso   1.000  C
  C117     1.0000 0.82540  0.40660  0.42879  Biso   1.000  C
  C118     1.0000 0.87350  0.43050  0.45092  Biso   1.000  C
  C119     1.0000 0.96710  0.44790  0.44626  Biso   1.000  C
  C120     1.0000 0.96720  0.41840  0.39904  Biso   1.000  C
  C121     1.0000 0.87450  0.40060  0.40229  Biso   1.000  C
  C122     1.0000 0.53600  0.33500  0.38757  Biso   1.000  C
  C123     1.0000 0.58600  0.31650  0.36361  Biso   1.000  C
  C124     1.0000 0.53330  0.29520  0.34166  Biso   1.000  C
  C125     1.0000 0.38840  0.31120  0.36419  Biso   1.000  C
  C126     1.0000 0.43520  0.33290  0.38752  Biso   1.000  C
  C127     1.0000 0.55800  0.19200  0.76113  Biso   1.000  C
  C128     1.0000 0.52150  0.18500  0.73318  Biso   1.000  C
  C129     1.0000 0.48920  0.22380  0.71741  Biso   1.000  C
  C130     1.0000 0.49140  0.26870  0.73056  Biso   1.000  C
  C131     1.0000 0.52740  0.27260  0.75885  Biso   1.000  C
  C132     1.0000 0.45870  0.21910  0.68657  Biso   1.000  C
  C133     1.0000 0.42540  0.17340  0.64692  Biso   1.000  C
  C134     1.0000 0.42260  0.25420  0.64344  Biso   1.000  C
  C135     1.0000 0.41330  0.12570  0.63295  Biso   1.000  C
  C136     1.0000 0.41150  0.08410  0.64952  Biso   1.000  C
  C137     1.0000 0.39570  0.04080  0.63538  Biso   1.000  C
  C138     1.0000 0.38920  0.07740  0.59064  Biso   1.000  C
  C139     1.0000 0.40290  0.12210  0.60319  Biso   1.000  C
  C140     1.0000 0.40800  0.29800  0.62572  Biso   1.000  C
  C141     1.0000 0.38130  0.29540  0.59675  Biso   1.000  C
  C142     1.0000 0.36420  0.33720  0.58157  Biso   1.000  C
  C143     1.0000 0.40390  0.38350  0.62136  Biso   1.000  C
  C144     1.0000 0.42060  0.34330  0.63845  Biso   1.000  C
  I1       1.0000 0.08052  0.01077  0.40261  Biso   1.000  I
  I2       1.0000 0.34261  0.93239  0.44132  Biso   1.000  I
  I3       1.0000 0.30086  0.80272  0.69638  Biso   1.000  I
  I4       1.0000 0.15082  0.66659  0.67661  Biso   1.000  I
  I5       1.0000 0.26650  0.92267  0.62599  Biso   1.000  I
  I6       1.0000 0.27502  0.99004  0.53711  Biso   1.000  I
  I7       1.0000 0.91948  0.48923  0.90261  Biso   1.000  I
  I8       1.0000 0.65739  0.56761  0.94132  Biso   1.000  I
  I9       1.0000 0.69914  0.69728  0.19638  Biso   1.000  I
  I10      1.0000 0.84918  0.83341  0.17661  Biso   1.000  I
  I11      1.0000 0.73350  0.57733  0.12599  Biso   1.000  I
  I12      1.0000 0.72498  0.50996  0.03711  Biso   1.000  I
  I13      1.0000 0.58052  0.98923  0.09739  Biso   1.000  I
  I14      1.0000 0.84261  0.06761  0.05868  Biso   1.000  I
  I15      1.0000 0.80086  0.19728  0.80362  Biso   1.000  I
  I16      1.0000 0.65082  0.33341  0.82339  Biso   1.000  I
  I17      1.0000 0.76650  0.07733  0.87401  Biso   1.000  I
  I18      1.0000 0.77502  0.00996  0.96289  Biso   1.000  I
  I19      1.0000 0.41948  0.51077  0.59739  Biso   1.000  I
  I20      1.0000 0.15739  0.43239  0.55868  Biso   1.000  I
  I21      1.0000 0.19914  0.30272  0.30362  Biso   1.000  I
  I22      1.0000 0.34918  0.16659  0.32339  Biso   1.000  I
  I23      1.0000 0.23350  0.42267  0.37401  Biso   1.000  I
  I24      1.0000 0.22498  0.49004  0.46289  Biso   1.000  I
  N1       1.0000 0.08490  0.92970  0.46788  Biso   1.000  N
  N2       1.0000 0.82220  0.90170  0.54331  Biso   1.000  N
  N3       1.0000 0.81710  0.86784  0.59081  Biso   1.000  N
  N4       1.0000 0.96530  0.86760  0.56402  Biso   1.000  N
  N5       1.0000 0.48660  0.94260  0.57952  Biso   1.000  N
  N6       1.0000 0.06390  0.79220  0.65832  Biso   1.000  N
  N7       1.0000 0.93800  0.73520  0.22666  Biso   1.000  N
  N8       1.0000 0.05100  0.67464  0.32452  Biso   1.000  N
  N9       1.0000 0.08810  0.71191  0.36992  Biso   1.000  N
  N10      1.0000 0.05380  0.75994  0.32850  Biso   1.000  N
  N11      1.0000 0.11520  0.53704  0.39363  Biso   1.000  N
  N12      1.0000 0.12440  0.88090  0.40650  Biso   1.000  N
  N13      1.0000 0.91510  0.57030  0.96788  Biso   1.000  N
  N14      1.0000 0.17780  0.59830  0.04331  Biso   1.000  N
  N15      1.0000 0.18290  0.63216  0.09081  Biso   1.000  N
  N16      1.0000 0.03470  0.63240  0.06402  Biso   1.000  N
  N17      1.0000 0.51340  0.55740  0.07952  Biso   1.000  N
  N18      1.0000 0.93610  0.70780  0.15832  Biso   1.000  N
  N19      1.0000 0.06200  0.76480  0.72666  Biso   1.000  N
  N20      1.0000 0.94900  0.82536  0.82452  Biso   1.000  N
  N21      1.0000 0.91190  0.78809  0.86992  Biso   1.000  N
  N22      1.0000 0.94620  0.74006  0.82850  Biso   1.000  N
  N23      1.0000 0.88480  0.96296  0.89363  Biso   1.000  N
  N24      1.0000 0.87560  0.61910  0.90650  Biso   1.000  N
  N25      1.0000 0.58490  0.07030  0.03212  Biso   1.000  N
  N26      1.0000 0.32220  0.09830  0.95669  Biso   1.000  N
  N27      1.0000 0.31710  0.13216  0.90919  Biso   1.000  N
  N28      1.0000 0.46530  0.13240  0.93598  Biso   1.000  N
  N29      1.0000 0.98660  0.05740  0.92048  Biso   1.000  N
  N30      1.0000 0.56390  0.20780  0.84168  Biso   1.000  N
  N31      1.0000 0.43800  0.26480  0.27334  Biso   1.000  N
  N32      1.0000 0.55100  0.32536  0.17548  Biso   1.000  N
  N33      1.0000 0.58810  0.28809  0.13008  Biso   1.000  N
  N34      1.0000 0.55380  0.24006  0.17150  Biso   1.000  N
  N35      1.0000 0.61520  0.46296  0.10637  Biso   1.000  N
  N36      1.0000 0.62440  0.11910  0.09350  Biso   1.000  N
  N37      1.0000 0.41510  0.42970  0.53212  Biso   1.000  N
  N38      1.0000 0.67780  0.40170  0.45669  Biso   1.000  N
  N39      1.0000 0.68290  0.36784  0.40919  Biso   1.000  N
  N40      1.0000 0.53470  0.36760  0.43598  Biso   1.000  N
  N41      1.0000 0.01340  0.44260  0.42048  Biso   1.000  N
  N42      1.0000 0.43610  0.29220  0.34168  Biso   1.000  N
  N43      1.0000 0.56200  0.23520  0.77334  Biso   1.000  N
  N44      1.0000 0.44900  0.17464  0.67548  Biso   1.000  N
  N45      1.0000 0.41190  0.21191  0.63008  Biso   1.000  N
  N46      1.0000 0.44620  0.25994  0.67150  Biso   1.000  N
  N47      1.0000 0.38480  0.03704  0.60637  Biso   1.000  N
  N48      1.0000 0.37560  0.38090  0.59350  Biso   1.000  N
  Zn13     1.0000 0.83813  0.05765  0.57017  Biso   1.000  Zn
  Zn14     1.0000 0.85733  0.24448  0.31092  Biso   1.000  Zn
  Zn15     1.0000 0.64926  0.02786  0.41326  Biso   1.000  Zn
  Zn16     1.0000 0.16187  0.44235  0.07017  Biso   1.000  Zn
  Zn17     1.0000 0.14267  0.25552  0.81092  Biso   1.000  Zn
  Zn18     1.0000 0.35074  0.47214  0.91326  Biso   1.000  Zn
  Zn19     1.0000 0.33813  0.94235  0.92983  Biso   1.000  Zn
  Zn20     1.0000 0.35733  0.75552  0.18908  Biso   1.000  Zn
  Zn21     1.0000 0.14926  0.97214  0.08674  Biso   1.000  Zn
  Zn22     1.0000 0.66187  0.55765  0.42983  Biso   1.000  Zn
  Zn23     1.0000 0.64267  0.74448  0.68908  Biso   1.000  Zn
  Zn24     1.0000 0.85074  0.52786  0.58674  Biso   1.000  Zn
  H97      1.0000 0.03820  0.03930  0.54500  Biso   1.000  H
  H98      1.0000 0.13190  0.05900  0.50460  Biso   1.000  H
  H99      1.0000 0.89680  0.12670  0.47070  Biso   1.000  H
  H100     1.0000 0.80860  0.10380  0.51130  Biso   1.000  H
  H101     1.0000 0.34260  0.06490  0.46930  Biso   1.000  H
  H102     1.0000 0.49960  0.03600  0.46170  Biso   1.000  H
  H103     1.0000 0.50000  0.08640  0.38100  Biso   1.000  H
  H104     1.0000 0.34370  0.11580  0.38660  Biso   1.000  H
  H105     1.0000 0.15510  0.18150  0.36250  Biso   1.000  H
  H106     1.0000 0.06790  0.21800  0.32560  Biso   1.000  H
  H107     1.0000 0.81920  0.19010  0.36420  Biso   1.000  H
  H108     1.0000 0.89870  0.15400  0.40320  Biso   1.000  H
  H109     1.0000 0.08080  0.33500  0.77180  Biso   1.000  H
  H110     1.0000 0.01880  0.34630  0.72500  Biso   1.000  H
  H111     1.0000 0.96870  0.20380  0.72040  Biso   1.000  H
  H112     1.0000 0.02720  0.19680  0.76810  Biso   1.000  H
  H113     1.0000 0.92080  0.41480  0.67000  Biso   1.000  H
  H114     1.0000 0.89240  0.48760  0.64680  Biso   1.000  H
  H115     1.0000 0.88280  0.42470  0.57010  Biso   1.000  H
  H116     1.0000 0.90520  0.35000  0.59130  Biso   1.000  H
  H117     1.0000 0.87480  0.23490  0.58740  Biso   1.000  H
  H118     1.0000 0.84340  0.16490  0.56180  Biso   1.000  H
  H119     1.0000 0.91290  0.08580  0.62980  Biso   1.000  H
  H120     1.0000 0.94010  0.15370  0.65820  Biso   1.000  H
  H121     1.0000 0.96180  0.46070  0.04500  Biso   1.000  H
  H122     1.0000 0.86810  0.44100  0.00460  Biso   1.000  H
  H123     1.0000 0.10320  0.37330  0.97070  Biso   1.000  H
  H124     1.0000 0.19140  0.39620  0.01130  Biso   1.000  H
  H125     1.0000 0.65740  0.43510  0.96930  Biso   1.000  H
  H126     1.0000 0.50040  0.46400  0.96170  Biso   1.000  H
  H127     1.0000 0.50000  0.41360  0.88100  Biso   1.000  H
  H128     1.0000 0.65630  0.38420  0.88660  Biso   1.000  H
  H129     1.0000 0.84490  0.31850  0.86250  Biso   1.000  H
  H130     1.0000 0.93210  0.28200  0.82560  Biso   1.000  H
  H131     1.0000 0.18080  0.30990  0.86420  Biso   1.000  H
  H132     1.0000 0.10130  0.34600  0.90320  Biso   1.000  H
  H133     1.0000 0.91920  0.16500  0.27180  Biso   1.000  H
  H134     1.0000 0.98120  0.15370  0.22500  Biso   1.000  H
  H135     1.0000 0.03130  0.29620  0.22040  Biso   1.000  H
  H136     1.0000 0.97280  0.30320  0.26810  Biso   1.000  H
  H137     1.0000 0.07920  0.08520  0.17000  Biso   1.000  H
  H138     1.0000 0.10760  0.01240  0.14680  Biso   1.000  H
  H139     1.0000 0.11720  0.07530  0.07010  Biso   1.000  H
  H140     1.0000 0.09480  0.15000  0.09130  Biso   1.000  H
  H141     1.0000 0.12520  0.26510  0.08740  Biso   1.000  H
  H142     1.0000 0.15660  0.33510  0.06180  Biso   1.000  H
  H143     1.0000 0.08710  0.41420  0.12980  Biso   1.000  H
  H144     1.0000 0.05990  0.34630  0.15820  Biso   1.000  H
  H145     1.0000 0.53820  0.96070  0.95500  Biso   1.000  H
  H146     1.0000 0.63190  0.94100  0.99540  Biso   1.000  H
  H147     1.0000 0.39680  0.87330  0.02930  Biso   1.000  H
  H148     1.0000 0.30860  0.89620  0.98870  Biso   1.000  H
  H149     1.0000 0.84260  0.93510  0.03070  Biso   1.000  H
  H150     1.0000 0.99960  0.96400  0.03830  Biso   1.000  H
  H151     1.0000 0.00000  0.91360  0.11900  Biso   1.000  H
  H152     1.0000 0.84370  0.88420  0.11340  Biso   1.000  H
  H153     1.0000 0.65510  0.81850  0.13750  Biso   1.000  H
  H154     1.0000 0.56790  0.78200  0.17440  Biso   1.000  H
  H155     1.0000 0.31920  0.80990  0.13580  Biso   1.000  H
  H156     1.0000 0.39870  0.84600  0.09680  Biso   1.000  H
  H157     1.0000 0.58080  0.66500  0.72820  Biso   1.000  H
  H158     1.0000 0.51880  0.65370  0.77500  Biso   1.000  H
  H159     1.0000 0.46870  0.79620  0.77960  Biso   1.000  H
  H160     1.0000 0.52720  0.80320  0.73190  Biso   1.000  H
  H161     1.0000 0.42080  0.58520  0.83000  Biso   1.000  H
  H162     1.0000 0.39240  0.51240  0.85320  Biso   1.000  H
  H163     1.0000 0.38280  0.57530  0.92990  Biso   1.000  H
  H164     1.0000 0.40520  0.65000  0.90870  Biso   1.000  H
  H165     1.0000 0.37480  0.76510  0.91260  Biso   1.000  H
  H166     1.0000 0.34340  0.83510  0.93820  Biso   1.000  H
  H167     1.0000 0.41290  0.91420  0.87020  Biso   1.000  H
  H168     1.0000 0.44010  0.84630  0.84180  Biso   1.000  H
  H169     1.0000 0.46180  0.53930  0.45500  Biso   1.000  H
  H170     1.0000 0.36810  0.55900  0.49540  Biso   1.000  H
  H171     1.0000 0.60320  0.62670  0.52930  Biso   1.000  H
  H172     1.0000 0.69140  0.60380  0.48870  Biso   1.000  H
  H173     1.0000 0.15740  0.56490  0.53070  Biso   1.000  H
  H174     1.0000 0.00040  0.53600  0.53830  Biso   1.000  H
  H175     1.0000 0.00000  0.58640  0.61900  Biso   1.000  H
  H176     1.0000 0.15630  0.61580  0.61340  Biso   1.000  H
  H177     1.0000 0.34490  0.68150  0.63750  Biso   1.000  H
  H178     1.0000 0.43210  0.71800  0.67440  Biso   1.000  H
  H179     1.0000 0.68080  0.69010  0.63580  Biso   1.000  H
  H180     1.0000 0.60130  0.65400  0.59680  Biso   1.000  H
  H181     1.0000 0.41920  0.83500  0.22820  Biso   1.000  H
  H182     1.0000 0.48120  0.84630  0.27500  Biso   1.000  H
  H183     1.0000 0.53130  0.70380  0.27960  Biso   1.000  H
  H184     1.0000 0.47280  0.69680  0.23190  Biso   1.000  H
  H185     1.0000 0.57920  0.91480  0.33000  Biso   1.000  H
  H186     1.0000 0.60760  0.98760  0.35320  Biso   1.000  H
  H187     1.0000 0.61720  0.92470  0.42990  Biso   1.000  H
  H188     1.0000 0.59480  0.85000  0.40870  Biso   1.000  H
  H189     1.0000 0.62520  0.73490  0.41260  Biso   1.000  H
  H190     1.0000 0.65660  0.66490  0.43820  Biso   1.000  H
  H191     1.0000 0.58710  0.58580  0.37020  Biso   1.000  H
  H192     1.0000 0.55990  0.65370  0.34180  Biso   1.000  H
  C145     1.0000 0.00940  0.05740  0.52966  Biso   1.000  C
  C146     1.0000 0.06600  0.06950  0.50582  Biso   1.000  C
  C147     1.0000 0.02580  0.09670  0.48391  Biso   1.000  C
  C148     1.0000 0.92740  0.10910  0.48587  Biso   1.000  C
  C149     1.0000 0.87560  0.09530  0.51010  Biso   1.000  C
  C150     1.0000 0.08300  0.11040  0.45748  Biso   1.000  C
  C151     1.0000 0.22350  0.10950  0.43190  Biso   1.000  C
  C152     1.0000 0.08810  0.14240  0.41227  Biso   1.000  C
  C153     1.0000 0.32540  0.09340  0.42879  Biso   1.000  C
  C154     1.0000 0.37350  0.06950  0.45092  Biso   1.000  C
  C155     1.0000 0.46710  0.05210  0.44626  Biso   1.000  C
  C156     1.0000 0.46720  0.08160  0.39904  Biso   1.000  C
  C157     1.0000 0.37450  0.09940  0.40229  Biso   1.000  C
  C158     1.0000 0.03600  0.16500  0.38757  Biso   1.000  C
  C159     1.0000 0.08600  0.18350  0.36361  Biso   1.000  C
  C160     1.0000 0.03330  0.20480  0.34166  Biso   1.000  C
  C161     1.0000 0.88840  0.18880  0.36419  Biso   1.000  C
  C162     1.0000 0.93520  0.16710  0.38752  Biso   1.000  C
  C163     1.0000 0.05800  0.30800  0.76113  Biso   1.000  C
  C164     1.0000 0.02150  0.31500  0.73318  Biso   1.000  C
  C165     1.0000 0.98920  0.27620  0.71741  Biso   1.000  C
  C166     1.0000 0.99140  0.23130  0.73056  Biso   1.000  C
  C167     1.0000 0.02740  0.22740  0.75885  Biso   1.000  C
  C168     1.0000 0.95870  0.28090  0.68657  Biso   1.000  C
  C169     1.0000 0.92540  0.32660  0.64692  Biso   1.000  C
  C170     1.0000 0.92260  0.24580  0.64344  Biso   1.000  C
  C171     1.0000 0.91330  0.37430  0.63295  Biso   1.000  C
  C172     1.0000 0.91150  0.41590  0.64952  Biso   1.000  C
  C173     1.0000 0.89570  0.45920  0.63538  Biso   1.000  C
  C174     1.0000 0.88920  0.42260  0.59064  Biso   1.000  C
  C175     1.0000 0.90290  0.37790  0.60319  Biso   1.000  C
  C176     1.0000 0.90800  0.20200  0.62572  Biso   1.000  C
  C177     1.0000 0.88130  0.20460  0.59675  Biso   1.000  C
  C178     1.0000 0.86420  0.16280  0.58157  Biso   1.000  C
  C179     1.0000 0.90390  0.11650  0.62136  Biso   1.000  C
  C180     1.0000 0.92060  0.15670  0.63845  Biso   1.000  C
  C181     1.0000 0.99060  0.44260  0.02966  Biso   1.000  C
  C182     1.0000 0.93400  0.43050  0.00582  Biso   1.000  C
  C183     1.0000 0.97420  0.40330  0.98391  Biso   1.000  C
  C184     1.0000 0.07260  0.39090  0.98587  Biso   1.000  C
  C185     1.0000 0.12440  0.40470  0.01010  Biso   1.000  C
  C186     1.0000 0.91700  0.38960  0.95748  Biso   1.000  C
  C187     1.0000 0.77650  0.39050  0.93190  Biso   1.000  C
  C188     1.0000 0.91190  0.35760  0.91227  Biso   1.000  C
  C189     1.0000 0.67460  0.40660  0.92879  Biso   1.000  C
  C190     1.0000 0.62650  0.43050  0.95092  Biso   1.000  C
  C191     1.0000 0.53290  0.44790  0.94626  Biso   1.000  C
  C192     1.0000 0.53280  0.41840  0.89904  Biso   1.000  C
  C193     1.0000 0.62550  0.40060  0.90229  Biso   1.000  C
  C194     1.0000 0.96400  0.33500  0.88757  Biso   1.000  C
  C195     1.0000 0.91400  0.31650  0.86361  Biso   1.000  C
  C196     1.0000 0.96670  0.29520  0.84166  Biso   1.000  C
  C197     1.0000 0.11160  0.31120  0.86419  Biso   1.000  C
  C198     1.0000 0.06480  0.33290  0.88752  Biso   1.000  C
  C199     1.0000 0.94200  0.19200  0.26113  Biso   1.000  C
  C200     1.0000 0.97850  0.18500  0.23318  Biso   1.000  C
  C201     1.0000 0.01080  0.22380  0.21741  Biso   1.000  C
  C202     1.0000 0.00860  0.26870  0.23056  Biso   1.000  C
  C203     1.0000 0.97260  0.27260  0.25885  Biso   1.000  C
  C204     1.0000 0.04130  0.21910  0.18657  Biso   1.000  C
  C205     1.0000 0.07460  0.17340  0.14692  Biso   1.000  C
  C206     1.0000 0.07740  0.25420  0.14344  Biso   1.000  C
  C207     1.0000 0.08670  0.12570  0.13295  Biso   1.000  C
  C208     1.0000 0.08850  0.08410  0.14952  Biso   1.000  C
  C209     1.0000 0.10430  0.04080  0.13538  Biso   1.000  C
  C210     1.0000 0.11080  0.07740  0.09064  Biso   1.000  C
  C211     1.0000 0.09710  0.12210  0.10319  Biso   1.000  C
  C212     1.0000 0.09200  0.29800  0.12572  Biso   1.000  C
  C213     1.0000 0.11870  0.29540  0.09675  Biso   1.000  C
  C214     1.0000 0.13580  0.33720  0.08157  Biso   1.000  C
  C215     1.0000 0.09610  0.38350  0.12136  Biso   1.000  C
  C216     1.0000 0.07940  0.34330  0.13845  Biso   1.000  C
  C217     1.0000 0.50940  0.94260  0.97034  Biso   1.000  C
  C218     1.0000 0.56600  0.93050  0.99418  Biso   1.000  C
  C219     1.0000 0.52580  0.90330  0.01609  Biso   1.000  C
  C220     1.0000 0.42740  0.89090  0.01413  Biso   1.000  C
  C221     1.0000 0.37560  0.90470  0.98990  Biso   1.000  C
  C222     1.0000 0.58300  0.88960  0.04252  Biso   1.000  C
  C223     1.0000 0.72350  0.89050  0.06810  Biso   1.000  C
  C224     1.0000 0.58810  0.85760  0.08773  Biso   1.000  C
  C225     1.0000 0.82540  0.90660  0.07121  Biso   1.000  C
  C226     1.0000 0.87350  0.93050  0.04908  Biso   1.000  C
  C227     1.0000 0.96710  0.94790  0.05374  Biso   1.000  C
  C228     1.0000 0.96720  0.91840  0.10096  Biso   1.000  C
  C229     1.0000 0.87450  0.90060  0.09771  Biso   1.000  C
  C230     1.0000 0.53600  0.83500  0.11243  Biso   1.000  C
  C231     1.0000 0.58600  0.81650  0.13639  Biso   1.000  C
  C232     1.0000 0.53330  0.79520  0.15834  Biso   1.000  C
  C233     1.0000 0.38840  0.81120  0.13581  Biso   1.000  C
  C234     1.0000 0.43520  0.83290  0.11248  Biso   1.000  C
  C235     1.0000 0.55800  0.69200  0.73887  Biso   1.000  C
  C236     1.0000 0.52150  0.68500  0.76682  Biso   1.000  C
  C237     1.0000 0.48920  0.72380  0.78259  Biso   1.000  C
  C238     1.0000 0.49140  0.76870  0.76944  Biso   1.000  C
  C239     1.0000 0.52740  0.77260  0.74115  Biso   1.000  C
  C240     1.0000 0.45870  0.71910  0.81343  Biso   1.000  C
  C241     1.0000 0.42540  0.67340  0.85308  Biso   1.000  C
  C242     1.0000 0.42260  0.75420  0.85656  Biso   1.000  C
  C243     1.0000 0.41330  0.62570  0.86705  Biso   1.000  C
  C244     1.0000 0.41150  0.58410  0.85048  Biso   1.000  C
  C245     1.0000 0.39570  0.54080  0.86462  Biso   1.000  C
  C246     1.0000 0.38920  0.57740  0.90936  Biso   1.000  C
  C247     1.0000 0.40290  0.62210  0.89681  Biso   1.000  C
  C248     1.0000 0.40800  0.79800  0.87428  Biso   1.000  C
  C249     1.0000 0.38130  0.79540  0.90325  Biso   1.000  C
  C250     1.0000 0.36420  0.83720  0.91843  Biso   1.000  C
  C251     1.0000 0.40390  0.88350  0.87864  Biso   1.000  C
  C252     1.0000 0.42060  0.84330  0.86155  Biso   1.000  C
  C253     1.0000 0.49060  0.55740  0.47034  Biso   1.000  C
  C254     1.0000 0.43400  0.56950  0.49418  Biso   1.000  C
  C255     1.0000 0.47420  0.59670  0.51609  Biso   1.000  C
  C256     1.0000 0.57260  0.60910  0.51413  Biso   1.000  C
  C257     1.0000 0.62440  0.59530  0.48990  Biso   1.000  C
  C258     1.0000 0.41700  0.61040  0.54252  Biso   1.000  C
  C259     1.0000 0.27650  0.60950  0.56810  Biso   1.000  C
  C260     1.0000 0.41190  0.64240  0.58773  Biso   1.000  C
  C261     1.0000 0.17460  0.59340  0.57121  Biso   1.000  C
  C262     1.0000 0.12650  0.56950  0.54908  Biso   1.000  C
  C263     1.0000 0.03290  0.55210  0.55374  Biso   1.000  C
  C264     1.0000 0.03280  0.58160  0.60096  Biso   1.000  C
  C265     1.0000 0.12550  0.59940  0.59771  Biso   1.000  C
  C266     1.0000 0.46400  0.66500  0.61243  Biso   1.000  C
  C267     1.0000 0.41400  0.68350  0.63639  Biso   1.000  C
  C268     1.0000 0.46670  0.70480  0.65834  Biso   1.000  C
  C269     1.0000 0.61160  0.68880  0.63581  Biso   1.000  C
  C270     1.0000 0.56480  0.66710  0.61248  Biso   1.000  C
  C271     1.0000 0.44200  0.80800  0.23887  Biso   1.000  C
  C272     1.0000 0.47850  0.81500  0.26682  Biso   1.000  C
  C273     1.0000 0.51080  0.77620  0.28259  Biso   1.000  C
  C274     1.0000 0.50860  0.73130  0.26944  Biso   1.000  C
  C275     1.0000 0.47260  0.72740  0.24115  Biso   1.000  C
  C276     1.0000 0.54130  0.78090  0.31343  Biso   1.000  C
  C277     1.0000 0.57460  0.82660  0.35308  Biso   1.000  C
  C278     1.0000 0.57740  0.74580  0.35656  Biso   1.000  C
  C279     1.0000 0.58670  0.87430  0.36705  Biso   1.000  C
  C280     1.0000 0.58850  0.91590  0.35048  Biso   1.000  C
  C281     1.0000 0.60430  0.95920  0.36462  Biso   1.000  C
  C282     1.0000 0.61080  0.92260  0.40936  Biso   1.000  C
  C283     1.0000 0.59710  0.87790  0.39681  Biso   1.000  C
  C284     1.0000 0.59200  0.70200  0.37428  Biso   1.000  C
  C285     1.0000 0.61870  0.70460  0.40325  Biso   1.000  C
  C286     1.0000 0.63580  0.66280  0.41843  Biso   1.000  C
  C287     1.0000 0.59610  0.61650  0.37864  Biso   1.000  C
  C288     1.0000 0.57940  0.65670  0.36155  Biso   1.000  C
  I25      1.0000 0.91948  0.98923  0.59739  Biso   1.000  I
  I26      1.0000 0.65739  0.06761  0.55868  Biso   1.000  I
  I27      1.0000 0.69914  0.19728  0.30362  Biso   1.000  I
  I28      1.0000 0.84918  0.33341  0.32339  Biso   1.000  I
  I29      1.0000 0.73350  0.07733  0.37401  Biso   1.000  I
  I30      1.0000 0.72498  0.00996  0.46289  Biso   1.000  I
  I31      1.0000 0.08052  0.51077  0.09739  Biso   1.000  I
  I32      1.0000 0.34261  0.43239  0.05868  Biso   1.000  I
  I33      1.0000 0.30086  0.30272  0.80362  Biso   1.000  I
  I34      1.0000 0.15082  0.16659  0.82339  Biso   1.000  I
  I35      1.0000 0.26650  0.42267  0.87401  Biso   1.000  I
  I36      1.0000 0.27502  0.49004  0.96289  Biso   1.000  I
  I37      1.0000 0.41948  0.01077  0.90261  Biso   1.000  I
  I38      1.0000 0.15739  0.93239  0.94132  Biso   1.000  I
  I39      1.0000 0.19914  0.80272  0.19638  Biso   1.000  I
  I40      1.0000 0.34918  0.66659  0.17661  Biso   1.000  I
  I41      1.0000 0.23350  0.92267  0.12599  Biso   1.000  I
  I42      1.0000 0.22498  0.99004  0.03711  Biso   1.000  I
  I43      1.0000 0.58052  0.48923  0.40261  Biso   1.000  I
  I44      1.0000 0.84261  0.56761  0.44132  Biso   1.000  I
  I45      1.0000 0.80086  0.69728  0.69638  Biso   1.000  I
  I46      1.0000 0.65082  0.83341  0.67661  Biso   1.000  I
  I47      1.0000 0.76650  0.57733  0.62599  Biso   1.000  I
  I48      1.0000 0.77502  0.50996  0.53711  Biso   1.000  I
  N49      1.0000 0.91510  0.07030  0.53212  Biso   1.000  N
  N50      1.0000 0.17780  0.09830  0.45669  Biso   1.000  N
  N51      1.0000 0.18290  0.13216  0.40919  Biso   1.000  N
  N52      1.0000 0.03470  0.13240  0.43598  Biso   1.000  N
  N53      1.0000 0.51340  0.05740  0.42048  Biso   1.000  N
  N54      1.0000 0.93610  0.20780  0.34168  Biso   1.000  N
  N55      1.0000 0.06200  0.26480  0.77334  Biso   1.000  N
  N56      1.0000 0.94900  0.32536  0.67548  Biso   1.000  N
  N57      1.0000 0.91190  0.28809  0.63008  Biso   1.000  N
  N58      1.0000 0.94620  0.24006  0.67150  Biso   1.000  N
  N59      1.0000 0.88480  0.46296  0.60637  Biso   1.000  N
  N60      1.0000 0.87560  0.11910  0.59350  Biso   1.000  N
  N61      1.0000 0.08490  0.42970  0.03212  Biso   1.000  N
  N62      1.0000 0.82220  0.40170  0.95669  Biso   1.000  N
  N63      1.0000 0.81710  0.36784  0.90919  Biso   1.000  N
  N64      1.0000 0.96530  0.36760  0.93598  Biso   1.000  N
  N65      1.0000 0.48660  0.44260  0.92048  Biso   1.000  N
  N66      1.0000 0.06390  0.29220  0.84168  Biso   1.000  N
  N67      1.0000 0.93800  0.23520  0.27334  Biso   1.000  N
  N68      1.0000 0.05100  0.17464  0.17548  Biso   1.000  N
  N69      1.0000 0.08810  0.21191  0.13008  Biso   1.000  N
  N70      1.0000 0.05380  0.25994  0.17150  Biso   1.000  N
  N71      1.0000 0.11520  0.03704  0.10637  Biso   1.000  N
  N72      1.0000 0.12440  0.38090  0.09350  Biso   1.000  N
  N73      1.0000 0.41510  0.92970  0.96788  Biso   1.000  N
  N74      1.0000 0.67780  0.90170  0.04331  Biso   1.000  N
  N75      1.0000 0.68290  0.86784  0.09081  Biso   1.000  N
  N76      1.0000 0.53470  0.86760  0.06402  Biso   1.000  N
  N77      1.0000 0.01340  0.94260  0.07952  Biso   1.000  N
  N78      1.0000 0.43610  0.79220  0.15832  Biso   1.000  N
  N79      1.0000 0.56200  0.73520  0.72666  Biso   1.000  N
  N80      1.0000 0.44900  0.67464  0.82452  Biso   1.000  N
  N81      1.0000 0.41190  0.71191  0.86992  Biso   1.000  N
  N82      1.0000 0.44620  0.75994  0.82850  Biso   1.000  N
  N83      1.0000 0.38480  0.53704  0.89363  Biso   1.000  N
  N84      1.0000 0.37560  0.88090  0.90650  Biso   1.000  N
  N85      1.0000 0.58490  0.57030  0.46788  Biso   1.000  N
  N86      1.0000 0.32220  0.59830  0.54331  Biso   1.000  N
  N87      1.0000 0.31710  0.63216  0.59081  Biso   1.000  N
  N88      1.0000 0.46530  0.63240  0.56402  Biso   1.000  N
  N89      1.0000 0.98660  0.55740  0.57952  Biso   1.000  N
  N90      1.0000 0.56390  0.70780  0.65832  Biso   1.000  N
  N91      1.0000 0.43800  0.76480  0.22666  Biso   1.000  N
  N92      1.0000 0.55100  0.82536  0.32452  Biso   1.000  N
  N93      1.0000 0.58810  0.78809  0.36992  Biso   1.000  N
  N94      1.0000 0.55380  0.74006  0.32850  Biso   1.000  N
  N95      1.0000 0.61520  0.96296  0.39363  Biso   1.000  N
  N96      1.0000 0.62440  0.61910  0.40650  Biso   1.000  N
