data_image0
_cell_length_a       30.0053
_cell_length_b       30.0053
_cell_length_c       30.0053
_cell_angle_alpha    109.471
_cell_angle_beta     109.471
_cell_angle_gamma    109.471

_symmetry_space_group_name_H-M    P 1
_symmetry_int_tables_number       1

loop_
  _symmetry_equiv_pos_as_xyz
  'x, y, z'

loop_
  _atom_site_label
  _atom_site_occupancy
  _atom_site_fract_x
  _atom_site_fract_y
  _atom_site_fract_z
  _atom_site_thermal_displace_type
  _atom_site_B_iso_or_equiv
  _atom_site_type_symbol
  Zn1      1.0000 0.91607  0.05626  0.63803  Biso   1.000  Zn
  Zn2      1.0000 0.91823  0.27804  0.86197  Biso   1.000  Zn
  Zn3      1.0000 0.58177  0.44374  0.35981  Biso   1.000  Zn
  Zn4      1.0000 0.58393  0.22196  0.14019  Biso   1.000  Zn
  Zn5      1.0000 0.85981  0.58177  0.94374  Biso   1.000  Zn
  Zn6      1.0000 0.64019  0.58393  0.72196  Biso   1.000  Zn
  Zn7      1.0000 0.13803  0.91607  0.55626  Biso   1.000  Zn
  Zn8      1.0000 0.36197  0.91823  0.77804  Biso   1.000  Zn
  Zn9      1.0000 0.27804  0.36197  0.41823  Biso   1.000  Zn
  Zn10     1.0000 0.05626  0.13803  0.41607  Biso   1.000  Zn
  Zn11     1.0000 0.22196  0.64019  0.08393  Biso   1.000  Zn
  Zn12     1.0000 0.44374  0.85981  0.08177  Biso   1.000  Zn
  Zn13     1.0000 0.44374  0.58393  0.86197  Biso   1.000  Zn
  Zn14     1.0000 0.22196  0.58177  0.63803  Biso   1.000  Zn
  Zn15     1.0000 0.05626  0.91823  0.14019  Biso   1.000  Zn
  Zn16     1.0000 0.27804  0.91607  0.35981  Biso   1.000  Zn
  Zn17     1.0000 0.91823  0.64019  0.55626  Biso   1.000  Zn
  Zn18     1.0000 0.91607  0.85981  0.77804  Biso   1.000  Zn
  Zn19     1.0000 0.58393  0.36197  0.94374  Biso   1.000  Zn
  Zn20     1.0000 0.58177  0.13803  0.72196  Biso   1.000  Zn
  Zn21     1.0000 0.13803  0.22196  0.08177  Biso   1.000  Zn
  Zn22     1.0000 0.36197  0.44374  0.08393  Biso   1.000  Zn
  Zn23     1.0000 0.85981  0.27804  0.41607  Biso   1.000  Zn
  Zn24     1.0000 0.64019  0.05626  0.41823  Biso   1.000  Zn
  Zn25     1.0000 0.08393  0.94374  0.36197  Biso   1.000  Zn
  Zn26     1.0000 0.08177  0.72196  0.13803  Biso   1.000  Zn
  Zn27     1.0000 0.41823  0.55626  0.64019  Biso   1.000  Zn
  Zn28     1.0000 0.41607  0.77804  0.85981  Biso   1.000  Zn
  Zn29     1.0000 0.14019  0.41823  0.05626  Biso   1.000  Zn
  Zn30     1.0000 0.35981  0.41607  0.27804  Biso   1.000  Zn
  Zn31     1.0000 0.86197  0.08393  0.44374  Biso   1.000  Zn
  Zn32     1.0000 0.63803  0.08177  0.22196  Biso   1.000  Zn
  Zn33     1.0000 0.72196  0.63803  0.58177  Biso   1.000  Zn
  Zn34     1.0000 0.94374  0.86197  0.58393  Biso   1.000  Zn
  Zn35     1.0000 0.77804  0.35981  0.91607  Biso   1.000  Zn
  Zn36     1.0000 0.55626  0.14019  0.91823  Biso   1.000  Zn
  Zn37     1.0000 0.55626  0.41607  0.13803  Biso   1.000  Zn
  Zn38     1.0000 0.77804  0.41823  0.36197  Biso   1.000  Zn
  Zn39     1.0000 0.94374  0.08177  0.85981  Biso   1.000  Zn
  Zn40     1.0000 0.72196  0.08393  0.64019  Biso   1.000  Zn
  Zn41     1.0000 0.08177  0.35981  0.44374  Biso   1.000  Zn
  Zn42     1.0000 0.08393  0.14019  0.22196  Biso   1.000  Zn
  Zn43     1.0000 0.41607  0.63803  0.05626  Biso   1.000  Zn
  Zn44     1.0000 0.41823  0.86197  0.27804  Biso   1.000  Zn
  Zn45     1.0000 0.86197  0.77804  0.91823  Biso   1.000  Zn
  Zn46     1.0000 0.63803  0.55626  0.91607  Biso   1.000  Zn
  Zn47     1.0000 0.14019  0.72196  0.58393  Biso   1.000  Zn
  Zn48     1.0000 0.35981  0.94374  0.58177  Biso   1.000  Zn
  H1       1.0000 0.85640  0.07990  0.54550  Biso   1.000  H
  H2       1.0000 0.98510  0.12130  0.53000  Biso   1.000  H
  H3       1.0000 0.88740  0.05910  0.73490  Biso   1.000  H
  H4       1.0000 0.03580  0.09750  0.82450  Biso   1.000  H
  H5       1.0000 0.05050  0.12320  0.60430  Biso   1.000  H
  H6       1.0000 0.06990  0.12300  0.74610  Biso   1.000  H
  H7       1.0000 0.03440  0.31090  0.95450  Biso   1.000  H
  H8       1.0000 0.09130  0.45510  0.97000  Biso   1.000  H
  H9       1.0000 0.82420  0.15250  0.76510  Biso   1.000  H
  H10      1.0000 0.77300  0.21130  0.67550  Biso   1.000  H
  H11      1.0000 0.01890  0.44620  0.89570  Biso   1.000  H
  H12      1.0000 0.87690  0.32380  0.75390  Biso   1.000  H
  H13      1.0000 0.46560  0.42010  0.27650  Biso   1.000  H
  H14      1.0000 0.40870  0.37870  0.36380  Biso   1.000  H
  H15      1.0000 0.67580  0.44090  0.32830  Biso   1.000  H
  H16      1.0000 0.72700  0.40250  0.43830  Biso   1.000  H
  H17      1.0000 0.48110  0.37680  0.42730  Biso   1.000  H
  H18      1.0000 0.62310  0.37700  0.44690  Biso   1.000  H
  H19      1.0000 0.64360  0.18910  0.22350  Biso   1.000  H
  H20      1.0000 0.51490  0.04490  0.13620  Biso   1.000  H
  H21      1.0000 0.61260  0.34750  0.17170  Biso   1.000  H
  H22      1.0000 0.46420  0.28870  0.06170  Biso   1.000  H
  H23      1.0000 0.44950  0.05380  0.07270  Biso   1.000  H
  H24      1.0000 0.43010  0.17620  0.05310  Biso   1.000  H
  H25      1.0000 0.77650  0.46560  0.92010  Biso   1.000  H
  H26      1.0000 0.86380  0.40870  0.87870  Biso   1.000  H
  H27      1.0000 0.82830  0.67580  0.94090  Biso   1.000  H
  H28      1.0000 0.93830  0.72700  0.90250  Biso   1.000  H
  H29      1.0000 0.92730  0.48110  0.87680  Biso   1.000  H
  H30      1.0000 0.94690  0.62310  0.87700  Biso   1.000  H
  H31      1.0000 0.72350  0.64360  0.68910  Biso   1.000  H
  H32      1.0000 0.63620  0.51490  0.54490  Biso   1.000  H
  H33      1.0000 0.67170  0.61260  0.84750  Biso   1.000  H
  H34      1.0000 0.56170  0.46420  0.78870  Biso   1.000  H
  H35      1.0000 0.57270  0.44950  0.55380  Biso   1.000  H
  H36      1.0000 0.55310  0.43010  0.67620  Biso   1.000  H
  H37      1.0000 0.04550  0.85640  0.57990  Biso   1.000  H
  H38      1.0000 0.03000  0.98510  0.62130  Biso   1.000  H
  H39      1.0000 0.23490  0.88740  0.55910  Biso   1.000  H
  H40      1.0000 0.32450  0.03580  0.59750  Biso   1.000  H
  H41      1.0000 0.10430  0.05050  0.62320  Biso   1.000  H
  H42      1.0000 0.24610  0.06990  0.62300  Biso   1.000  H
  H43      1.0000 0.45450  0.03440  0.81090  Biso   1.000  H
  H44      1.0000 0.47000  0.09130  0.95510  Biso   1.000  H
  H45      1.0000 0.26510  0.82420  0.65250  Biso   1.000  H
  H46      1.0000 0.17550  0.77300  0.71130  Biso   1.000  H
  H47      1.0000 0.39570  0.01890  0.94620  Biso   1.000  H
  H48      1.0000 0.25390  0.87690  0.82380  Biso   1.000  H
  H49      1.0000 0.31090  0.45450  0.53440  Biso   1.000  H
  H50      1.0000 0.45510  0.47000  0.59130  Biso   1.000  H
  H51      1.0000 0.15250  0.26510  0.32420  Biso   1.000  H
  H52      1.0000 0.21130  0.17550  0.27300  Biso   1.000  H
  H53      1.0000 0.44620  0.39570  0.51890  Biso   1.000  H
  H54      1.0000 0.32380  0.25390  0.37690  Biso   1.000  H
  H55      1.0000 0.07990  0.04550  0.35640  Biso   1.000  H
  H56      1.0000 0.12130  0.03000  0.48510  Biso   1.000  H
  H57      1.0000 0.05910  0.23490  0.38740  Biso   1.000  H
  H58      1.0000 0.09750  0.32450  0.53580  Biso   1.000  H
  H59      1.0000 0.12320  0.10430  0.55050  Biso   1.000  H
  H60      1.0000 0.12300  0.24610  0.56990  Biso   1.000  H
  H61      1.0000 0.18910  0.72350  0.14360  Biso   1.000  H
  H62      1.0000 0.04490  0.63620  0.01490  Biso   1.000  H
  H63      1.0000 0.34750  0.67170  0.11260  Biso   1.000  H
  H64      1.0000 0.28870  0.56170  0.96420  Biso   1.000  H
  H65      1.0000 0.05380  0.57270  0.94950  Biso   1.000  H
  H66      1.0000 0.17620  0.55310  0.93010  Biso   1.000  H
  H67      1.0000 0.42010  0.77650  0.96560  Biso   1.000  H
  H68      1.0000 0.37870  0.86380  0.90870  Biso   1.000  H
  H69      1.0000 0.44090  0.82830  0.17580  Biso   1.000  H
  H70      1.0000 0.40250  0.93830  0.22700  Biso   1.000  H
  H71      1.0000 0.37680  0.92730  0.98110  Biso   1.000  H
  H72      1.0000 0.37700  0.94690  0.12310  Biso   1.000  H
  H73      1.0000 0.42010  0.64360  0.95450  Biso   1.000  H
  H74      1.0000 0.37870  0.51490  0.97000  Biso   1.000  H
  H75      1.0000 0.44090  0.61260  0.76510  Biso   1.000  H
  H76      1.0000 0.40250  0.46420  0.67550  Biso   1.000  H
  H77      1.0000 0.37680  0.44950  0.89570  Biso   1.000  H
  H78      1.0000 0.37700  0.43010  0.75390  Biso   1.000  H
  H79      1.0000 0.18910  0.46560  0.54550  Biso   1.000  H
  H80      1.0000 0.04490  0.40870  0.53000  Biso   1.000  H
  H81      1.0000 0.34750  0.67580  0.73490  Biso   1.000  H
  H82      1.0000 0.28870  0.72700  0.82450  Biso   1.000  H
  H83      1.0000 0.05380  0.48110  0.60430  Biso   1.000  H
  H84      1.0000 0.17620  0.62310  0.74610  Biso   1.000  H
  H85      1.0000 0.07990  0.03440  0.22350  Biso   1.000  H
  H86      1.0000 0.12130  0.09130  0.13620  Biso   1.000  H
  H87      1.0000 0.05910  0.82420  0.17170  Biso   1.000  H
  H88      1.0000 0.09750  0.77300  0.06170  Biso   1.000  H
  H89      1.0000 0.12320  0.01890  0.07270  Biso   1.000  H
  H90      1.0000 0.12300  0.87690  0.05310  Biso   1.000  H
  H91      1.0000 0.31090  0.85640  0.27650  Biso   1.000  H
  H92      1.0000 0.45510  0.98510  0.36380  Biso   1.000  H
  H93      1.0000 0.15250  0.88740  0.32830  Biso   1.000  H
  H94      1.0000 0.21130  0.03580  0.43830  Biso   1.000  H
  H95      1.0000 0.44620  0.05050  0.42730  Biso   1.000  H
  H96      1.0000 0.32380  0.06990  0.44690  Biso   1.000  H
  H97      1.0000 0.03440  0.72350  0.57990  Biso   1.000  H
  H98      1.0000 0.09130  0.63620  0.62130  Biso   1.000  H
  H99      1.0000 0.82420  0.67170  0.55910  Biso   1.000  H
  H100     1.0000 0.77300  0.56170  0.59750  Biso   1.000  H
  H101     1.0000 0.01890  0.57270  0.62320  Biso   1.000  H
  H102     1.0000 0.87690  0.55310  0.62300  Biso   1.000  H
  H103     1.0000 0.85640  0.77650  0.81090  Biso   1.000  H
  H104     1.0000 0.98510  0.86380  0.95510  Biso   1.000  H
  H105     1.0000 0.88740  0.82830  0.65250  Biso   1.000  H
  H106     1.0000 0.03580  0.93830  0.71130  Biso   1.000  H
  H107     1.0000 0.05050  0.92730  0.94620  Biso   1.000  H
  H108     1.0000 0.06990  0.94690  0.82380  Biso   1.000  H
  H109     1.0000 0.64360  0.45450  0.92010  Biso   1.000  H
  H110     1.0000 0.51490  0.47000  0.87870  Biso   1.000  H
  H111     1.0000 0.61260  0.26510  0.94090  Biso   1.000  H
  H112     1.0000 0.46420  0.17550  0.90250  Biso   1.000  H
  H113     1.0000 0.44950  0.39570  0.87680  Biso   1.000  H
  H114     1.0000 0.43010  0.25390  0.87700  Biso   1.000  H
  H115     1.0000 0.46560  0.04550  0.68910  Biso   1.000  H
  H116     1.0000 0.40870  0.03000  0.54490  Biso   1.000  H
  H117     1.0000 0.67580  0.23490  0.84750  Biso   1.000  H
  H118     1.0000 0.72700  0.32450  0.78870  Biso   1.000  H
  H119     1.0000 0.48110  0.10430  0.55380  Biso   1.000  H
  H120     1.0000 0.62310  0.24610  0.67620  Biso   1.000  H
  H121     1.0000 0.04550  0.18910  0.96560  Biso   1.000  H
  H122     1.0000 0.03000  0.04490  0.90870  Biso   1.000  H
  H123     1.0000 0.23490  0.34750  0.17580  Biso   1.000  H
  H124     1.0000 0.32450  0.28870  0.22700  Biso   1.000  H
  H125     1.0000 0.10430  0.05380  0.98110  Biso   1.000  H
  H126     1.0000 0.24610  0.17620  0.12310  Biso   1.000  H
  H127     1.0000 0.45450  0.42010  0.14360  Biso   1.000  H
  H128     1.0000 0.47000  0.37870  0.01490  Biso   1.000  H
  H129     1.0000 0.26510  0.44090  0.11260  Biso   1.000  H
  H130     1.0000 0.17550  0.40250  0.96420  Biso   1.000  H
  H131     1.0000 0.39570  0.37680  0.94950  Biso   1.000  H
  H132     1.0000 0.25390  0.37700  0.93010  Biso   1.000  H
  H133     1.0000 0.77650  0.31090  0.35640  Biso   1.000  H
  H134     1.0000 0.86380  0.45510  0.48510  Biso   1.000  H
  H135     1.0000 0.82830  0.15250  0.38740  Biso   1.000  H
  H136     1.0000 0.93830  0.21130  0.53580  Biso   1.000  H
  H137     1.0000 0.92730  0.44620  0.55050  Biso   1.000  H
  H138     1.0000 0.94690  0.32380  0.56990  Biso   1.000  H
  H139     1.0000 0.72350  0.07990  0.53440  Biso   1.000  H
  H140     1.0000 0.63620  0.12130  0.59130  Biso   1.000  H
  H141     1.0000 0.67170  0.05910  0.32420  Biso   1.000  H
  H142     1.0000 0.56170  0.09750  0.27300  Biso   1.000  H
  H143     1.0000 0.57270  0.12320  0.51890  Biso   1.000  H
  H144     1.0000 0.55310  0.12300  0.37690  Biso   1.000  H
  H145     1.0000 0.14360  0.92010  0.45450  Biso   1.000  H
  H146     1.0000 0.01490  0.87870  0.47000  Biso   1.000  H
  H147     1.0000 0.11260  0.94090  0.26510  Biso   1.000  H
  H148     1.0000 0.96420  0.90250  0.17550  Biso   1.000  H
  H149     1.0000 0.94950  0.87680  0.39570  Biso   1.000  H
  H150     1.0000 0.93010  0.87700  0.25390  Biso   1.000  H
  H151     1.0000 0.96560  0.68910  0.04550  Biso   1.000  H
  H152     1.0000 0.90870  0.54490  0.03000  Biso   1.000  H
  H153     1.0000 0.17580  0.84750  0.23490  Biso   1.000  H
  H154     1.0000 0.22700  0.78870  0.32450  Biso   1.000  H
  H155     1.0000 0.98110  0.55380  0.10430  Biso   1.000  H
  H156     1.0000 0.12310  0.67620  0.24610  Biso   1.000  H
  H157     1.0000 0.53440  0.57990  0.72350  Biso   1.000  H
  H158     1.0000 0.59130  0.62130  0.63620  Biso   1.000  H
  H159     1.0000 0.32420  0.55910  0.67170  Biso   1.000  H
  H160     1.0000 0.27300  0.59750  0.56170  Biso   1.000  H
  H161     1.0000 0.51890  0.62320  0.57270  Biso   1.000  H
  H162     1.0000 0.37690  0.62300  0.55310  Biso   1.000  H
  H163     1.0000 0.35640  0.81090  0.77650  Biso   1.000  H
  H164     1.0000 0.48510  0.95510  0.86380  Biso   1.000  H
  H165     1.0000 0.38740  0.65250  0.82830  Biso   1.000  H
  H166     1.0000 0.53580  0.71130  0.93830  Biso   1.000  H
  H167     1.0000 0.55050  0.94620  0.92730  Biso   1.000  H
  H168     1.0000 0.56990  0.82380  0.94690  Biso   1.000  H
  H169     1.0000 0.22350  0.53440  0.07990  Biso   1.000  H
  H170     1.0000 0.13620  0.59130  0.12130  Biso   1.000  H
  H171     1.0000 0.17170  0.32420  0.05910  Biso   1.000  H
  H172     1.0000 0.06170  0.27300  0.09750  Biso   1.000  H
  H173     1.0000 0.07270  0.51890  0.12320  Biso   1.000  H
  H174     1.0000 0.05310  0.37690  0.12300  Biso   1.000  H
  H175     1.0000 0.27650  0.35640  0.31090  Biso   1.000  H
  H176     1.0000 0.36380  0.48510  0.45510  Biso   1.000  H
  H177     1.0000 0.32830  0.38740  0.15250  Biso   1.000  H
  H178     1.0000 0.43830  0.53580  0.21130  Biso   1.000  H
  H179     1.0000 0.42730  0.55050  0.44620  Biso   1.000  H
  H180     1.0000 0.44690  0.56990  0.32380  Biso   1.000  H
  H181     1.0000 0.95450  0.14360  0.42010  Biso   1.000  H
  H182     1.0000 0.97000  0.01490  0.37870  Biso   1.000  H
  H183     1.0000 0.76510  0.11260  0.44090  Biso   1.000  H
  H184     1.0000 0.67550  0.96420  0.40250  Biso   1.000  H
  H185     1.0000 0.89570  0.94950  0.37680  Biso   1.000  H
  H186     1.0000 0.75390  0.93010  0.37700  Biso   1.000  H
  H187     1.0000 0.54550  0.96560  0.18910  Biso   1.000  H
  H188     1.0000 0.53000  0.90870  0.04490  Biso   1.000  H
  H189     1.0000 0.73490  0.17580  0.34750  Biso   1.000  H
  H190     1.0000 0.82450  0.22700  0.28870  Biso   1.000  H
  H191     1.0000 0.60430  0.98110  0.05380  Biso   1.000  H
  H192     1.0000 0.74610  0.12310  0.17620  Biso   1.000  H
  H193     1.0000 0.68910  0.54550  0.46560  Biso   1.000  H
  H194     1.0000 0.54490  0.53000  0.40870  Biso   1.000  H
  H195     1.0000 0.84750  0.73490  0.67580  Biso   1.000  H
  H196     1.0000 0.78870  0.82450  0.72700  Biso   1.000  H
  H197     1.0000 0.55380  0.60430  0.48110  Biso   1.000  H
  H198     1.0000 0.67620  0.74610  0.62310  Biso   1.000  H
  H199     1.0000 0.92010  0.95450  0.64360  Biso   1.000  H
  H200     1.0000 0.87870  0.97000  0.51490  Biso   1.000  H
  H201     1.0000 0.94090  0.76510  0.61260  Biso   1.000  H
  H202     1.0000 0.90250  0.67550  0.46420  Biso   1.000  H
  H203     1.0000 0.87680  0.89570  0.44950  Biso   1.000  H
  H204     1.0000 0.87700  0.75390  0.43010  Biso   1.000  H
  H205     1.0000 0.81090  0.27650  0.85640  Biso   1.000  H
  H206     1.0000 0.95510  0.36380  0.98510  Biso   1.000  H
  H207     1.0000 0.65250  0.32830  0.88740  Biso   1.000  H
  H208     1.0000 0.71130  0.43830  0.03580  Biso   1.000  H
  H209     1.0000 0.94620  0.42730  0.05050  Biso   1.000  H
  H210     1.0000 0.82380  0.44690  0.06990  Biso   1.000  H
  H211     1.0000 0.57990  0.22350  0.03440  Biso   1.000  H
  H212     1.0000 0.62130  0.13620  0.09130  Biso   1.000  H
  H213     1.0000 0.55910  0.17170  0.82420  Biso   1.000  H
  H214     1.0000 0.59750  0.06170  0.77300  Biso   1.000  H
  H215     1.0000 0.62320  0.07270  0.01890  Biso   1.000  H
  H216     1.0000 0.62300  0.05310  0.87690  Biso   1.000  H
  H217     1.0000 0.57990  0.35640  0.04550  Biso   1.000  H
  H218     1.0000 0.62130  0.48510  0.03000  Biso   1.000  H
  H219     1.0000 0.55910  0.38740  0.23490  Biso   1.000  H
  H220     1.0000 0.59750  0.53580  0.32450  Biso   1.000  H
  H221     1.0000 0.62320  0.55050  0.10430  Biso   1.000  H
  H222     1.0000 0.62300  0.56990  0.24610  Biso   1.000  H
  H223     1.0000 0.81090  0.53440  0.45450  Biso   1.000  H
  H224     1.0000 0.95510  0.59130  0.47000  Biso   1.000  H
  H225     1.0000 0.65250  0.32420  0.26510  Biso   1.000  H
  H226     1.0000 0.71130  0.27300  0.17550  Biso   1.000  H
  H227     1.0000 0.94620  0.51890  0.39570  Biso   1.000  H
  H228     1.0000 0.82380  0.37690  0.25390  Biso   1.000  H
  H229     1.0000 0.92010  0.96560  0.77650  Biso   1.000  H
  H230     1.0000 0.87870  0.90870  0.86380  Biso   1.000  H
  H231     1.0000 0.94090  0.17580  0.82830  Biso   1.000  H
  H232     1.0000 0.90250  0.22700  0.93830  Biso   1.000  H
  H233     1.0000 0.87680  0.98110  0.92730  Biso   1.000  H
  H234     1.0000 0.87700  0.12310  0.94690  Biso   1.000  H
  H235     1.0000 0.68910  0.14360  0.72350  Biso   1.000  H
  H236     1.0000 0.54490  0.01490  0.63620  Biso   1.000  H
  H237     1.0000 0.84750  0.11260  0.67170  Biso   1.000  H
  H238     1.0000 0.78870  0.96420  0.56170  Biso   1.000  H
  H239     1.0000 0.55380  0.94950  0.57270  Biso   1.000  H
  H240     1.0000 0.67620  0.93010  0.55310  Biso   1.000  H
  H241     1.0000 0.96560  0.27650  0.42010  Biso   1.000  H
  H242     1.0000 0.90870  0.36380  0.37870  Biso   1.000  H
  H243     1.0000 0.17580  0.32830  0.44090  Biso   1.000  H
  H244     1.0000 0.22700  0.43830  0.40250  Biso   1.000  H
  H245     1.0000 0.98110  0.42730  0.37680  Biso   1.000  H
  H246     1.0000 0.12310  0.44690  0.37700  Biso   1.000  H
  H247     1.0000 0.14360  0.22350  0.18910  Biso   1.000  H
  H248     1.0000 0.01490  0.13620  0.04490  Biso   1.000  H
  H249     1.0000 0.11260  0.17170  0.34750  Biso   1.000  H
  H250     1.0000 0.96420  0.06170  0.28870  Biso   1.000  H
  H251     1.0000 0.94950  0.07270  0.05380  Biso   1.000  H
  H252     1.0000 0.93010  0.05310  0.17620  Biso   1.000  H
  H253     1.0000 0.35640  0.54550  0.07990  Biso   1.000  H
  H254     1.0000 0.48510  0.53000  0.12130  Biso   1.000  H
  H255     1.0000 0.38740  0.73490  0.05910  Biso   1.000  H
  H256     1.0000 0.53580  0.82450  0.09750  Biso   1.000  H
  H257     1.0000 0.55050  0.60430  0.12320  Biso   1.000  H
  H258     1.0000 0.56990  0.74610  0.12300  Biso   1.000  H
  H259     1.0000 0.53440  0.95450  0.31090  Biso   1.000  H
  H260     1.0000 0.59130  0.97000  0.45510  Biso   1.000  H
  H261     1.0000 0.32420  0.76510  0.15250  Biso   1.000  H
  H262     1.0000 0.27300  0.67550  0.21130  Biso   1.000  H
  H263     1.0000 0.51890  0.89570  0.44620  Biso   1.000  H
  H264     1.0000 0.37690  0.75390  0.32380  Biso   1.000  H
  H265     1.0000 0.95450  0.81090  0.03440  Biso   1.000  H
  H266     1.0000 0.97000  0.95510  0.09130  Biso   1.000  H
  H267     1.0000 0.76510  0.65250  0.82420  Biso   1.000  H
  H268     1.0000 0.67550  0.71130  0.77300  Biso   1.000  H
  H269     1.0000 0.89570  0.94620  0.01890  Biso   1.000  H
  H270     1.0000 0.75390  0.82380  0.87690  Biso   1.000  H
  H271     1.0000 0.54550  0.57990  0.85640  Biso   1.000  H
  H272     1.0000 0.53000  0.62130  0.98510  Biso   1.000  H
  H273     1.0000 0.73490  0.55910  0.88740  Biso   1.000  H
  H274     1.0000 0.82450  0.59750  0.03580  Biso   1.000  H
  H275     1.0000 0.60430  0.62320  0.05050  Biso   1.000  H
  H276     1.0000 0.74610  0.62300  0.06990  Biso   1.000  H
  H277     1.0000 0.22350  0.68910  0.64360  Biso   1.000  H
  H278     1.0000 0.13620  0.54490  0.51490  Biso   1.000  H
  H279     1.0000 0.17170  0.84750  0.61260  Biso   1.000  H
  H280     1.0000 0.06170  0.78870  0.46420  Biso   1.000  H
  H281     1.0000 0.07270  0.55380  0.44950  Biso   1.000  H
  H282     1.0000 0.05310  0.67620  0.43010  Biso   1.000  H
  H283     1.0000 0.27650  0.92010  0.46560  Biso   1.000  H
  H284     1.0000 0.36380  0.87870  0.40870  Biso   1.000  H
  H285     1.0000 0.32830  0.94090  0.67580  Biso   1.000  H
  H286     1.0000 0.43830  0.90250  0.72700  Biso   1.000  H
  H287     1.0000 0.42730  0.87680  0.48110  Biso   1.000  H
  H288     1.0000 0.44690  0.87700  0.62310  Biso   1.000  H
  C1       1.0000 0.97411  0.10658  0.58801  Biso   1.000  C
  C2       1.0000 0.89171  0.08923  0.55204  Biso   1.000  C
  C3       1.0000 0.96138  0.11171  0.54301  Biso   1.000  C
  C4       1.0000 0.92370  0.06822  0.74666  Biso   1.000  C
  C5       1.0000 0.00391  0.08875  0.79552  Biso   1.000  C
  C6       1.0000 0.99901  0.08540  0.74739  Biso   1.000  C
  C7       1.0000 0.02720  0.11270  0.61750  Biso   1.000  C
  C8       1.0000 0.03210  0.10330  0.72440  Biso   1.000  C
  C9       1.0000 0.01857  0.38610  0.91199  Biso   1.000  C
  C10      1.0000 0.03719  0.33967  0.94796  Biso   1.000  C
  C11      1.0000 0.06870  0.41837  0.95699  Biso   1.000  C
  C12      1.0000 0.82156  0.17704  0.75334  Biso   1.000  C
  C13      1.0000 0.79323  0.20839  0.70448  Biso   1.000  C
  C14      1.0000 0.83801  0.25162  0.75261  Biso   1.000  C
  C15      1.0000 0.99520  0.40970  0.88250  Biso   1.000  C
  C16      1.0000 0.87890  0.30770  0.77560  Biso   1.000  C
  C17      1.0000 0.48143  0.39342  0.36753  Biso   1.000  C
  C18      1.0000 0.46281  0.41077  0.30248  Biso   1.000  C
  C19      1.0000 0.43130  0.38829  0.34967  Biso   1.000  C
  C20      1.0000 0.67844  0.43178  0.35548  Biso   1.000  C
  C21      1.0000 0.70677  0.41125  0.41516  Biso   1.000  C
  C22      1.0000 0.66199  0.41460  0.41361  Biso   1.000  C
  C23      1.0000 0.50480  0.38730  0.41450  Biso   1.000  C
  C24      1.0000 0.62110  0.39670  0.42880  Biso   1.000  C
  C25      1.0000 0.52589  0.11390  0.13247  Biso   1.000  C
  C26      1.0000 0.60829  0.16033  0.19752  Biso   1.000  C
  C27      1.0000 0.53862  0.08163  0.15033  Biso   1.000  C
  C28      1.0000 0.57630  0.32296  0.14452  Biso   1.000  C
  C29      1.0000 0.49609  0.29161  0.08484  Biso   1.000  C
  C30      1.0000 0.50099  0.24838  0.08639  Biso   1.000  C
  C31      1.0000 0.47280  0.09030  0.08550  Biso   1.000  C
  C32      1.0000 0.46790  0.19230  0.07120  Biso   1.000  C
  C33      1.0000 0.86753  0.48143  0.89342  Biso   1.000  C
  C34      1.0000 0.80248  0.46281  0.91077  Biso   1.000  C
  C35      1.0000 0.84967  0.43130  0.88829  Biso   1.000  C
  C36      1.0000 0.85548  0.67844  0.93178  Biso   1.000  C
  C37      1.0000 0.91516  0.70677  0.91125  Biso   1.000  C
  C38      1.0000 0.91361  0.66199  0.91460  Biso   1.000  C
  C39      1.0000 0.91450  0.50480  0.88730  Biso   1.000  C
  C40      1.0000 0.92880  0.62110  0.89670  Biso   1.000  C
  C41      1.0000 0.63247  0.52589  0.61390  Biso   1.000  C
  C42      1.0000 0.69752  0.60829  0.66033  Biso   1.000  C
  C43      1.0000 0.65033  0.53862  0.58163  Biso   1.000  C
  C44      1.0000 0.64452  0.57630  0.82296  Biso   1.000  C
  C45      1.0000 0.58484  0.49609  0.79161  Biso   1.000  C
  C46      1.0000 0.58639  0.50099  0.74838  Biso   1.000  C
  C47      1.0000 0.58550  0.47280  0.59030  Biso   1.000  C
  C48      1.0000 0.57120  0.46790  0.69230  Biso   1.000  C
  C49      1.0000 0.08801  0.97411  0.60658  Biso   1.000  C
  C50      1.0000 0.05204  0.89171  0.58923  Biso   1.000  C
  C51      1.0000 0.04301  0.96138  0.61171  Biso   1.000  C
  C52      1.0000 0.24666  0.92370  0.56822  Biso   1.000  C
  C53      1.0000 0.29552  0.00391  0.58875  Biso   1.000  C
  C54      1.0000 0.24739  0.99901  0.58540  Biso   1.000  C
  C55      1.0000 0.11750  0.02720  0.61270  Biso   1.000  C
  C56      1.0000 0.22440  0.03210  0.60330  Biso   1.000  C
  C57      1.0000 0.41199  0.01857  0.88610  Biso   1.000  C
  C58      1.0000 0.44796  0.03719  0.83967  Biso   1.000  C
  C59      1.0000 0.45699  0.06870  0.91837  Biso   1.000  C
  C60      1.0000 0.25334  0.82156  0.67704  Biso   1.000  C
  C61      1.0000 0.20448  0.79323  0.70839  Biso   1.000  C
  C62      1.0000 0.25261  0.83801  0.75162  Biso   1.000  C
  C63      1.0000 0.38250  0.99520  0.90970  Biso   1.000  C
  C64      1.0000 0.27560  0.87890  0.80770  Biso   1.000  C
  C65      1.0000 0.38610  0.41199  0.51857  Biso   1.000  C
  C66      1.0000 0.33967  0.44796  0.53719  Biso   1.000  C
  C67      1.0000 0.41837  0.45699  0.56870  Biso   1.000  C
  C68      1.0000 0.17704  0.25334  0.32156  Biso   1.000  C
  C69      1.0000 0.20839  0.20448  0.29323  Biso   1.000  C
  C70      1.0000 0.25162  0.25261  0.33801  Biso   1.000  C
  C71      1.0000 0.40970  0.38250  0.49520  Biso   1.000  C
  C72      1.0000 0.30770  0.27560  0.37890  Biso   1.000  C
  C73      1.0000 0.10658  0.08801  0.47411  Biso   1.000  C
  C74      1.0000 0.08923  0.05204  0.39171  Biso   1.000  C
  C75      1.0000 0.11171  0.04301  0.46138  Biso   1.000  C
  C76      1.0000 0.06822  0.24666  0.42370  Biso   1.000  C
  C77      1.0000 0.08875  0.29552  0.50391  Biso   1.000  C
  C78      1.0000 0.08540  0.24739  0.49901  Biso   1.000  C
  C79      1.0000 0.11270  0.11750  0.52720  Biso   1.000  C
  C80      1.0000 0.10330  0.22440  0.53210  Biso   1.000  C
  C81      1.0000 0.11390  0.63247  0.02589  Biso   1.000  C
  C82      1.0000 0.16033  0.69752  0.10829  Biso   1.000  C
  C83      1.0000 0.08163  0.65033  0.03862  Biso   1.000  C
  C84      1.0000 0.32296  0.64452  0.07630  Biso   1.000  C
  C85      1.0000 0.29161  0.58484  0.99609  Biso   1.000  C
  C86      1.0000 0.24838  0.58639  0.00099  Biso   1.000  C
  C87      1.0000 0.09030  0.58550  0.97280  Biso   1.000  C
  C88      1.0000 0.19230  0.57120  0.96790  Biso   1.000  C
  C89      1.0000 0.39342  0.86753  0.98143  Biso   1.000  C
  C90      1.0000 0.41077  0.80248  0.96281  Biso   1.000  C
  C91      1.0000 0.38829  0.84967  0.93130  Biso   1.000  C
  C92      1.0000 0.43178  0.85548  0.17844  Biso   1.000  C
  C93      1.0000 0.41125  0.91516  0.20677  Biso   1.000  C
  C94      1.0000 0.41460  0.91361  0.16199  Biso   1.000  C
  C95      1.0000 0.38730  0.91450  0.00480  Biso   1.000  C
  C96      1.0000 0.39670  0.92880  0.12110  Biso   1.000  C
  C97      1.0000 0.39342  0.52589  0.91199  Biso   1.000  C
  C98      1.0000 0.41077  0.60829  0.94796  Biso   1.000  C
  C99      1.0000 0.38829  0.53862  0.95699  Biso   1.000  C
  C100     1.0000 0.43178  0.57630  0.75334  Biso   1.000  C
  C101     1.0000 0.41125  0.49609  0.70448  Biso   1.000  C
  C102     1.0000 0.41460  0.50099  0.75261  Biso   1.000  C
  C103     1.0000 0.38730  0.47280  0.88250  Biso   1.000  C
  C104     1.0000 0.39670  0.46790  0.77560  Biso   1.000  C
  C105     1.0000 0.11390  0.48143  0.58801  Biso   1.000  C
  C106     1.0000 0.16033  0.46281  0.55204  Biso   1.000  C
  C107     1.0000 0.08163  0.43130  0.54301  Biso   1.000  C
  C108     1.0000 0.32296  0.67844  0.74666  Biso   1.000  C
  C109     1.0000 0.29161  0.70677  0.79552  Biso   1.000  C
  C110     1.0000 0.24838  0.66199  0.74739  Biso   1.000  C
  C111     1.0000 0.09030  0.50480  0.61750  Biso   1.000  C
  C112     1.0000 0.19230  0.62110  0.72440  Biso   1.000  C
  C113     1.0000 0.10658  0.01857  0.13247  Biso   1.000  C
  C114     1.0000 0.08923  0.03719  0.19752  Biso   1.000  C
  C115     1.0000 0.11171  0.06870  0.15033  Biso   1.000  C
  C116     1.0000 0.06822  0.82156  0.14452  Biso   1.000  C
  C117     1.0000 0.08875  0.79323  0.08484  Biso   1.000  C
  C118     1.0000 0.08540  0.83801  0.08639  Biso   1.000  C
  C119     1.0000 0.11270  0.99520  0.08550  Biso   1.000  C
  C120     1.0000 0.10330  0.87890  0.07120  Biso   1.000  C
  C121     1.0000 0.38610  0.97411  0.36753  Biso   1.000  C
  C122     1.0000 0.33967  0.89171  0.30248  Biso   1.000  C
  C123     1.0000 0.41837  0.96138  0.34967  Biso   1.000  C
  C124     1.0000 0.17704  0.92370  0.35548  Biso   1.000  C
  C125     1.0000 0.20839  0.00391  0.41516  Biso   1.000  C
  C126     1.0000 0.25162  0.99901  0.41361  Biso   1.000  C
  C127     1.0000 0.40970  0.02720  0.41450  Biso   1.000  C
  C128     1.0000 0.30770  0.03210  0.42880  Biso   1.000  C
  C129     1.0000 0.01857  0.63247  0.60658  Biso   1.000  C
  C130     1.0000 0.03719  0.69752  0.58923  Biso   1.000  C
  C131     1.0000 0.06870  0.65033  0.61171  Biso   1.000  C
  C132     1.0000 0.82156  0.64452  0.56822  Biso   1.000  C
  C133     1.0000 0.79323  0.58484  0.58875  Biso   1.000  C
  C134     1.0000 0.83801  0.58639  0.58540  Biso   1.000  C
  C135     1.0000 0.99520  0.58550  0.61270  Biso   1.000  C
  C136     1.0000 0.87890  0.57120  0.60330  Biso   1.000  C
  C137     1.0000 0.97411  0.86753  0.88610  Biso   1.000  C
  C138     1.0000 0.89171  0.80248  0.83967  Biso   1.000  C
  C139     1.0000 0.96138  0.84967  0.91837  Biso   1.000  C
  C140     1.0000 0.92370  0.85548  0.67704  Biso   1.000  C
  C141     1.0000 0.00391  0.91516  0.70839  Biso   1.000  C
  C142     1.0000 0.99901  0.91361  0.75162  Biso   1.000  C
  C143     1.0000 0.02720  0.91450  0.90970  Biso   1.000  C
  C144     1.0000 0.03210  0.92880  0.80770  Biso   1.000  C
  C145     1.0000 0.52589  0.41199  0.89342  Biso   1.000  C
  C146     1.0000 0.60829  0.44796  0.91077  Biso   1.000  C
  C147     1.0000 0.53862  0.45699  0.88829  Biso   1.000  C
  C148     1.0000 0.57630  0.25334  0.93178  Biso   1.000  C
  C149     1.0000 0.49609  0.20448  0.91125  Biso   1.000  C
  C150     1.0000 0.50099  0.25261  0.91460  Biso   1.000  C
  C151     1.0000 0.47280  0.38250  0.88730  Biso   1.000  C
  C152     1.0000 0.46790  0.27560  0.89670  Biso   1.000  C
  C153     1.0000 0.48143  0.08801  0.61390  Biso   1.000  C
  C154     1.0000 0.46281  0.05204  0.66033  Biso   1.000  C
  C155     1.0000 0.43130  0.04301  0.58163  Biso   1.000  C
  C156     1.0000 0.67844  0.24666  0.82296  Biso   1.000  C
  C157     1.0000 0.70677  0.29552  0.79161  Biso   1.000  C
  C158     1.0000 0.66199  0.24739  0.74838  Biso   1.000  C
  C159     1.0000 0.50480  0.11750  0.59030  Biso   1.000  C
  C160     1.0000 0.62110  0.22440  0.69230  Biso   1.000  C
  C161     1.0000 0.08801  0.11390  0.98143  Biso   1.000  C
  C162     1.0000 0.05204  0.16033  0.96281  Biso   1.000  C
  C163     1.0000 0.04301  0.08163  0.93130  Biso   1.000  C
  C164     1.0000 0.24666  0.32296  0.17844  Biso   1.000  C
  C165     1.0000 0.29552  0.29161  0.20677  Biso   1.000  C
  C166     1.0000 0.24739  0.24838  0.16199  Biso   1.000  C
  C167     1.0000 0.11750  0.09030  0.00480  Biso   1.000  C
  C168     1.0000 0.22440  0.19230  0.12110  Biso   1.000  C
  C169     1.0000 0.41199  0.39342  0.02589  Biso   1.000  C
  C170     1.0000 0.44796  0.41077  0.10829  Biso   1.000  C
  C171     1.0000 0.45699  0.38829  0.03862  Biso   1.000  C
  C172     1.0000 0.25334  0.43178  0.07630  Biso   1.000  C
  C173     1.0000 0.20448  0.41125  0.99609  Biso   1.000  C
  C174     1.0000 0.25261  0.41460  0.00099  Biso   1.000  C
  C175     1.0000 0.38250  0.38730  0.97280  Biso   1.000  C
  C176     1.0000 0.27560  0.39670  0.96790  Biso   1.000  C
  C177     1.0000 0.86753  0.38610  0.47411  Biso   1.000  C
  C178     1.0000 0.80248  0.33967  0.39171  Biso   1.000  C
  C179     1.0000 0.84967  0.41837  0.46138  Biso   1.000  C
  C180     1.0000 0.85548  0.17704  0.42370  Biso   1.000  C
  C181     1.0000 0.91516  0.20839  0.50391  Biso   1.000  C
  C182     1.0000 0.91361  0.25162  0.49901  Biso   1.000  C
  C183     1.0000 0.91450  0.40970  0.52720  Biso   1.000  C
  C184     1.0000 0.92880  0.30770  0.53210  Biso   1.000  C
  C185     1.0000 0.63247  0.10658  0.51857  Biso   1.000  C
  C186     1.0000 0.69752  0.08923  0.53719  Biso   1.000  C
  C187     1.0000 0.65033  0.11171  0.56870  Biso   1.000  C
  C188     1.0000 0.64452  0.06822  0.32156  Biso   1.000  C
  C189     1.0000 0.58484  0.08875  0.29323  Biso   1.000  C
  C190     1.0000 0.58639  0.08540  0.33801  Biso   1.000  C
  C191     1.0000 0.58550  0.11270  0.49520  Biso   1.000  C
  C192     1.0000 0.57120  0.10330  0.37890  Biso   1.000  C
  C193     1.0000 0.02589  0.89342  0.41199  Biso   1.000  C
  C194     1.0000 0.10829  0.91077  0.44796  Biso   1.000  C
  C195     1.0000 0.03862  0.88829  0.45699  Biso   1.000  C
  C196     1.0000 0.07630  0.93178  0.25334  Biso   1.000  C
  C197     1.0000 0.99609  0.91125  0.20448  Biso   1.000  C
  C198     1.0000 0.00099  0.91460  0.25261  Biso   1.000  C
  C199     1.0000 0.97280  0.88730  0.38250  Biso   1.000  C
  C200     1.0000 0.96790  0.89670  0.27560  Biso   1.000  C
  C201     1.0000 0.98143  0.61390  0.08801  Biso   1.000  C
  C202     1.0000 0.96281  0.66033  0.05204  Biso   1.000  C
  C203     1.0000 0.93130  0.58163  0.04301  Biso   1.000  C
  C204     1.0000 0.17844  0.82296  0.24666  Biso   1.000  C
  C205     1.0000 0.20677  0.79161  0.29552  Biso   1.000  C
  C206     1.0000 0.16199  0.74838  0.24739  Biso   1.000  C
  C207     1.0000 0.00480  0.59030  0.11750  Biso   1.000  C
  C208     1.0000 0.12110  0.69230  0.22440  Biso   1.000  C
  C209     1.0000 0.51857  0.60658  0.63247  Biso   1.000  C
  C210     1.0000 0.53719  0.58923  0.69752  Biso   1.000  C
  C211     1.0000 0.56870  0.61171  0.65033  Biso   1.000  C
  C212     1.0000 0.32156  0.56822  0.64452  Biso   1.000  C
  C213     1.0000 0.29323  0.58875  0.58484  Biso   1.000  C
  C214     1.0000 0.33801  0.58540  0.58639  Biso   1.000  C
  C215     1.0000 0.49520  0.61270  0.58550  Biso   1.000  C
  C216     1.0000 0.37890  0.60330  0.57120  Biso   1.000  C
  C217     1.0000 0.47411  0.88610  0.86753  Biso   1.000  C
  C218     1.0000 0.39171  0.83967  0.80248  Biso   1.000  C
  C219     1.0000 0.46138  0.91837  0.84967  Biso   1.000  C
  C220     1.0000 0.42370  0.67704  0.85548  Biso   1.000  C
  C221     1.0000 0.50391  0.70839  0.91516  Biso   1.000  C
  C222     1.0000 0.49901  0.75162  0.91361  Biso   1.000  C
  C223     1.0000 0.52720  0.90970  0.91450  Biso   1.000  C
  C224     1.0000 0.53210  0.80770  0.92880  Biso   1.000  C
  C225     1.0000 0.13247  0.51857  0.10658  Biso   1.000  C
  C226     1.0000 0.19752  0.53719  0.08923  Biso   1.000  C
  C227     1.0000 0.15033  0.56870  0.11171  Biso   1.000  C
  C228     1.0000 0.14452  0.32156  0.06822  Biso   1.000  C
  C229     1.0000 0.08484  0.29323  0.08875  Biso   1.000  C
  C230     1.0000 0.08639  0.33801  0.08540  Biso   1.000  C
  C231     1.0000 0.08550  0.49520  0.11270  Biso   1.000  C
  C232     1.0000 0.07120  0.37890  0.10330  Biso   1.000  C
  C233     1.0000 0.36753  0.47411  0.38610  Biso   1.000  C
  C234     1.0000 0.30248  0.39171  0.33967  Biso   1.000  C
  C235     1.0000 0.34967  0.46138  0.41837  Biso   1.000  C
  C236     1.0000 0.35548  0.42370  0.17704  Biso   1.000  C
  C237     1.0000 0.41516  0.50391  0.20839  Biso   1.000  C
  C238     1.0000 0.41361  0.49901  0.25162  Biso   1.000  C
  C239     1.0000 0.41450  0.52720  0.40970  Biso   1.000  C
  C240     1.0000 0.42880  0.53210  0.30770  Biso   1.000  C
  C241     1.0000 0.91199  0.02589  0.39342  Biso   1.000  C
  C242     1.0000 0.94796  0.10829  0.41077  Biso   1.000  C
  C243     1.0000 0.95699  0.03862  0.38829  Biso   1.000  C
  C244     1.0000 0.75334  0.07630  0.43178  Biso   1.000  C
  C245     1.0000 0.70448  0.99609  0.41125  Biso   1.000  C
  C246     1.0000 0.75261  0.00099  0.41460  Biso   1.000  C
  C247     1.0000 0.88250  0.97280  0.38730  Biso   1.000  C
  C248     1.0000 0.77560  0.96790  0.39670  Biso   1.000  C
  C249     1.0000 0.58801  0.98143  0.11390  Biso   1.000  C
  C250     1.0000 0.55204  0.96281  0.16033  Biso   1.000  C
  C251     1.0000 0.54301  0.93130  0.08163  Biso   1.000  C
  C252     1.0000 0.74666  0.17844  0.32296  Biso   1.000  C
  C253     1.0000 0.79552  0.20677  0.29161  Biso   1.000  C
  C254     1.0000 0.74739  0.16199  0.24838  Biso   1.000  C
  C255     1.0000 0.61750  0.00480  0.09030  Biso   1.000  C
  C256     1.0000 0.72440  0.12110  0.19230  Biso   1.000  C
  C257     1.0000 0.61390  0.58801  0.48143  Biso   1.000  C
  C258     1.0000 0.66033  0.55204  0.46281  Biso   1.000  C
  C259     1.0000 0.58163  0.54301  0.43130  Biso   1.000  C
  C260     1.0000 0.82296  0.74666  0.67844  Biso   1.000  C
  C261     1.0000 0.79161  0.79552  0.70677  Biso   1.000  C
  C262     1.0000 0.74838  0.74739  0.66199  Biso   1.000  C
  C263     1.0000 0.59030  0.61750  0.50480  Biso   1.000  C
  C264     1.0000 0.69230  0.72440  0.62110  Biso   1.000  C
  C265     1.0000 0.89342  0.91199  0.52589  Biso   1.000  C
  C266     1.0000 0.91077  0.94796  0.60829  Biso   1.000  C
  C267     1.0000 0.88829  0.95699  0.53862  Biso   1.000  C
  C268     1.0000 0.93178  0.75334  0.57630  Biso   1.000  C
  C269     1.0000 0.91125  0.70448  0.49609  Biso   1.000  C
  C270     1.0000 0.91460  0.75261  0.50099  Biso   1.000  C
  C271     1.0000 0.88730  0.88250  0.47280  Biso   1.000  C
  C272     1.0000 0.89670  0.77560  0.46790  Biso   1.000  C
  C273     1.0000 0.88610  0.36753  0.97411  Biso   1.000  C
  C274     1.0000 0.83967  0.30248  0.89171  Biso   1.000  C
  C275     1.0000 0.91837  0.34967  0.96138  Biso   1.000  C
  C276     1.0000 0.67704  0.35548  0.92370  Biso   1.000  C
  C277     1.0000 0.70839  0.41516  0.00391  Biso   1.000  C
  C278     1.0000 0.75162  0.41361  0.99901  Biso   1.000  C
  C279     1.0000 0.90970  0.41450  0.02720  Biso   1.000  C
  C280     1.0000 0.80770  0.42880  0.03210  Biso   1.000  C
  C281     1.0000 0.60658  0.13247  0.01857  Biso   1.000  C
  C282     1.0000 0.58923  0.19752  0.03719  Biso   1.000  C
  C283     1.0000 0.61171  0.15033  0.06870  Biso   1.000  C
  C284     1.0000 0.56822  0.14452  0.82156  Biso   1.000  C
  C285     1.0000 0.58875  0.08484  0.79323  Biso   1.000  C
  C286     1.0000 0.58540  0.08639  0.83801  Biso   1.000  C
  C287     1.0000 0.61270  0.08550  0.99520  Biso   1.000  C
  C288     1.0000 0.60330  0.07120  0.87890  Biso   1.000  C
  C289     1.0000 0.60658  0.47411  0.08801  Biso   1.000  C
  C290     1.0000 0.58923  0.39171  0.05204  Biso   1.000  C
  C291     1.0000 0.61171  0.46138  0.04301  Biso   1.000  C
  C292     1.0000 0.56822  0.42370  0.24666  Biso   1.000  C
  C293     1.0000 0.58875  0.50391  0.29552  Biso   1.000  C
  C294     1.0000 0.58540  0.49901  0.24739  Biso   1.000  C
  C295     1.0000 0.61270  0.52720  0.11750  Biso   1.000  C
  C296     1.0000 0.60330  0.53210  0.22440  Biso   1.000  C
  C297     1.0000 0.88610  0.51857  0.41199  Biso   1.000  C
  C298     1.0000 0.83967  0.53719  0.44796  Biso   1.000  C
  C299     1.0000 0.91837  0.56870  0.45699  Biso   1.000  C
  C300     1.0000 0.67704  0.32156  0.25334  Biso   1.000  C
  C301     1.0000 0.70839  0.29323  0.20448  Biso   1.000  C
  C302     1.0000 0.75162  0.33801  0.25261  Biso   1.000  C
  C303     1.0000 0.90970  0.49520  0.38250  Biso   1.000  C
  C304     1.0000 0.80770  0.37890  0.27560  Biso   1.000  C
  C305     1.0000 0.89342  0.98143  0.86753  Biso   1.000  C
  C306     1.0000 0.91077  0.96281  0.80248  Biso   1.000  C
  C307     1.0000 0.88829  0.93130  0.84967  Biso   1.000  C
  C308     1.0000 0.93178  0.17844  0.85548  Biso   1.000  C
  C309     1.0000 0.91125  0.20677  0.91516  Biso   1.000  C
  C310     1.0000 0.91460  0.16199  0.91361  Biso   1.000  C
  C311     1.0000 0.88730  0.00480  0.91450  Biso   1.000  C
  C312     1.0000 0.89670  0.12110  0.92880  Biso   1.000  C
  C313     1.0000 0.61390  0.02589  0.63247  Biso   1.000  C
  C314     1.0000 0.66033  0.10829  0.69752  Biso   1.000  C
  C315     1.0000 0.58163  0.03862  0.65033  Biso   1.000  C
  C316     1.0000 0.82296  0.07630  0.64452  Biso   1.000  C
  C317     1.0000 0.79161  0.99609  0.58484  Biso   1.000  C
  C318     1.0000 0.74838  0.00099  0.58639  Biso   1.000  C
  C319     1.0000 0.59030  0.97280  0.58550  Biso   1.000  C
  C320     1.0000 0.69230  0.96790  0.57120  Biso   1.000  C
  C321     1.0000 0.98143  0.36753  0.39342  Biso   1.000  C
  C322     1.0000 0.96281  0.30248  0.41077  Biso   1.000  C
  C323     1.0000 0.93130  0.34967  0.38829  Biso   1.000  C
  C324     1.0000 0.17844  0.35548  0.43178  Biso   1.000  C
  C325     1.0000 0.20677  0.41516  0.41125  Biso   1.000  C
  C326     1.0000 0.16199  0.41361  0.41460  Biso   1.000  C
  C327     1.0000 0.00480  0.41450  0.38730  Biso   1.000  C
  C328     1.0000 0.12110  0.42880  0.39670  Biso   1.000  C
  C329     1.0000 0.02589  0.13247  0.11390  Biso   1.000  C
  C330     1.0000 0.10829  0.19752  0.16033  Biso   1.000  C
  C331     1.0000 0.03862  0.15033  0.08163  Biso   1.000  C
  C332     1.0000 0.07630  0.14452  0.32296  Biso   1.000  C
  C333     1.0000 0.99609  0.08484  0.29161  Biso   1.000  C
  C334     1.0000 0.00099  0.08639  0.24838  Biso   1.000  C
  C335     1.0000 0.97280  0.08550  0.09030  Biso   1.000  C
  C336     1.0000 0.96790  0.07120  0.19230  Biso   1.000  C
  C337     1.0000 0.47411  0.58801  0.10658  Biso   1.000  C
  C338     1.0000 0.39171  0.55204  0.08923  Biso   1.000  C
  C339     1.0000 0.46138  0.54301  0.11171  Biso   1.000  C
  C340     1.0000 0.42370  0.74666  0.06822  Biso   1.000  C
  C341     1.0000 0.50391  0.79552  0.08875  Biso   1.000  C
  C342     1.0000 0.49901  0.74739  0.08540  Biso   1.000  C
  C343     1.0000 0.52720  0.61750  0.11270  Biso   1.000  C
  C344     1.0000 0.53210  0.72440  0.10330  Biso   1.000  C
  C345     1.0000 0.51857  0.91199  0.38610  Biso   1.000  C
  C346     1.0000 0.53719  0.94796  0.33967  Biso   1.000  C
  C347     1.0000 0.56870  0.95699  0.41837  Biso   1.000  C
  C348     1.0000 0.32156  0.75334  0.17704  Biso   1.000  C
  C349     1.0000 0.29323  0.70448  0.20839  Biso   1.000  C
  C350     1.0000 0.33801  0.75261  0.25162  Biso   1.000  C
  C351     1.0000 0.49520  0.88250  0.40970  Biso   1.000  C
  C352     1.0000 0.37890  0.77560  0.30770  Biso   1.000  C
  C353     1.0000 0.91199  0.88610  0.01857  Biso   1.000  C
  C354     1.0000 0.94796  0.83967  0.03719  Biso   1.000  C
  C355     1.0000 0.95699  0.91837  0.06870  Biso   1.000  C
  C356     1.0000 0.75334  0.67704  0.82156  Biso   1.000  C
  C357     1.0000 0.70448  0.70839  0.79323  Biso   1.000  C
  C358     1.0000 0.75261  0.75162  0.83801  Biso   1.000  C
  C359     1.0000 0.88250  0.90970  0.99520  Biso   1.000  C
  C360     1.0000 0.77560  0.80770  0.87890  Biso   1.000  C
  C361     1.0000 0.58801  0.60658  0.97411  Biso   1.000  C
  C362     1.0000 0.55204  0.58923  0.89171  Biso   1.000  C
  C363     1.0000 0.54301  0.61171  0.96138  Biso   1.000  C
  C364     1.0000 0.74666  0.56822  0.92370  Biso   1.000  C
  C365     1.0000 0.79552  0.58875  0.00391  Biso   1.000  C
  C366     1.0000 0.74739  0.58540  0.99901  Biso   1.000  C
  C367     1.0000 0.61750  0.61270  0.02720  Biso   1.000  C
  C368     1.0000 0.72440  0.60330  0.03210  Biso   1.000  C
  C369     1.0000 0.13247  0.61390  0.52589  Biso   1.000  C
  C370     1.0000 0.19752  0.66033  0.60829  Biso   1.000  C
  C371     1.0000 0.15033  0.58163  0.53862  Biso   1.000  C
  C372     1.0000 0.14452  0.82296  0.57630  Biso   1.000  C
  C373     1.0000 0.08484  0.79161  0.49609  Biso   1.000  C
  C374     1.0000 0.08639  0.74838  0.50099  Biso   1.000  C
  C375     1.0000 0.08550  0.59030  0.47280  Biso   1.000  C
  C376     1.0000 0.07120  0.69230  0.46790  Biso   1.000  C
  C377     1.0000 0.36753  0.89342  0.48143  Biso   1.000  C
  C378     1.0000 0.30248  0.91077  0.46281  Biso   1.000  C
  C379     1.0000 0.34967  0.88829  0.43130  Biso   1.000  C
  C380     1.0000 0.35548  0.93178  0.67844  Biso   1.000  C
  C381     1.0000 0.41516  0.91125  0.70677  Biso   1.000  C
  C382     1.0000 0.41361  0.91460  0.66199  Biso   1.000  C
  C383     1.0000 0.41450  0.88730  0.50480  Biso   1.000  C
  C384     1.0000 0.42880  0.89670  0.62110  Biso   1.000  C
  N1       1.0000 0.95679  0.07782  0.79549  Biso   1.000  N
  N2       1.0000 0.90925  0.10079  0.51974  Biso   1.000  N
  N3       1.0000 0.92849  0.09213  0.59414  Biso   1.000  N
  N4       1.0000 0.94629  0.07273  0.71604  Biso   1.000  N
  N5       1.0000 0.01060  0.09280  0.67560  Biso   1.000  N
  N6       1.0000 0.04900  0.10640  0.65940  Biso   1.000  N
  N7       1.0000 0.78233  0.16130  0.70451  Biso   1.000  N
  N8       1.0000 0.08105  0.38951  0.98026  Biso   1.000  N
  N9       1.0000 0.99799  0.33435  0.90586  Biso   1.000  N
  N10      1.0000 0.85669  0.23025  0.78396  Biso   1.000  N
  N11      1.0000 0.91720  0.33500  0.82440  Biso   1.000  N
  N12      1.0000 0.94700  0.38960  0.84060  Biso   1.000  N
  N13      1.0000 0.71767  0.42218  0.37897  Biso   1.000  N
  N14      1.0000 0.41895  0.39921  0.30846  Biso   1.000  N
  N15      1.0000 0.50201  0.40787  0.33636  Biso   1.000  N
  N16      1.0000 0.64331  0.42727  0.37356  Biso   1.000  N
  N17      1.0000 0.58280  0.40720  0.41780  Biso   1.000  N
  N18      1.0000 0.55300  0.39360  0.44260  Biso   1.000  N
  N19      1.0000 0.54321  0.33870  0.12103  Biso   1.000  N
  N20      1.0000 0.59075  0.11049  0.19154  Biso   1.000  N
  N21      1.0000 0.57151  0.16565  0.16364  Biso   1.000  N
  N22      1.0000 0.55371  0.26975  0.12644  Biso   1.000  N
  N23      1.0000 0.48940  0.16500  0.08220  Biso   1.000  N
  N24      1.0000 0.45100  0.11040  0.05740  Biso   1.000  N
  N25      1.0000 0.87897  0.71767  0.92218  Biso   1.000  N
  N26      1.0000 0.80846  0.41895  0.89921  Biso   1.000  N
  N27      1.0000 0.83636  0.50201  0.90787  Biso   1.000  N
  N28      1.0000 0.87356  0.64331  0.92727  Biso   1.000  N
  N29      1.0000 0.91780  0.58280  0.90720  Biso   1.000  N
  N30      1.0000 0.94260  0.55300  0.89360  Biso   1.000  N
  N31      1.0000 0.62103  0.54321  0.83870  Biso   1.000  N
  N32      1.0000 0.69154  0.59075  0.61049  Biso   1.000  N
  N33      1.0000 0.66364  0.57151  0.66565  Biso   1.000  N
  N34      1.0000 0.62644  0.55371  0.76975  Biso   1.000  N
  N35      1.0000 0.58220  0.48940  0.66500  Biso   1.000  N
  N36      1.0000 0.55740  0.45100  0.61040  Biso   1.000  N
  N37      1.0000 0.29549  0.95679  0.57782  Biso   1.000  N
  N38      1.0000 0.01974  0.90925  0.60079  Biso   1.000  N
  N39      1.0000 0.09414  0.92849  0.59213  Biso   1.000  N
  N40      1.0000 0.21604  0.94629  0.57273  Biso   1.000  N
  N41      1.0000 0.17560  0.01060  0.59280  Biso   1.000  N
  N42      1.0000 0.15940  0.04900  0.60640  Biso   1.000  N
  N43      1.0000 0.20451  0.78233  0.66130  Biso   1.000  N
  N44      1.0000 0.48026  0.08105  0.88951  Biso   1.000  N
  N45      1.0000 0.40586  0.99799  0.83435  Biso   1.000  N
  N46      1.0000 0.28396  0.85669  0.73025  Biso   1.000  N
  N47      1.0000 0.32440  0.91720  0.83500  Biso   1.000  N
  N48      1.0000 0.34060  0.94700  0.88960  Biso   1.000  N
  N49      1.0000 0.16130  0.20451  0.28233  Biso   1.000  N
  N50      1.0000 0.38951  0.48026  0.58105  Biso   1.000  N
  N51      1.0000 0.33435  0.40586  0.49799  Biso   1.000  N
  N52      1.0000 0.23025  0.28396  0.35669  Biso   1.000  N
  N53      1.0000 0.33500  0.32440  0.41720  Biso   1.000  N
  N54      1.0000 0.38960  0.34060  0.44700  Biso   1.000  N
  N55      1.0000 0.07782  0.29549  0.45679  Biso   1.000  N
  N56      1.0000 0.10079  0.01974  0.40925  Biso   1.000  N
  N57      1.0000 0.09213  0.09414  0.42849  Biso   1.000  N
  N58      1.0000 0.07273  0.21604  0.44629  Biso   1.000  N
  N59      1.0000 0.09280  0.17560  0.51060  Biso   1.000  N
  N60      1.0000 0.10640  0.15940  0.54900  Biso   1.000  N
  N61      1.0000 0.33870  0.62103  0.04321  Biso   1.000  N
  N62      1.0000 0.11049  0.69154  0.09075  Biso   1.000  N
  N63      1.0000 0.16565  0.66364  0.07151  Biso   1.000  N
  N64      1.0000 0.26975  0.62644  0.05371  Biso   1.000  N
  N65      1.0000 0.16500  0.58220  0.98940  Biso   1.000  N
  N66      1.0000 0.11040  0.55740  0.95100  Biso   1.000  N
  N67      1.0000 0.42218  0.87897  0.21767  Biso   1.000  N
  N68      1.0000 0.39921  0.80846  0.91895  Biso   1.000  N
  N69      1.0000 0.40787  0.83636  0.00201  Biso   1.000  N
  N70      1.0000 0.42727  0.87356  0.14331  Biso   1.000  N
  N71      1.0000 0.40720  0.91780  0.08280  Biso   1.000  N
  N72      1.0000 0.39360  0.94260  0.05300  Biso   1.000  N
  N73      1.0000 0.42218  0.54321  0.70451  Biso   1.000  N
  N74      1.0000 0.39921  0.59075  0.98026  Biso   1.000  N
  N75      1.0000 0.40787  0.57151  0.90586  Biso   1.000  N
  N76      1.0000 0.42727  0.55371  0.78396  Biso   1.000  N
  N77      1.0000 0.40720  0.48940  0.82440  Biso   1.000  N
  N78      1.0000 0.39360  0.45100  0.84060  Biso   1.000  N
  N79      1.0000 0.33870  0.71767  0.79549  Biso   1.000  N
  N80      1.0000 0.11049  0.41895  0.51974  Biso   1.000  N
  N81      1.0000 0.16565  0.50201  0.59414  Biso   1.000  N
  N82      1.0000 0.26975  0.64331  0.71604  Biso   1.000  N
  N83      1.0000 0.16500  0.58280  0.67560  Biso   1.000  N
  N84      1.0000 0.11040  0.55300  0.65940  Biso   1.000  N
  N85      1.0000 0.07782  0.78233  0.12103  Biso   1.000  N
  N86      1.0000 0.10079  0.08105  0.19154  Biso   1.000  N
  N87      1.0000 0.09213  0.99799  0.16364  Biso   1.000  N
  N88      1.0000 0.07273  0.85669  0.12644  Biso   1.000  N
  N89      1.0000 0.09280  0.91720  0.08220  Biso   1.000  N
  N90      1.0000 0.10640  0.94700  0.05740  Biso   1.000  N
  N91      1.0000 0.16130  0.95679  0.37897  Biso   1.000  N
  N92      1.0000 0.38951  0.90925  0.30846  Biso   1.000  N
  N93      1.0000 0.33435  0.92849  0.33636  Biso   1.000  N
  N94      1.0000 0.23025  0.94629  0.37356  Biso   1.000  N
  N95      1.0000 0.33500  0.01060  0.41780  Biso   1.000  N
  N96      1.0000 0.38960  0.04900  0.44260  Biso   1.000  N
  N97      1.0000 0.78233  0.62103  0.57782  Biso   1.000  N
  N98      1.0000 0.08105  0.69154  0.60079  Biso   1.000  N
  N99      1.0000 0.99799  0.66364  0.59213  Biso   1.000  N
  N100     1.0000 0.85669  0.62644  0.57273  Biso   1.000  N
  N101     1.0000 0.91720  0.58220  0.59280  Biso   1.000  N
  N102     1.0000 0.94700  0.55740  0.60640  Biso   1.000  N
  N103     1.0000 0.95679  0.87897  0.66130  Biso   1.000  N
  N104     1.0000 0.90925  0.80846  0.88951  Biso   1.000  N
  N105     1.0000 0.92849  0.83636  0.83435  Biso   1.000  N
  N106     1.0000 0.94629  0.87356  0.73025  Biso   1.000  N
  N107     1.0000 0.01060  0.91780  0.83500  Biso   1.000  N
  N108     1.0000 0.04900  0.94260  0.88960  Biso   1.000  N
  N109     1.0000 0.54321  0.20451  0.92218  Biso   1.000  N
  N110     1.0000 0.59075  0.48026  0.89921  Biso   1.000  N
  N111     1.0000 0.57151  0.40586  0.90787  Biso   1.000  N
  N112     1.0000 0.55371  0.28396  0.92727  Biso   1.000  N
  N113     1.0000 0.48940  0.32440  0.90720  Biso   1.000  N
  N114     1.0000 0.45100  0.34060  0.89360  Biso   1.000  N
  N115     1.0000 0.71767  0.29549  0.83870  Biso   1.000  N
  N116     1.0000 0.41895  0.01974  0.61049  Biso   1.000  N
  N117     1.0000 0.50201  0.09414  0.66565  Biso   1.000  N
  N118     1.0000 0.64331  0.21604  0.76975  Biso   1.000  N
  N119     1.0000 0.58280  0.17560  0.66500  Biso   1.000  N
  N120     1.0000 0.55300  0.15940  0.61040  Biso   1.000  N
  N121     1.0000 0.29549  0.33870  0.21767  Biso   1.000  N
  N122     1.0000 0.01974  0.11049  0.91895  Biso   1.000  N
  N123     1.0000 0.09414  0.16565  0.00201  Biso   1.000  N
  N124     1.0000 0.21604  0.26975  0.14331  Biso   1.000  N
  N125     1.0000 0.17560  0.16500  0.08280  Biso   1.000  N
  N126     1.0000 0.15940  0.11040  0.05300  Biso   1.000  N
  N127     1.0000 0.20451  0.42218  0.04321  Biso   1.000  N
  N128     1.0000 0.48026  0.39921  0.09075  Biso   1.000  N
  N129     1.0000 0.40586  0.40787  0.07151  Biso   1.000  N
  N130     1.0000 0.28396  0.42727  0.05371  Biso   1.000  N
  N131     1.0000 0.32440  0.40720  0.98940  Biso   1.000  N
  N132     1.0000 0.34060  0.39360  0.95100  Biso   1.000  N
  N133     1.0000 0.87897  0.16130  0.45679  Biso   1.000  N
  N134     1.0000 0.80846  0.38951  0.40925  Biso   1.000  N
  N135     1.0000 0.83636  0.33435  0.42849  Biso   1.000  N
  N136     1.0000 0.87356  0.23025  0.44629  Biso   1.000  N
  N137     1.0000 0.91780  0.33500  0.51060  Biso   1.000  N
  N138     1.0000 0.94260  0.38960  0.54900  Biso   1.000  N
  N139     1.0000 0.62103  0.07782  0.28233  Biso   1.000  N
  N140     1.0000 0.69154  0.10079  0.58105  Biso   1.000  N
  N141     1.0000 0.66364  0.09213  0.49799  Biso   1.000  N
  N142     1.0000 0.62644  0.07273  0.35669  Biso   1.000  N
  N143     1.0000 0.58220  0.09280  0.41720  Biso   1.000  N
  N144     1.0000 0.55740  0.10640  0.44700  Biso   1.000  N
  N145     1.0000 0.04321  0.92218  0.20451  Biso   1.000  N
  N146     1.0000 0.09075  0.89921  0.48026  Biso   1.000  N
  N147     1.0000 0.07151  0.90787  0.40586  Biso   1.000  N
  N148     1.0000 0.05371  0.92727  0.28396  Biso   1.000  N
  N149     1.0000 0.98940  0.90720  0.32440  Biso   1.000  N
  N150     1.0000 0.95100  0.89360  0.34060  Biso   1.000  N
  N151     1.0000 0.21767  0.83870  0.29549  Biso   1.000  N
  N152     1.0000 0.91895  0.61049  0.01974  Biso   1.000  N
  N153     1.0000 0.00201  0.66565  0.09414  Biso   1.000  N
  N154     1.0000 0.14331  0.76975  0.21604  Biso   1.000  N
  N155     1.0000 0.08280  0.66500  0.17560  Biso   1.000  N
  N156     1.0000 0.05300  0.61040  0.15940  Biso   1.000  N
  N157     1.0000 0.28233  0.57782  0.62103  Biso   1.000  N
  N158     1.0000 0.58105  0.60079  0.69154  Biso   1.000  N
  N159     1.0000 0.49799  0.59213  0.66364  Biso   1.000  N
  N160     1.0000 0.35669  0.57273  0.62644  Biso   1.000  N
  N161     1.0000 0.41720  0.59280  0.58220  Biso   1.000  N
  N162     1.0000 0.44700  0.60640  0.55740  Biso   1.000  N
  N163     1.0000 0.45679  0.66130  0.87897  Biso   1.000  N
  N164     1.0000 0.40925  0.88951  0.80846  Biso   1.000  N
  N165     1.0000 0.42849  0.83435  0.83636  Biso   1.000  N
  N166     1.0000 0.44629  0.73025  0.87356  Biso   1.000  N
  N167     1.0000 0.51060  0.83500  0.91780  Biso   1.000  N
  N168     1.0000 0.54900  0.88960  0.94260  Biso   1.000  N
  N169     1.0000 0.12103  0.28233  0.07782  Biso   1.000  N
  N170     1.0000 0.19154  0.58105  0.10079  Biso   1.000  N
  N171     1.0000 0.16364  0.49799  0.09213  Biso   1.000  N
  N172     1.0000 0.12644  0.35669  0.07273  Biso   1.000  N
  N173     1.0000 0.08220  0.41720  0.09280  Biso   1.000  N
  N174     1.0000 0.05740  0.44700  0.10640  Biso   1.000  N
  N175     1.0000 0.37897  0.45679  0.16130  Biso   1.000  N
  N176     1.0000 0.30846  0.40925  0.38951  Biso   1.000  N
  N177     1.0000 0.33636  0.42849  0.33435  Biso   1.000  N
  N178     1.0000 0.37356  0.44629  0.23025  Biso   1.000  N
  N179     1.0000 0.41780  0.51060  0.33500  Biso   1.000  N
  N180     1.0000 0.44260  0.54900  0.38960  Biso   1.000  N
  N181     1.0000 0.70451  0.04321  0.42218  Biso   1.000  N
  N182     1.0000 0.98026  0.09075  0.39921  Biso   1.000  N
  N183     1.0000 0.90586  0.07151  0.40787  Biso   1.000  N
  N184     1.0000 0.78396  0.05371  0.42727  Biso   1.000  N
  N185     1.0000 0.82440  0.98940  0.40720  Biso   1.000  N
  N186     1.0000 0.84060  0.95100  0.39360  Biso   1.000  N
  N187     1.0000 0.79549  0.21767  0.33870  Biso   1.000  N
  N188     1.0000 0.51974  0.91895  0.11049  Biso   1.000  N
  N189     1.0000 0.59414  0.00201  0.16565  Biso   1.000  N
  N190     1.0000 0.71604  0.14331  0.26975  Biso   1.000  N
  N191     1.0000 0.67560  0.08280  0.16500  Biso   1.000  N
  N192     1.0000 0.65940  0.05300  0.11040  Biso   1.000  N
  N193     1.0000 0.83870  0.79549  0.71767  Biso   1.000  N
  N194     1.0000 0.61049  0.51974  0.41895  Biso   1.000  N
  N195     1.0000 0.66565  0.59414  0.50201  Biso   1.000  N
  N196     1.0000 0.76975  0.71604  0.64331  Biso   1.000  N
  N197     1.0000 0.66500  0.67560  0.58280  Biso   1.000  N
  N198     1.0000 0.61040  0.65940  0.55300  Biso   1.000  N
  N199     1.0000 0.92218  0.70451  0.54321  Biso   1.000  N
  N200     1.0000 0.89921  0.98026  0.59075  Biso   1.000  N
  N201     1.0000 0.90787  0.90586  0.57151  Biso   1.000  N
  N202     1.0000 0.92727  0.78396  0.55371  Biso   1.000  N
  N203     1.0000 0.90720  0.82440  0.48940  Biso   1.000  N
  N204     1.0000 0.89360  0.84060  0.45100  Biso   1.000  N
  N205     1.0000 0.66130  0.37897  0.95679  Biso   1.000  N
  N206     1.0000 0.88951  0.30846  0.90925  Biso   1.000  N
  N207     1.0000 0.83435  0.33636  0.92849  Biso   1.000  N
  N208     1.0000 0.73025  0.37356  0.94629  Biso   1.000  N
  N209     1.0000 0.83500  0.41780  0.01060  Biso   1.000  N
  N210     1.0000 0.88960  0.44260  0.04900  Biso   1.000  N
  N211     1.0000 0.57782  0.12103  0.78233  Biso   1.000  N
  N212     1.0000 0.60079  0.19154  0.08105  Biso   1.000  N
  N213     1.0000 0.59213  0.16364  0.99799  Biso   1.000  N
  N214     1.0000 0.57273  0.12644  0.85669  Biso   1.000  N
  N215     1.0000 0.59280  0.08220  0.91720  Biso   1.000  N
  N216     1.0000 0.60640  0.05740  0.94700  Biso   1.000  N
  N217     1.0000 0.57782  0.45679  0.29549  Biso   1.000  N
  N218     1.0000 0.60079  0.40925  0.01974  Biso   1.000  N
  N219     1.0000 0.59213  0.42849  0.09414  Biso   1.000  N
  N220     1.0000 0.57273  0.44629  0.21604  Biso   1.000  N
  N221     1.0000 0.59280  0.51060  0.17560  Biso   1.000  N
  N222     1.0000 0.60640  0.54900  0.15940  Biso   1.000  N
  N223     1.0000 0.66130  0.28233  0.20451  Biso   1.000  N
  N224     1.0000 0.88951  0.58105  0.48026  Biso   1.000  N
  N225     1.0000 0.83435  0.49799  0.40586  Biso   1.000  N
  N226     1.0000 0.73025  0.35669  0.28396  Biso   1.000  N
  N227     1.0000 0.83500  0.41720  0.32440  Biso   1.000  N
  N228     1.0000 0.88960  0.44700  0.34060  Biso   1.000  N
  N229     1.0000 0.92218  0.21767  0.87897  Biso   1.000  N
  N230     1.0000 0.89921  0.91895  0.80846  Biso   1.000  N
  N231     1.0000 0.90787  0.00201  0.83636  Biso   1.000  N
  N232     1.0000 0.92727  0.14331  0.87356  Biso   1.000  N
  N233     1.0000 0.90720  0.08280  0.91780  Biso   1.000  N
  N234     1.0000 0.89360  0.05300  0.94260  Biso   1.000  N
  N235     1.0000 0.83870  0.04321  0.62103  Biso   1.000  N
  N236     1.0000 0.61049  0.09075  0.69154  Biso   1.000  N
  N237     1.0000 0.66565  0.07151  0.66364  Biso   1.000  N
  N238     1.0000 0.76975  0.05371  0.62644  Biso   1.000  N
  N239     1.0000 0.66500  0.98940  0.58220  Biso   1.000  N
  N240     1.0000 0.61040  0.95100  0.55740  Biso   1.000  N
  N241     1.0000 0.21767  0.37897  0.42218  Biso   1.000  N
  N242     1.0000 0.91895  0.30846  0.39921  Biso   1.000  N
  N243     1.0000 0.00201  0.33636  0.40787  Biso   1.000  N
  N244     1.0000 0.14331  0.37356  0.42727  Biso   1.000  N
  N245     1.0000 0.08280  0.41780  0.40720  Biso   1.000  N
  N246     1.0000 0.05300  0.44260  0.39360  Biso   1.000  N
  N247     1.0000 0.04321  0.12103  0.33870  Biso   1.000  N
  N248     1.0000 0.09075  0.19154  0.11049  Biso   1.000  N
  N249     1.0000 0.07151  0.16364  0.16565  Biso   1.000  N
  N250     1.0000 0.05371  0.12644  0.26975  Biso   1.000  N
  N251     1.0000 0.98940  0.08220  0.16500  Biso   1.000  N
  N252     1.0000 0.95100  0.05740  0.11040  Biso   1.000  N
  N253     1.0000 0.45679  0.79549  0.07782  Biso   1.000  N
  N254     1.0000 0.40925  0.51974  0.10079  Biso   1.000  N
  N255     1.0000 0.42849  0.59414  0.09213  Biso   1.000  N
  N256     1.0000 0.44629  0.71604  0.07273  Biso   1.000  N
  N257     1.0000 0.51060  0.67560  0.09280  Biso   1.000  N
  N258     1.0000 0.54900  0.65940  0.10640  Biso   1.000  N
  N259     1.0000 0.28233  0.70451  0.16130  Biso   1.000  N
  N260     1.0000 0.58105  0.98026  0.38951  Biso   1.000  N
  N261     1.0000 0.49799  0.90586  0.33435  Biso   1.000  N
  N262     1.0000 0.35669  0.78396  0.23025  Biso   1.000  N
  N263     1.0000 0.41720  0.82440  0.33500  Biso   1.000  N
  N264     1.0000 0.44700  0.84060  0.38960  Biso   1.000  N
  N265     1.0000 0.70451  0.66130  0.78233  Biso   1.000  N
  N266     1.0000 0.98026  0.88951  0.08105  Biso   1.000  N
  N267     1.0000 0.90586  0.83435  0.99799  Biso   1.000  N
  N268     1.0000 0.78396  0.73025  0.85669  Biso   1.000  N
  N269     1.0000 0.82440  0.83500  0.91720  Biso   1.000  N
  N270     1.0000 0.84060  0.88960  0.94700  Biso   1.000  N
  N271     1.0000 0.79549  0.57782  0.95679  Biso   1.000  N
  N272     1.0000 0.51974  0.60079  0.90925  Biso   1.000  N
  N273     1.0000 0.59414  0.59213  0.92849  Biso   1.000  N
  N274     1.0000 0.71604  0.57273  0.94629  Biso   1.000  N
  N275     1.0000 0.67560  0.59280  0.01060  Biso   1.000  N
  N276     1.0000 0.65940  0.60640  0.04900  Biso   1.000  N
  N277     1.0000 0.12103  0.83870  0.54321  Biso   1.000  N
  N278     1.0000 0.19154  0.61049  0.59075  Biso   1.000  N
  N279     1.0000 0.16364  0.66565  0.57151  Biso   1.000  N
  N280     1.0000 0.12644  0.76975  0.55371  Biso   1.000  N
  N281     1.0000 0.08220  0.66500  0.48940  Biso   1.000  N
  N282     1.0000 0.05740  0.61040  0.45100  Biso   1.000  N
  N283     1.0000 0.37897  0.92218  0.71767  Biso   1.000  N
  N284     1.0000 0.30846  0.89921  0.41895  Biso   1.000  N
  N285     1.0000 0.33636  0.90787  0.50201  Biso   1.000  N
  N286     1.0000 0.37356  0.92727  0.64331  Biso   1.000  N
  N287     1.0000 0.41780  0.90720  0.58280  Biso   1.000  N
  N288     1.0000 0.44260  0.89360  0.55300  Biso   1.000  N
