data_image0
_cell_length_a       29.6957
_cell_length_b       29.6957
_cell_length_c       29.6957
_cell_angle_alpha    109.471
_cell_angle_beta     109.471
_cell_angle_gamma    109.471

_symmetry_space_group_name_H-M    P 1
_symmetry_int_tables_number       1

loop_
  _symmetry_equiv_pos_as_xyz
  'x, y, z'

loop_
  _atom_site_label
  _atom_site_occupancy
  _atom_site_fract_x
  _atom_site_fract_y
  _atom_site_fract_z
  _atom_site_thermal_displace_type
  _atom_site_B_iso_or_equiv
  _atom_site_type_symbol
  Cu1      1.0000 0.27854  0.92307  0.35249  Biso   1.000  Cu
  Cu2      1.0000 0.07058  0.92605  0.14751  Biso   1.000  Cu
  Cu3      1.0000 0.42942  0.57693  0.85547  Biso   1.000  Cu
  Cu4      1.0000 0.22146  0.57395  0.64453  Biso   1.000  Cu
  Cu5      1.0000 0.35547  0.42942  0.07693  Biso   1.000  Cu
  Cu6      1.0000 0.14453  0.22146  0.07395  Biso   1.000  Cu
  Cu7      1.0000 0.85249  0.27854  0.42307  Biso   1.000  Cu
  Cu8      1.0000 0.64751  0.07058  0.42605  Biso   1.000  Cu
  Cu9      1.0000 0.92605  0.64751  0.57058  Biso   1.000  Cu
  Cu10     1.0000 0.92307  0.85249  0.77854  Biso   1.000  Cu
  Cu11     1.0000 0.57395  0.14453  0.72146  Biso   1.000  Cu
  Cu12     1.0000 0.57693  0.35547  0.92942  Biso   1.000  Cu
  Cu13     1.0000 0.57693  0.22146  0.14751  Biso   1.000  Cu
  Cu14     1.0000 0.57395  0.42942  0.35249  Biso   1.000  Cu
  Cu15     1.0000 0.92307  0.07058  0.64453  Biso   1.000  Cu
  Cu16     1.0000 0.92605  0.27854  0.85547  Biso   1.000  Cu
  Cu17     1.0000 0.07058  0.14453  0.42307  Biso   1.000  Cu
  Cu18     1.0000 0.27854  0.35547  0.42605  Biso   1.000  Cu
  Cu19     1.0000 0.22146  0.64751  0.07693  Biso   1.000  Cu
  Cu20     1.0000 0.42942  0.85249  0.07395  Biso   1.000  Cu
  Cu21     1.0000 0.85249  0.57395  0.92942  Biso   1.000  Cu
  Cu22     1.0000 0.64751  0.57693  0.72146  Biso   1.000  Cu
  Cu23     1.0000 0.35547  0.92605  0.77854  Biso   1.000  Cu
  Cu24     1.0000 0.14453  0.92307  0.57058  Biso   1.000  Cu
  Cu25     1.0000 0.72146  0.07693  0.64751  Biso   1.000  Cu
  Cu26     1.0000 0.92942  0.07395  0.85249  Biso   1.000  Cu
  Cu27     1.0000 0.57058  0.42307  0.14453  Biso   1.000  Cu
  Cu28     1.0000 0.77854  0.42605  0.35547  Biso   1.000  Cu
  Cu29     1.0000 0.64453  0.57058  0.92307  Biso   1.000  Cu
  Cu30     1.0000 0.85547  0.77854  0.92605  Biso   1.000  Cu
  Cu31     1.0000 0.14751  0.72146  0.57693  Biso   1.000  Cu
  Cu32     1.0000 0.35249  0.92942  0.57395  Biso   1.000  Cu
  Cu33     1.0000 0.07395  0.35249  0.42942  Biso   1.000  Cu
  Cu34     1.0000 0.07693  0.14751  0.22146  Biso   1.000  Cu
  Cu35     1.0000 0.42605  0.85547  0.27854  Biso   1.000  Cu
  Cu36     1.0000 0.42307  0.64453  0.07058  Biso   1.000  Cu
  Cu37     1.0000 0.42307  0.77854  0.85249  Biso   1.000  Cu
  Cu38     1.0000 0.42605  0.57058  0.64751  Biso   1.000  Cu
  Cu39     1.0000 0.07693  0.92942  0.35547  Biso   1.000  Cu
  Cu40     1.0000 0.07395  0.72146  0.14453  Biso   1.000  Cu
  Cu41     1.0000 0.92942  0.85547  0.57693  Biso   1.000  Cu
  Cu42     1.0000 0.72146  0.64453  0.57395  Biso   1.000  Cu
  Cu43     1.0000 0.77854  0.35249  0.92307  Biso   1.000  Cu
  Cu44     1.0000 0.57058  0.14751  0.92605  Biso   1.000  Cu
  Cu45     1.0000 0.14751  0.42605  0.07058  Biso   1.000  Cu
  Cu46     1.0000 0.35249  0.42307  0.27854  Biso   1.000  Cu
  Cu47     1.0000 0.64453  0.07395  0.22146  Biso   1.000  Cu
  Cu48     1.0000 0.85547  0.07693  0.42942  Biso   1.000  Cu
  H1       1.0000 0.31350  0.85490  0.27320  Biso   1.000  H
  H2       1.0000 0.45980  0.98460  0.36680  Biso   1.000  H
  H3       1.0000 0.14730  0.87670  0.32080  Biso   1.000  H
  H4       1.0000 0.20170  0.02310  0.43920  Biso   1.000  H
  H5       1.0000 0.44510  0.05110  0.42960  Biso   1.000  H
  H6       1.0000 0.30350  0.06410  0.48140  Biso   1.000  H
  H7       1.0000 0.08170  0.04030  0.22680  Biso   1.000  H
  H8       1.0000 0.11780  0.09300  0.13320  Biso   1.000  H
  H9       1.0000 0.05590  0.82650  0.17920  Biso   1.000  H
  H10      1.0000 0.08390  0.76250  0.06080  Biso   1.000  H
  H11      1.0000 0.12150  0.01550  0.07040  Biso   1.000  H
  H12      1.0000 0.08270  0.82210  0.01860  Biso   1.000  H
  H13      1.0000 0.41830  0.64510  0.95860  Biso   1.000  H
  H14      1.0000 0.38220  0.51540  0.97520  Biso   1.000  H
  H15      1.0000 0.44410  0.62330  0.77060  Biso   1.000  H
  H16      1.0000 0.41610  0.47690  0.67860  Biso   1.000  H
  H17      1.0000 0.37850  0.44890  0.89400  Biso   1.000  H
  H18      1.0000 0.41730  0.43590  0.73940  Biso   1.000  H
  H19      1.0000 0.18650  0.45970  0.54140  Biso   1.000  H
  H20      1.0000 0.04020  0.40700  0.52480  Biso   1.000  H
  H21      1.0000 0.35270  0.67350  0.72940  Biso   1.000  H
  H22      1.0000 0.29830  0.73750  0.82140  Biso   1.000  H
  H23      1.0000 0.05490  0.48450  0.60600  Biso   1.000  H
  H24      1.0000 0.19650  0.67790  0.76060  Biso   1.000  H
  H25      1.0000 0.45860  0.41830  0.14510  Biso   1.000  H
  H26      1.0000 0.47520  0.38220  0.01540  Biso   1.000  H
  H27      1.0000 0.27060  0.44410  0.12330  Biso   1.000  H
  H28      1.0000 0.17860  0.41610  0.97690  Biso   1.000  H
  H29      1.0000 0.39400  0.37850  0.94890  Biso   1.000  H
  H30      1.0000 0.23940  0.41730  0.93590  Biso   1.000  H
  H31      1.0000 0.04140  0.18650  0.95970  Biso   1.000  H
  H32      1.0000 0.02480  0.04020  0.90700  Biso   1.000  H
  H33      1.0000 0.22940  0.35270  0.17350  Biso   1.000  H
  H34      1.0000 0.32140  0.29830  0.23750  Biso   1.000  H
  H35      1.0000 0.10600  0.05490  0.98450  Biso   1.000  H
  H36      1.0000 0.26060  0.19650  0.17790  Biso   1.000  H
  H37      1.0000 0.77320  0.31350  0.35490  Biso   1.000  H
  H38      1.0000 0.86680  0.45980  0.48460  Biso   1.000  H
  H39      1.0000 0.82080  0.14730  0.37670  Biso   1.000  H
  H40      1.0000 0.93920  0.20170  0.52310  Biso   1.000  H
  H41      1.0000 0.92960  0.44510  0.55110  Biso   1.000  H
  H42      1.0000 0.98140  0.30350  0.56410  Biso   1.000  H
  H43      1.0000 0.72680  0.08170  0.54030  Biso   1.000  H
  H44      1.0000 0.63320  0.11780  0.59300  Biso   1.000  H
  H45      1.0000 0.67920  0.05590  0.32650  Biso   1.000  H
  H46      1.0000 0.56080  0.08390  0.26250  Biso   1.000  H
  H47      1.0000 0.57040  0.12150  0.51550  Biso   1.000  H
  H48      1.0000 0.51860  0.08270  0.32210  Biso   1.000  H
  H49      1.0000 0.04030  0.72680  0.58170  Biso   1.000  H
  H50      1.0000 0.09300  0.63320  0.61780  Biso   1.000  H
  H51      1.0000 0.82650  0.67920  0.55590  Biso   1.000  H
  H52      1.0000 0.76250  0.56080  0.58390  Biso   1.000  H
  H53      1.0000 0.01550  0.57040  0.62150  Biso   1.000  H
  H54      1.0000 0.82210  0.51860  0.58270  Biso   1.000  H
  H55      1.0000 0.85490  0.77320  0.81350  Biso   1.000  H
  H56      1.0000 0.98460  0.86680  0.95980  Biso   1.000  H
  H57      1.0000 0.87670  0.82080  0.64730  Biso   1.000  H
  H58      1.0000 0.02310  0.93920  0.70170  Biso   1.000  H
  H59      1.0000 0.05110  0.92960  0.94510  Biso   1.000  H
  H60      1.0000 0.06410  0.98140  0.80350  Biso   1.000  H
  H61      1.0000 0.45970  0.04140  0.68650  Biso   1.000  H
  H62      1.0000 0.40700  0.02480  0.54020  Biso   1.000  H
  H63      1.0000 0.67350  0.22940  0.85270  Biso   1.000  H
  H64      1.0000 0.73750  0.32140  0.79830  Biso   1.000  H
  H65      1.0000 0.48450  0.10600  0.55490  Biso   1.000  H
  H66      1.0000 0.67790  0.26060  0.69650  Biso   1.000  H
  H67      1.0000 0.64510  0.45860  0.91830  Biso   1.000  H
  H68      1.0000 0.51540  0.47520  0.88220  Biso   1.000  H
  H69      1.0000 0.62330  0.27060  0.94410  Biso   1.000  H
  H70      1.0000 0.47690  0.17860  0.91610  Biso   1.000  H
  H71      1.0000 0.44890  0.39400  0.87850  Biso   1.000  H
  H72      1.0000 0.43590  0.23940  0.91730  Biso   1.000  H
  H73      1.0000 0.64510  0.18650  0.22680  Biso   1.000  H
  H74      1.0000 0.51540  0.04020  0.13320  Biso   1.000  H
  H75      1.0000 0.62330  0.35270  0.17920  Biso   1.000  H
  H76      1.0000 0.47690  0.29830  0.06080  Biso   1.000  H
  H77      1.0000 0.44890  0.05490  0.07040  Biso   1.000  H
  H78      1.0000 0.43590  0.19650  0.01860  Biso   1.000  H
  H79      1.0000 0.45970  0.41830  0.27320  Biso   1.000  H
  H80      1.0000 0.40700  0.38220  0.36680  Biso   1.000  H
  H81      1.0000 0.67350  0.44410  0.32080  Biso   1.000  H
  H82      1.0000 0.73750  0.41610  0.43920  Biso   1.000  H
  H83      1.0000 0.48450  0.37850  0.42960  Biso   1.000  H
  H84      1.0000 0.67790  0.41730  0.48140  Biso   1.000  H
  H85      1.0000 0.85490  0.08170  0.54140  Biso   1.000  H
  H86      1.0000 0.98460  0.11780  0.52480  Biso   1.000  H
  H87      1.0000 0.87670  0.05590  0.72940  Biso   1.000  H
  H88      1.0000 0.02310  0.08390  0.82140  Biso   1.000  H
  H89      1.0000 0.05110  0.12150  0.60600  Biso   1.000  H
  H90      1.0000 0.06410  0.08270  0.76060  Biso   1.000  H
  H91      1.0000 0.04030  0.31350  0.95860  Biso   1.000  H
  H92      1.0000 0.09300  0.45980  0.97520  Biso   1.000  H
  H93      1.0000 0.82650  0.14730  0.77060  Biso   1.000  H
  H94      1.0000 0.76250  0.20170  0.67860  Biso   1.000  H
  H95      1.0000 0.01550  0.44510  0.89400  Biso   1.000  H
  H96      1.0000 0.82210  0.30350  0.73940  Biso   1.000  H
  H97      1.0000 0.08170  0.04140  0.35490  Biso   1.000  H
  H98      1.0000 0.11780  0.02480  0.48460  Biso   1.000  H
  H99      1.0000 0.05590  0.22940  0.37670  Biso   1.000  H
  H100     1.0000 0.08390  0.32140  0.52310  Biso   1.000  H
  H101     1.0000 0.12150  0.10600  0.55110  Biso   1.000  H
  H102     1.0000 0.08270  0.26060  0.56410  Biso   1.000  H
  H103     1.0000 0.31350  0.45860  0.54030  Biso   1.000  H
  H104     1.0000 0.45980  0.47520  0.59300  Biso   1.000  H
  H105     1.0000 0.14730  0.27060  0.32650  Biso   1.000  H
  H106     1.0000 0.20170  0.17860  0.26250  Biso   1.000  H
  H107     1.0000 0.44510  0.39400  0.51550  Biso   1.000  H
  H108     1.0000 0.30350  0.23940  0.32210  Biso   1.000  H
  H109     1.0000 0.18650  0.72680  0.14510  Biso   1.000  H
  H110     1.0000 0.04020  0.63320  0.01540  Biso   1.000  H
  H111     1.0000 0.35270  0.67920  0.12330  Biso   1.000  H
  H112     1.0000 0.29830  0.56080  0.97690  Biso   1.000  H
  H113     1.0000 0.05490  0.57040  0.94890  Biso   1.000  H
  H114     1.0000 0.19650  0.51860  0.93590  Biso   1.000  H
  H115     1.0000 0.41830  0.77320  0.95970  Biso   1.000  H
  H116     1.0000 0.38220  0.86680  0.90700  Biso   1.000  H
  H117     1.0000 0.44410  0.82080  0.17350  Biso   1.000  H
  H118     1.0000 0.41610  0.93920  0.23750  Biso   1.000  H
  H119     1.0000 0.37850  0.92960  0.98450  Biso   1.000  H
  H120     1.0000 0.41730  0.98140  0.17790  Biso   1.000  H
  H121     1.0000 0.77320  0.45970  0.91830  Biso   1.000  H
  H122     1.0000 0.86680  0.40700  0.88220  Biso   1.000  H
  H123     1.0000 0.82080  0.67350  0.94410  Biso   1.000  H
  H124     1.0000 0.93920  0.73750  0.91610  Biso   1.000  H
  H125     1.0000 0.92960  0.48450  0.87850  Biso   1.000  H
  H126     1.0000 0.98140  0.67790  0.91730  Biso   1.000  H
  H127     1.0000 0.72680  0.64510  0.68650  Biso   1.000  H
  H128     1.0000 0.63320  0.51540  0.54020  Biso   1.000  H
  H129     1.0000 0.67920  0.62330  0.85270  Biso   1.000  H
  H130     1.0000 0.56080  0.47690  0.79830  Biso   1.000  H
  H131     1.0000 0.57040  0.44890  0.55490  Biso   1.000  H
  H132     1.0000 0.51860  0.43590  0.69650  Biso   1.000  H
  H133     1.0000 0.45860  0.04030  0.81350  Biso   1.000  H
  H134     1.0000 0.47520  0.09300  0.95980  Biso   1.000  H
  H135     1.0000 0.27060  0.82650  0.64730  Biso   1.000  H
  H136     1.0000 0.17860  0.76250  0.70170  Biso   1.000  H
  H137     1.0000 0.39400  0.01550  0.94510  Biso   1.000  H
  H138     1.0000 0.23940  0.82210  0.80350  Biso   1.000  H
  H139     1.0000 0.04140  0.85490  0.58170  Biso   1.000  H
  H140     1.0000 0.02480  0.98460  0.61780  Biso   1.000  H
  H141     1.0000 0.22940  0.87670  0.55590  Biso   1.000  H
  H142     1.0000 0.32140  0.02310  0.58390  Biso   1.000  H
  H143     1.0000 0.10600  0.05110  0.62150  Biso   1.000  H
  H144     1.0000 0.26060  0.06410  0.58270  Biso   1.000  H
  H145     1.0000 0.68650  0.14510  0.72680  Biso   1.000  H
  H146     1.0000 0.54020  0.01540  0.63320  Biso   1.000  H
  H147     1.0000 0.85270  0.12330  0.67920  Biso   1.000  H
  H148     1.0000 0.79830  0.97690  0.56080  Biso   1.000  H
  H149     1.0000 0.55490  0.94890  0.57040  Biso   1.000  H
  H150     1.0000 0.69650  0.93590  0.51860  Biso   1.000  H
  H151     1.0000 0.91830  0.95970  0.77320  Biso   1.000  H
  H152     1.0000 0.88220  0.90700  0.86680  Biso   1.000  H
  H153     1.0000 0.94410  0.17350  0.82080  Biso   1.000  H
  H154     1.0000 0.91610  0.23750  0.93920  Biso   1.000  H
  H155     1.0000 0.87850  0.98450  0.92960  Biso   1.000  H
  H156     1.0000 0.91730  0.17790  0.98140  Biso   1.000  H
  H157     1.0000 0.58170  0.35490  0.04140  Biso   1.000  H
  H158     1.0000 0.61780  0.48460  0.02480  Biso   1.000  H
  H159     1.0000 0.55590  0.37670  0.22940  Biso   1.000  H
  H160     1.0000 0.58390  0.52310  0.32140  Biso   1.000  H
  H161     1.0000 0.62150  0.55110  0.10600  Biso   1.000  H
  H162     1.0000 0.58270  0.56410  0.26060  Biso   1.000  H
  H163     1.0000 0.81350  0.54030  0.45860  Biso   1.000  H
  H164     1.0000 0.95980  0.59300  0.47520  Biso   1.000  H
  H165     1.0000 0.64730  0.32650  0.27060  Biso   1.000  H
  H166     1.0000 0.70170  0.26250  0.17860  Biso   1.000  H
  H167     1.0000 0.94510  0.51550  0.39400  Biso   1.000  H
  H168     1.0000 0.80350  0.32210  0.23940  Biso   1.000  H
  H169     1.0000 0.54140  0.58170  0.85490  Biso   1.000  H
  H170     1.0000 0.52480  0.61780  0.98460  Biso   1.000  H
  H171     1.0000 0.72940  0.55590  0.87670  Biso   1.000  H
  H172     1.0000 0.82140  0.58390  0.02310  Biso   1.000  H
  H173     1.0000 0.60600  0.62150  0.05110  Biso   1.000  H
  H174     1.0000 0.76060  0.58270  0.06410  Biso   1.000  H
  H175     1.0000 0.95860  0.81350  0.04030  Biso   1.000  H
  H176     1.0000 0.97520  0.95980  0.09300  Biso   1.000  H
  H177     1.0000 0.77060  0.64730  0.82650  Biso   1.000  H
  H178     1.0000 0.67860  0.70170  0.76250  Biso   1.000  H
  H179     1.0000 0.89400  0.94510  0.01550  Biso   1.000  H
  H180     1.0000 0.73940  0.80350  0.82210  Biso   1.000  H
  H181     1.0000 0.22680  0.68650  0.64510  Biso   1.000  H
  H182     1.0000 0.13320  0.54020  0.51540  Biso   1.000  H
  H183     1.0000 0.17920  0.85270  0.62330  Biso   1.000  H
  H184     1.0000 0.06080  0.79830  0.47690  Biso   1.000  H
  H185     1.0000 0.07040  0.55490  0.44890  Biso   1.000  H
  H186     1.0000 0.01860  0.69650  0.43590  Biso   1.000  H
  H187     1.0000 0.27320  0.91830  0.45970  Biso   1.000  H
  H188     1.0000 0.36680  0.88220  0.40700  Biso   1.000  H
  H189     1.0000 0.32080  0.94410  0.67350  Biso   1.000  H
  H190     1.0000 0.43920  0.91610  0.73750  Biso   1.000  H
  H191     1.0000 0.42960  0.87850  0.48450  Biso   1.000  H
  H192     1.0000 0.48140  0.91730  0.67790  Biso   1.000  H
  H193     1.0000 0.95970  0.27320  0.41830  Biso   1.000  H
  H194     1.0000 0.90700  0.36680  0.38220  Biso   1.000  H
  H195     1.0000 0.17350  0.32080  0.44410  Biso   1.000  H
  H196     1.0000 0.23750  0.43920  0.41610  Biso   1.000  H
  H197     1.0000 0.98450  0.42960  0.37850  Biso   1.000  H
  H198     1.0000 0.17790  0.48140  0.41730  Biso   1.000  H
  H199     1.0000 0.14510  0.22680  0.18650  Biso   1.000  H
  H200     1.0000 0.01540  0.13320  0.04020  Biso   1.000  H
  H201     1.0000 0.12330  0.17920  0.35270  Biso   1.000  H
  H202     1.0000 0.97690  0.06080  0.29830  Biso   1.000  H
  H203     1.0000 0.94890  0.07040  0.05490  Biso   1.000  H
  H204     1.0000 0.93590  0.01860  0.19650  Biso   1.000  H
  H205     1.0000 0.54030  0.95860  0.31350  Biso   1.000  H
  H206     1.0000 0.59300  0.97520  0.45980  Biso   1.000  H
  H207     1.0000 0.32650  0.77060  0.14730  Biso   1.000  H
  H208     1.0000 0.26250  0.67860  0.20170  Biso   1.000  H
  H209     1.0000 0.51550  0.89400  0.44510  Biso   1.000  H
  H210     1.0000 0.32210  0.73940  0.30350  Biso   1.000  H
  H211     1.0000 0.35490  0.54140  0.08170  Biso   1.000  H
  H212     1.0000 0.48460  0.52480  0.11780  Biso   1.000  H
  H213     1.0000 0.37670  0.72940  0.05590  Biso   1.000  H
  H214     1.0000 0.52310  0.82140  0.08390  Biso   1.000  H
  H215     1.0000 0.55110  0.60600  0.12150  Biso   1.000  H
  H216     1.0000 0.56410  0.76060  0.08270  Biso   1.000  H
  H217     1.0000 0.35490  0.81350  0.77320  Biso   1.000  H
  H218     1.0000 0.48460  0.95980  0.86680  Biso   1.000  H
  H219     1.0000 0.37670  0.64730  0.82080  Biso   1.000  H
  H220     1.0000 0.52310  0.70170  0.93920  Biso   1.000  H
  H221     1.0000 0.55110  0.94510  0.92960  Biso   1.000  H
  H222     1.0000 0.56410  0.80350  0.98140  Biso   1.000  H
  H223     1.0000 0.54030  0.58170  0.72680  Biso   1.000  H
  H224     1.0000 0.59300  0.61780  0.63320  Biso   1.000  H
  H225     1.0000 0.32650  0.55590  0.67920  Biso   1.000  H
  H226     1.0000 0.26250  0.58390  0.56080  Biso   1.000  H
  H227     1.0000 0.51550  0.62150  0.57040  Biso   1.000  H
  H228     1.0000 0.32210  0.58270  0.51860  Biso   1.000  H
  H229     1.0000 0.14510  0.91830  0.45860  Biso   1.000  H
  H230     1.0000 0.01540  0.88220  0.47520  Biso   1.000  H
  H231     1.0000 0.12330  0.94410  0.27060  Biso   1.000  H
  H232     1.0000 0.97690  0.91610  0.17860  Biso   1.000  H
  H233     1.0000 0.94890  0.87850  0.39400  Biso   1.000  H
  H234     1.0000 0.93590  0.91730  0.23940  Biso   1.000  H
  H235     1.0000 0.95970  0.68650  0.04140  Biso   1.000  H
  H236     1.0000 0.90700  0.54020  0.02480  Biso   1.000  H
  H237     1.0000 0.17350  0.85270  0.22940  Biso   1.000  H
  H238     1.0000 0.23750  0.79830  0.32140  Biso   1.000  H
  H239     1.0000 0.98450  0.55490  0.10600  Biso   1.000  H
  H240     1.0000 0.17790  0.69650  0.26060  Biso   1.000  H
  H241     1.0000 0.91830  0.95860  0.64510  Biso   1.000  H
  H242     1.0000 0.88220  0.97520  0.51540  Biso   1.000  H
  H243     1.0000 0.94410  0.77060  0.62330  Biso   1.000  H
  H244     1.0000 0.91610  0.67860  0.47690  Biso   1.000  H
  H245     1.0000 0.87850  0.89400  0.44890  Biso   1.000  H
  H246     1.0000 0.91730  0.73940  0.43590  Biso   1.000  H
  H247     1.0000 0.68650  0.54140  0.45970  Biso   1.000  H
  H248     1.0000 0.54020  0.52480  0.40700  Biso   1.000  H
  H249     1.0000 0.85270  0.72940  0.67350  Biso   1.000  H
  H250     1.0000 0.79830  0.82140  0.73750  Biso   1.000  H
  H251     1.0000 0.55490  0.60600  0.48450  Biso   1.000  H
  H252     1.0000 0.69650  0.76060  0.67790  Biso   1.000  H
  H253     1.0000 0.81350  0.27320  0.85490  Biso   1.000  H
  H254     1.0000 0.95980  0.36680  0.98460  Biso   1.000  H
  H255     1.0000 0.64730  0.32080  0.87670  Biso   1.000  H
  H256     1.0000 0.70170  0.43920  0.02310  Biso   1.000  H
  H257     1.0000 0.94510  0.42960  0.05110  Biso   1.000  H
  H258     1.0000 0.80350  0.48140  0.06410  Biso   1.000  H
  H259     1.0000 0.58170  0.22680  0.04030  Biso   1.000  H
  H260     1.0000 0.61780  0.13320  0.09300  Biso   1.000  H
  H261     1.0000 0.55590  0.17920  0.82650  Biso   1.000  H
  H262     1.0000 0.58390  0.06080  0.76250  Biso   1.000  H
  H263     1.0000 0.62150  0.07040  0.01550  Biso   1.000  H
  H264     1.0000 0.58270  0.01860  0.82210  Biso   1.000  H
  H265     1.0000 0.22680  0.54030  0.08170  Biso   1.000  H
  H266     1.0000 0.13320  0.59300  0.11780  Biso   1.000  H
  H267     1.0000 0.17920  0.32650  0.05590  Biso   1.000  H
  H268     1.0000 0.06080  0.26250  0.08390  Biso   1.000  H
  H269     1.0000 0.07040  0.51550  0.12150  Biso   1.000  H
  H270     1.0000 0.01860  0.32210  0.08270  Biso   1.000  H
  H271     1.0000 0.27320  0.35490  0.31350  Biso   1.000  H
  H272     1.0000 0.36680  0.48460  0.45980  Biso   1.000  H
  H273     1.0000 0.32080  0.37670  0.14730  Biso   1.000  H
  H274     1.0000 0.43920  0.52310  0.20170  Biso   1.000  H
  H275     1.0000 0.42960  0.55110  0.44510  Biso   1.000  H
  H276     1.0000 0.48140  0.56410  0.30350  Biso   1.000  H
  H277     1.0000 0.54140  0.95970  0.18650  Biso   1.000  H
  H278     1.0000 0.52480  0.90700  0.04020  Biso   1.000  H
  H279     1.0000 0.72940  0.17350  0.35270  Biso   1.000  H
  H280     1.0000 0.82140  0.23750  0.29830  Biso   1.000  H
  H281     1.0000 0.60600  0.98450  0.05490  Biso   1.000  H
  H282     1.0000 0.76060  0.17790  0.19650  Biso   1.000  H
  H283     1.0000 0.95860  0.14510  0.41830  Biso   1.000  H
  H284     1.0000 0.97520  0.01540  0.38220  Biso   1.000  H
  H285     1.0000 0.77060  0.12330  0.44410  Biso   1.000  H
  H286     1.0000 0.67860  0.97690  0.41610  Biso   1.000  H
  H287     1.0000 0.89400  0.94890  0.37850  Biso   1.000  H
  H288     1.0000 0.73940  0.93590  0.41730  Biso   1.000  H
  C1       1.0000 0.34237  0.89036  0.30013  Biso   1.000  C
  C2       1.0000 0.24402  0.99051  0.40985  Biso   1.000  C
  C3       1.0000 0.42231  0.96065  0.35092  Biso   1.000  C
  C4       1.0000 0.38790  0.97317  0.36673  Biso   1.000  C
  C5       1.0000 0.17092  0.91305  0.34919  Biso   1.000  C
  C6       1.0000 0.19984  0.99289  0.41393  Biso   1.000  C
  C7       1.0000 0.40800  0.02627  0.41367  Biso   1.000  C
  C8       1.0000 0.30040  0.03760  0.45100  Biso   1.000  C
  C9       1.0000 0.09023  0.04224  0.19987  Biso   1.000  C
  C10      1.0000 0.08066  0.83417  0.09015  Biso   1.000  C
  C11      1.0000 0.10973  0.07139  0.14908  Biso   1.000  C
  C12      1.0000 0.10644  0.02117  0.13327  Biso   1.000  C
  C13      1.0000 0.06386  0.82173  0.15081  Biso   1.000  C
  C14      1.0000 0.07896  0.78591  0.08607  Biso   1.000  C
  C15      1.0000 0.11260  0.99433  0.08633  Biso   1.000  C
  C16      1.0000 0.08660  0.84940  0.04900  Biso   1.000  C
  C17      1.0000 0.40977  0.60964  0.95201  Biso   1.000  C
  C18      1.0000 0.41934  0.50949  0.75351  Biso   1.000  C
  C19      1.0000 0.39027  0.53935  0.96166  Biso   1.000  C
  C20      1.0000 0.39356  0.52683  0.91473  Biso   1.000  C
  C21      1.0000 0.43614  0.58695  0.75787  Biso   1.000  C
  C22      1.0000 0.42104  0.50711  0.70695  Biso   1.000  C
  C23      1.0000 0.38740  0.47373  0.88173  Biso   1.000  C
  C24      1.0000 0.41340  0.46240  0.76280  Biso   1.000  C
  C25      1.0000 0.15763  0.45776  0.54799  Biso   1.000  C
  C26      1.0000 0.25598  0.66583  0.74649  Biso   1.000  C
  C27      1.0000 0.07769  0.42861  0.53834  Biso   1.000  C
  C28      1.0000 0.11210  0.47883  0.58527  Biso   1.000  C
  C29      1.0000 0.32908  0.67827  0.74213  Biso   1.000  C
  C30      1.0000 0.30016  0.71409  0.79305  Biso   1.000  C
  C31      1.0000 0.09200  0.50567  0.61827  Biso   1.000  C
  C32      1.0000 0.19960  0.65060  0.73720  Biso   1.000  C
  C33      1.0000 0.45201  0.40977  0.10964  Biso   1.000  C
  C34      1.0000 0.25351  0.41934  0.00949  Biso   1.000  C
  C35      1.0000 0.46166  0.39027  0.03935  Biso   1.000  C
  C36      1.0000 0.41473  0.39356  0.02683  Biso   1.000  C
  C37      1.0000 0.25787  0.43614  0.08695  Biso   1.000  C
  C38      1.0000 0.20695  0.42104  0.00711  Biso   1.000  C
  C39      1.0000 0.38173  0.38740  0.97373  Biso   1.000  C
  C40      1.0000 0.26280  0.41340  0.96240  Biso   1.000  C
  C41      1.0000 0.04799  0.15763  0.95776  Biso   1.000  C
  C42      1.0000 0.24649  0.25598  0.16583  Biso   1.000  C
  C43      1.0000 0.03834  0.07769  0.92861  Biso   1.000  C
  C44      1.0000 0.08527  0.11210  0.97883  Biso   1.000  C
  C45      1.0000 0.24213  0.32908  0.17827  Biso   1.000  C
  C46      1.0000 0.29305  0.30016  0.21409  Biso   1.000  C
  C47      1.0000 0.11827  0.09200  0.00567  Biso   1.000  C
  C48      1.0000 0.23720  0.19960  0.15060  Biso   1.000  C
  C49      1.0000 0.80013  0.34237  0.39036  Biso   1.000  C
  C50      1.0000 0.90985  0.24402  0.49051  Biso   1.000  C
  C51      1.0000 0.85092  0.42231  0.46065  Biso   1.000  C
  C52      1.0000 0.86673  0.38790  0.47317  Biso   1.000  C
  C53      1.0000 0.84919  0.17092  0.41305  Biso   1.000  C
  C54      1.0000 0.91393  0.19984  0.49289  Biso   1.000  C
  C55      1.0000 0.91367  0.40800  0.52627  Biso   1.000  C
  C56      1.0000 0.95100  0.30040  0.53760  Biso   1.000  C
  C57      1.0000 0.69987  0.09023  0.54224  Biso   1.000  C
  C58      1.0000 0.59015  0.08066  0.33417  Biso   1.000  C
  C59      1.0000 0.64908  0.10973  0.57139  Biso   1.000  C
  C60      1.0000 0.63327  0.10644  0.52117  Biso   1.000  C
  C61      1.0000 0.65081  0.06386  0.32173  Biso   1.000  C
  C62      1.0000 0.58607  0.07896  0.28591  Biso   1.000  C
  C63      1.0000 0.58633  0.11260  0.49433  Biso   1.000  C
  C64      1.0000 0.54900  0.08660  0.34940  Biso   1.000  C
  C65      1.0000 0.04224  0.69987  0.59023  Biso   1.000  C
  C66      1.0000 0.83417  0.59015  0.58066  Biso   1.000  C
  C67      1.0000 0.07139  0.64908  0.60973  Biso   1.000  C
  C68      1.0000 0.02117  0.63327  0.60644  Biso   1.000  C
  C69      1.0000 0.82173  0.65081  0.56386  Biso   1.000  C
  C70      1.0000 0.78591  0.58607  0.57896  Biso   1.000  C
  C71      1.0000 0.99433  0.58633  0.61260  Biso   1.000  C
  C72      1.0000 0.84940  0.54900  0.58660  Biso   1.000  C
  C73      1.0000 0.89036  0.80013  0.84237  Biso   1.000  C
  C74      1.0000 0.99051  0.90985  0.74402  Biso   1.000  C
  C75      1.0000 0.96065  0.85092  0.92231  Biso   1.000  C
  C76      1.0000 0.97317  0.86673  0.88790  Biso   1.000  C
  C77      1.0000 0.91305  0.84919  0.67092  Biso   1.000  C
  C78      1.0000 0.99289  0.91393  0.69984  Biso   1.000  C
  C79      1.0000 0.02627  0.91367  0.90800  Biso   1.000  C
  C80      1.0000 0.03760  0.95100  0.80040  Biso   1.000  C
  C81      1.0000 0.45776  0.04799  0.65763  Biso   1.000  C
  C82      1.0000 0.66583  0.24649  0.75598  Biso   1.000  C
  C83      1.0000 0.42861  0.03834  0.57769  Biso   1.000  C
  C84      1.0000 0.47883  0.08527  0.61210  Biso   1.000  C
  C85      1.0000 0.67827  0.24213  0.82908  Biso   1.000  C
  C86      1.0000 0.71409  0.29305  0.80016  Biso   1.000  C
  C87      1.0000 0.50567  0.11827  0.59200  Biso   1.000  C
  C88      1.0000 0.65060  0.23720  0.69960  Biso   1.000  C
  C89      1.0000 0.60964  0.45201  0.90977  Biso   1.000  C
  C90      1.0000 0.50949  0.25351  0.91934  Biso   1.000  C
  C91      1.0000 0.53935  0.46166  0.89027  Biso   1.000  C
  C92      1.0000 0.52683  0.41473  0.89356  Biso   1.000  C
  C93      1.0000 0.58695  0.25787  0.93614  Biso   1.000  C
  C94      1.0000 0.50711  0.20695  0.92104  Biso   1.000  C
  C95      1.0000 0.47373  0.38173  0.88740  Biso   1.000  C
  C96      1.0000 0.46240  0.26280  0.91340  Biso   1.000  C
  C97      1.0000 0.60964  0.15763  0.19987  Biso   1.000  C
  C98      1.0000 0.50949  0.25598  0.09015  Biso   1.000  C
  C99      1.0000 0.53935  0.07769  0.14908  Biso   1.000  C
  C100     1.0000 0.52683  0.11210  0.13327  Biso   1.000  C
  C101     1.0000 0.58695  0.32908  0.15081  Biso   1.000  C
  C102     1.0000 0.50711  0.30016  0.08607  Biso   1.000  C
  C103     1.0000 0.47373  0.09200  0.08633  Biso   1.000  C
  C104     1.0000 0.46240  0.19960  0.04900  Biso   1.000  C
  C105     1.0000 0.45776  0.40977  0.30013  Biso   1.000  C
  C106     1.0000 0.66583  0.41934  0.40985  Biso   1.000  C
  C107     1.0000 0.42861  0.39027  0.35092  Biso   1.000  C
  C108     1.0000 0.47883  0.39356  0.36673  Biso   1.000  C
  C109     1.0000 0.67827  0.43614  0.34919  Biso   1.000  C
  C110     1.0000 0.71409  0.42104  0.41393  Biso   1.000  C
  C111     1.0000 0.50567  0.38740  0.41367  Biso   1.000  C
  C112     1.0000 0.65060  0.41340  0.45100  Biso   1.000  C
  C113     1.0000 0.89036  0.09023  0.54799  Biso   1.000  C
  C114     1.0000 0.99051  0.08066  0.74649  Biso   1.000  C
  C115     1.0000 0.96065  0.10973  0.53834  Biso   1.000  C
  C116     1.0000 0.97317  0.10644  0.58527  Biso   1.000  C
  C117     1.0000 0.91305  0.06386  0.74213  Biso   1.000  C
  C118     1.0000 0.99289  0.07896  0.79305  Biso   1.000  C
  C119     1.0000 0.02627  0.11260  0.61827  Biso   1.000  C
  C120     1.0000 0.03760  0.08660  0.73720  Biso   1.000  C
  C121     1.0000 0.04224  0.34237  0.95201  Biso   1.000  C
  C122     1.0000 0.83417  0.24402  0.75351  Biso   1.000  C
  C123     1.0000 0.07139  0.42231  0.96166  Biso   1.000  C
  C124     1.0000 0.02117  0.38790  0.91473  Biso   1.000  C
  C125     1.0000 0.82173  0.17092  0.75787  Biso   1.000  C
  C126     1.0000 0.78591  0.19984  0.70695  Biso   1.000  C
  C127     1.0000 0.99433  0.40800  0.88173  Biso   1.000  C
  C128     1.0000 0.84940  0.30040  0.76280  Biso   1.000  C
  C129     1.0000 0.09023  0.04799  0.39036  Biso   1.000  C
  C130     1.0000 0.08066  0.24649  0.49051  Biso   1.000  C
  C131     1.0000 0.10973  0.03834  0.46065  Biso   1.000  C
  C132     1.0000 0.10644  0.08527  0.47317  Biso   1.000  C
  C133     1.0000 0.06386  0.24213  0.41305  Biso   1.000  C
  C134     1.0000 0.07896  0.29305  0.49289  Biso   1.000  C
  C135     1.0000 0.11260  0.11827  0.52627  Biso   1.000  C
  C136     1.0000 0.08660  0.23720  0.53760  Biso   1.000  C
  C137     1.0000 0.34237  0.45201  0.54224  Biso   1.000  C
  C138     1.0000 0.24402  0.25351  0.33417  Biso   1.000  C
  C139     1.0000 0.42231  0.46166  0.57139  Biso   1.000  C
  C140     1.0000 0.38790  0.41473  0.52117  Biso   1.000  C
  C141     1.0000 0.17092  0.25787  0.32173  Biso   1.000  C
  C142     1.0000 0.19984  0.20695  0.28591  Biso   1.000  C
  C143     1.0000 0.40800  0.38173  0.49433  Biso   1.000  C
  C144     1.0000 0.30040  0.26280  0.34940  Biso   1.000  C
  C145     1.0000 0.15763  0.69987  0.10964  Biso   1.000  C
  C146     1.0000 0.25598  0.59015  0.00949  Biso   1.000  C
  C147     1.0000 0.07769  0.64908  0.03935  Biso   1.000  C
  C148     1.0000 0.11210  0.63327  0.02683  Biso   1.000  C
  C149     1.0000 0.32908  0.65081  0.08695  Biso   1.000  C
  C150     1.0000 0.30016  0.58607  0.00711  Biso   1.000  C
  C151     1.0000 0.09200  0.58633  0.97373  Biso   1.000  C
  C152     1.0000 0.19960  0.54900  0.96240  Biso   1.000  C
  C153     1.0000 0.40977  0.80013  0.95776  Biso   1.000  C
  C154     1.0000 0.41934  0.90985  0.16583  Biso   1.000  C
  C155     1.0000 0.39027  0.85092  0.92861  Biso   1.000  C
  C156     1.0000 0.39356  0.86673  0.97883  Biso   1.000  C
  C157     1.0000 0.43614  0.84919  0.17827  Biso   1.000  C
  C158     1.0000 0.42104  0.91393  0.21409  Biso   1.000  C
  C159     1.0000 0.38740  0.91367  0.00567  Biso   1.000  C
  C160     1.0000 0.41340  0.95100  0.15060  Biso   1.000  C
  C161     1.0000 0.80013  0.45776  0.90977  Biso   1.000  C
  C162     1.0000 0.90985  0.66583  0.91934  Biso   1.000  C
  C163     1.0000 0.85092  0.42861  0.89027  Biso   1.000  C
  C164     1.0000 0.86673  0.47883  0.89356  Biso   1.000  C
  C165     1.0000 0.84919  0.67827  0.93614  Biso   1.000  C
  C166     1.0000 0.91393  0.71409  0.92104  Biso   1.000  C
  C167     1.0000 0.91367  0.50567  0.88740  Biso   1.000  C
  C168     1.0000 0.95100  0.65060  0.91340  Biso   1.000  C
  C169     1.0000 0.69987  0.60964  0.65763  Biso   1.000  C
  C170     1.0000 0.59015  0.50949  0.75598  Biso   1.000  C
  C171     1.0000 0.64908  0.53935  0.57769  Biso   1.000  C
  C172     1.0000 0.63327  0.52683  0.61210  Biso   1.000  C
  C173     1.0000 0.65081  0.58695  0.82908  Biso   1.000  C
  C174     1.0000 0.58607  0.50711  0.80016  Biso   1.000  C
  C175     1.0000 0.58633  0.47373  0.59200  Biso   1.000  C
  C176     1.0000 0.54900  0.46240  0.69960  Biso   1.000  C
  C177     1.0000 0.45201  0.04224  0.84237  Biso   1.000  C
  C178     1.0000 0.25351  0.83417  0.74402  Biso   1.000  C
  C179     1.0000 0.46166  0.07139  0.92231  Biso   1.000  C
  C180     1.0000 0.41473  0.02117  0.88790  Biso   1.000  C
  C181     1.0000 0.25787  0.82173  0.67092  Biso   1.000  C
  C182     1.0000 0.20695  0.78591  0.69984  Biso   1.000  C
  C183     1.0000 0.38173  0.99433  0.90800  Biso   1.000  C
  C184     1.0000 0.26280  0.84940  0.80040  Biso   1.000  C
  C185     1.0000 0.04799  0.89036  0.59023  Biso   1.000  C
  C186     1.0000 0.24649  0.99051  0.58066  Biso   1.000  C
  C187     1.0000 0.03834  0.96065  0.60973  Biso   1.000  C
  C188     1.0000 0.08527  0.97317  0.60644  Biso   1.000  C
  C189     1.0000 0.24213  0.91305  0.56386  Biso   1.000  C
  C190     1.0000 0.29305  0.99289  0.57896  Biso   1.000  C
  C191     1.0000 0.11827  0.02627  0.61260  Biso   1.000  C
  C192     1.0000 0.23720  0.03760  0.58660  Biso   1.000  C
  C193     1.0000 0.65763  0.10964  0.69987  Biso   1.000  C
  C194     1.0000 0.75598  0.00949  0.59015  Biso   1.000  C
  C195     1.0000 0.57769  0.03935  0.64908  Biso   1.000  C
  C196     1.0000 0.61210  0.02683  0.63327  Biso   1.000  C
  C197     1.0000 0.82908  0.08695  0.65081  Biso   1.000  C
  C198     1.0000 0.80016  0.00711  0.58607  Biso   1.000  C
  C199     1.0000 0.59200  0.97373  0.58633  Biso   1.000  C
  C200     1.0000 0.69960  0.96240  0.54900  Biso   1.000  C
  C201     1.0000 0.90977  0.95776  0.80013  Biso   1.000  C
  C202     1.0000 0.91934  0.16583  0.90985  Biso   1.000  C
  C203     1.0000 0.89027  0.92861  0.85092  Biso   1.000  C
  C204     1.0000 0.89356  0.97883  0.86673  Biso   1.000  C
  C205     1.0000 0.93614  0.17827  0.84919  Biso   1.000  C
  C206     1.0000 0.92104  0.21409  0.91393  Biso   1.000  C
  C207     1.0000 0.88740  0.00567  0.91367  Biso   1.000  C
  C208     1.0000 0.91340  0.15060  0.95100  Biso   1.000  C
  C209     1.0000 0.59023  0.39036  0.04799  Biso   1.000  C
  C210     1.0000 0.58066  0.49051  0.24649  Biso   1.000  C
  C211     1.0000 0.60973  0.46065  0.03834  Biso   1.000  C
  C212     1.0000 0.60644  0.47317  0.08527  Biso   1.000  C
  C213     1.0000 0.56386  0.41305  0.24213  Biso   1.000  C
  C214     1.0000 0.57896  0.49289  0.29305  Biso   1.000  C
  C215     1.0000 0.61260  0.52627  0.11827  Biso   1.000  C
  C216     1.0000 0.58660  0.53760  0.23720  Biso   1.000  C
  C217     1.0000 0.84237  0.54224  0.45201  Biso   1.000  C
  C218     1.0000 0.74402  0.33417  0.25351  Biso   1.000  C
  C219     1.0000 0.92231  0.57139  0.46166  Biso   1.000  C
  C220     1.0000 0.88790  0.52117  0.41473  Biso   1.000  C
  C221     1.0000 0.67092  0.32173  0.25787  Biso   1.000  C
  C222     1.0000 0.69984  0.28591  0.20695  Biso   1.000  C
  C223     1.0000 0.90800  0.49433  0.38173  Biso   1.000  C
  C224     1.0000 0.80040  0.34940  0.26280  Biso   1.000  C
  C225     1.0000 0.54799  0.59023  0.89036  Biso   1.000  C
  C226     1.0000 0.74649  0.58066  0.99051  Biso   1.000  C
  C227     1.0000 0.53834  0.60973  0.96065  Biso   1.000  C
  C228     1.0000 0.58527  0.60644  0.97317  Biso   1.000  C
  C229     1.0000 0.74213  0.56386  0.91305  Biso   1.000  C
  C230     1.0000 0.79305  0.57896  0.99289  Biso   1.000  C
  C231     1.0000 0.61827  0.61260  0.02627  Biso   1.000  C
  C232     1.0000 0.73720  0.58660  0.03760  Biso   1.000  C
  C233     1.0000 0.95201  0.84237  0.04224  Biso   1.000  C
  C234     1.0000 0.75351  0.74402  0.83417  Biso   1.000  C
  C235     1.0000 0.96166  0.92231  0.07139  Biso   1.000  C
  C236     1.0000 0.91473  0.88790  0.02117  Biso   1.000  C
  C237     1.0000 0.75787  0.67092  0.82173  Biso   1.000  C
  C238     1.0000 0.70695  0.69984  0.78591  Biso   1.000  C
  C239     1.0000 0.88173  0.90800  0.99433  Biso   1.000  C
  C240     1.0000 0.76280  0.80040  0.84940  Biso   1.000  C
  C241     1.0000 0.19987  0.65763  0.60964  Biso   1.000  C
  C242     1.0000 0.09015  0.75598  0.50949  Biso   1.000  C
  C243     1.0000 0.14908  0.57769  0.53935  Biso   1.000  C
  C244     1.0000 0.13327  0.61210  0.52683  Biso   1.000  C
  C245     1.0000 0.15081  0.82908  0.58695  Biso   1.000  C
  C246     1.0000 0.08607  0.80016  0.50711  Biso   1.000  C
  C247     1.0000 0.08633  0.59200  0.47373  Biso   1.000  C
  C248     1.0000 0.04900  0.69960  0.46240  Biso   1.000  C
  C249     1.0000 0.30013  0.90977  0.45776  Biso   1.000  C
  C250     1.0000 0.40985  0.91934  0.66583  Biso   1.000  C
  C251     1.0000 0.35092  0.89027  0.42861  Biso   1.000  C
  C252     1.0000 0.36673  0.89356  0.47883  Biso   1.000  C
  C253     1.0000 0.34919  0.93614  0.67827  Biso   1.000  C
  C254     1.0000 0.41393  0.92104  0.71409  Biso   1.000  C
  C255     1.0000 0.41367  0.88740  0.50567  Biso   1.000  C
  C256     1.0000 0.45100  0.91340  0.65060  Biso   1.000  C
  C257     1.0000 0.95776  0.30013  0.40977  Biso   1.000  C
  C258     1.0000 0.16583  0.40985  0.41934  Biso   1.000  C
  C259     1.0000 0.92861  0.35092  0.39027  Biso   1.000  C
  C260     1.0000 0.97883  0.36673  0.39356  Biso   1.000  C
  C261     1.0000 0.17827  0.34919  0.43614  Biso   1.000  C
  C262     1.0000 0.21409  0.41393  0.42104  Biso   1.000  C
  C263     1.0000 0.00567  0.41367  0.38740  Biso   1.000  C
  C264     1.0000 0.15060  0.45100  0.41340  Biso   1.000  C
  C265     1.0000 0.10964  0.19987  0.15763  Biso   1.000  C
  C266     1.0000 0.00949  0.09015  0.25598  Biso   1.000  C
  C267     1.0000 0.03935  0.14908  0.07769  Biso   1.000  C
  C268     1.0000 0.02683  0.13327  0.11210  Biso   1.000  C
  C269     1.0000 0.08695  0.15081  0.32908  Biso   1.000  C
  C270     1.0000 0.00711  0.08607  0.30016  Biso   1.000  C
  C271     1.0000 0.97373  0.08633  0.09200  Biso   1.000  C
  C272     1.0000 0.96240  0.04900  0.19960  Biso   1.000  C
  C273     1.0000 0.54224  0.95201  0.34237  Biso   1.000  C
  C274     1.0000 0.33417  0.75351  0.24402  Biso   1.000  C
  C275     1.0000 0.57139  0.96166  0.42231  Biso   1.000  C
  C276     1.0000 0.52117  0.91473  0.38790  Biso   1.000  C
  C277     1.0000 0.32173  0.75787  0.17092  Biso   1.000  C
  C278     1.0000 0.28591  0.70695  0.19984  Biso   1.000  C
  C279     1.0000 0.49433  0.88173  0.40800  Biso   1.000  C
  C280     1.0000 0.34940  0.76280  0.30040  Biso   1.000  C
  C281     1.0000 0.39036  0.54799  0.09023  Biso   1.000  C
  C282     1.0000 0.49051  0.74649  0.08066  Biso   1.000  C
  C283     1.0000 0.46065  0.53834  0.10973  Biso   1.000  C
  C284     1.0000 0.47317  0.58527  0.10644  Biso   1.000  C
  C285     1.0000 0.41305  0.74213  0.06386  Biso   1.000  C
  C286     1.0000 0.49289  0.79305  0.07896  Biso   1.000  C
  C287     1.0000 0.52627  0.61827  0.11260  Biso   1.000  C
  C288     1.0000 0.53760  0.73720  0.08660  Biso   1.000  C
  C289     1.0000 0.39036  0.84237  0.80013  Biso   1.000  C
  C290     1.0000 0.49051  0.74402  0.90985  Biso   1.000  C
  C291     1.0000 0.46065  0.92231  0.85092  Biso   1.000  C
  C292     1.0000 0.47317  0.88790  0.86673  Biso   1.000  C
  C293     1.0000 0.41305  0.67092  0.84919  Biso   1.000  C
  C294     1.0000 0.49289  0.69984  0.91393  Biso   1.000  C
  C295     1.0000 0.52627  0.90800  0.91367  Biso   1.000  C
  C296     1.0000 0.53760  0.80040  0.95100  Biso   1.000  C
  C297     1.0000 0.54224  0.59023  0.69987  Biso   1.000  C
  C298     1.0000 0.33417  0.58066  0.59015  Biso   1.000  C
  C299     1.0000 0.57139  0.60973  0.64908  Biso   1.000  C
  C300     1.0000 0.52117  0.60644  0.63327  Biso   1.000  C
  C301     1.0000 0.32173  0.56386  0.65081  Biso   1.000  C
  C302     1.0000 0.28591  0.57896  0.58607  Biso   1.000  C
  C303     1.0000 0.49433  0.61260  0.58633  Biso   1.000  C
  C304     1.0000 0.34940  0.58660  0.54900  Biso   1.000  C
  C305     1.0000 0.10964  0.90977  0.45201  Biso   1.000  C
  C306     1.0000 0.00949  0.91934  0.25351  Biso   1.000  C
  C307     1.0000 0.03935  0.89027  0.46166  Biso   1.000  C
  C308     1.0000 0.02683  0.89356  0.41473  Biso   1.000  C
  C309     1.0000 0.08695  0.93614  0.25787  Biso   1.000  C
  C310     1.0000 0.00711  0.92104  0.20695  Biso   1.000  C
  C311     1.0000 0.97373  0.88740  0.38173  Biso   1.000  C
  C312     1.0000 0.96240  0.91340  0.26280  Biso   1.000  C
  C313     1.0000 0.95776  0.65763  0.04799  Biso   1.000  C
  C314     1.0000 0.16583  0.75598  0.24649  Biso   1.000  C
  C315     1.0000 0.92861  0.57769  0.03834  Biso   1.000  C
  C316     1.0000 0.97883  0.61210  0.08527  Biso   1.000  C
  C317     1.0000 0.17827  0.82908  0.24213  Biso   1.000  C
  C318     1.0000 0.21409  0.80016  0.29305  Biso   1.000  C
  C319     1.0000 0.00567  0.59200  0.11827  Biso   1.000  C
  C320     1.0000 0.15060  0.69960  0.23720  Biso   1.000  C
  C321     1.0000 0.90977  0.95201  0.60964  Biso   1.000  C
  C322     1.0000 0.91934  0.75351  0.50949  Biso   1.000  C
  C323     1.0000 0.89027  0.96166  0.53935  Biso   1.000  C
  C324     1.0000 0.89356  0.91473  0.52683  Biso   1.000  C
  C325     1.0000 0.93614  0.75787  0.58695  Biso   1.000  C
  C326     1.0000 0.92104  0.70695  0.50711  Biso   1.000  C
  C327     1.0000 0.88740  0.88173  0.47373  Biso   1.000  C
  C328     1.0000 0.91340  0.76280  0.46240  Biso   1.000  C
  C329     1.0000 0.65763  0.54799  0.45776  Biso   1.000  C
  C330     1.0000 0.75598  0.74649  0.66583  Biso   1.000  C
  C331     1.0000 0.57769  0.53834  0.42861  Biso   1.000  C
  C332     1.0000 0.61210  0.58527  0.47883  Biso   1.000  C
  C333     1.0000 0.82908  0.74213  0.67827  Biso   1.000  C
  C334     1.0000 0.80016  0.79305  0.71409  Biso   1.000  C
  C335     1.0000 0.59200  0.61827  0.50567  Biso   1.000  C
  C336     1.0000 0.69960  0.73720  0.65060  Biso   1.000  C
  C337     1.0000 0.84237  0.30013  0.89036  Biso   1.000  C
  C338     1.0000 0.74402  0.40985  0.99051  Biso   1.000  C
  C339     1.0000 0.92231  0.35092  0.96065  Biso   1.000  C
  C340     1.0000 0.88790  0.36673  0.97317  Biso   1.000  C
  C341     1.0000 0.67092  0.34919  0.91305  Biso   1.000  C
  C342     1.0000 0.69984  0.41393  0.99289  Biso   1.000  C
  C343     1.0000 0.90800  0.41367  0.02627  Biso   1.000  C
  C344     1.0000 0.80040  0.45100  0.03760  Biso   1.000  C
  C345     1.0000 0.59023  0.19987  0.04224  Biso   1.000  C
  C346     1.0000 0.58066  0.09015  0.83417  Biso   1.000  C
  C347     1.0000 0.60973  0.14908  0.07139  Biso   1.000  C
  C348     1.0000 0.60644  0.13327  0.02117  Biso   1.000  C
  C349     1.0000 0.56386  0.15081  0.82173  Biso   1.000  C
  C350     1.0000 0.57896  0.08607  0.78591  Biso   1.000  C
  C351     1.0000 0.61260  0.08633  0.99433  Biso   1.000  C
  C352     1.0000 0.58660  0.04900  0.84940  Biso   1.000  C
  C353     1.0000 0.19987  0.54224  0.09023  Biso   1.000  C
  C354     1.0000 0.09015  0.33417  0.08066  Biso   1.000  C
  C355     1.0000 0.14908  0.57139  0.10973  Biso   1.000  C
  C356     1.0000 0.13327  0.52117  0.10644  Biso   1.000  C
  C357     1.0000 0.15081  0.32173  0.06386  Biso   1.000  C
  C358     1.0000 0.08607  0.28591  0.07896  Biso   1.000  C
  C359     1.0000 0.08633  0.49433  0.11260  Biso   1.000  C
  C360     1.0000 0.04900  0.34940  0.08660  Biso   1.000  C
  C361     1.0000 0.30013  0.39036  0.34237  Biso   1.000  C
  C362     1.0000 0.40985  0.49051  0.24402  Biso   1.000  C
  C363     1.0000 0.35092  0.46065  0.42231  Biso   1.000  C
  C364     1.0000 0.36673  0.47317  0.38790  Biso   1.000  C
  C365     1.0000 0.34919  0.41305  0.17092  Biso   1.000  C
  C366     1.0000 0.41393  0.49289  0.19984  Biso   1.000  C
  C367     1.0000 0.41367  0.52627  0.40800  Biso   1.000  C
  C368     1.0000 0.45100  0.53760  0.30040  Biso   1.000  C
  C369     1.0000 0.54799  0.95776  0.15763  Biso   1.000  C
  C370     1.0000 0.74649  0.16583  0.25598  Biso   1.000  C
  C371     1.0000 0.53834  0.92861  0.07769  Biso   1.000  C
  C372     1.0000 0.58527  0.97883  0.11210  Biso   1.000  C
  C373     1.0000 0.74213  0.17827  0.32908  Biso   1.000  C
  C374     1.0000 0.79305  0.21409  0.30016  Biso   1.000  C
  C375     1.0000 0.61827  0.00567  0.09200  Biso   1.000  C
  C376     1.0000 0.73720  0.15060  0.19960  Biso   1.000  C
  C377     1.0000 0.95201  0.10964  0.40977  Biso   1.000  C
  C378     1.0000 0.75351  0.00949  0.41934  Biso   1.000  C
  C379     1.0000 0.96166  0.03935  0.39027  Biso   1.000  C
  C380     1.0000 0.91473  0.02683  0.39356  Biso   1.000  C
  C381     1.0000 0.75787  0.08695  0.43614  Biso   1.000  C
  C382     1.0000 0.70695  0.00711  0.42104  Biso   1.000  C
  C383     1.0000 0.88173  0.97373  0.38740  Biso   1.000  C
  C384     1.0000 0.76280  0.96240  0.41340  Biso   1.000  C
  N1       1.0000 0.33610  0.92763  0.33337  Biso   1.000  N
  N2       1.0000 0.39362  0.90827  0.30881  Biso   1.000  N
  N3       1.0000 0.22474  0.93921  0.36797  Biso   1.000  N
  N4       1.0000 0.15373  0.94432  0.37537  Biso   1.000  N
  N5       1.0000 0.32730  0.00695  0.41005  Biso   1.000  N
  N6       1.0000 0.38326  0.04485  0.43697  Biso   1.000  N
  N7       1.0000 0.09426  0.00273  0.16663  Biso   1.000  N
  N8       1.0000 0.09946  0.08481  0.19119  Biso   1.000  N
  N9       1.0000 0.07124  0.85677  0.13203  Biso   1.000  N
  N10      1.0000 0.06895  0.77836  0.12463  Biso   1.000  N
  N11      1.0000 0.09690  0.91725  0.08995  Biso   1.000  N
  N12      1.0000 0.10788  0.94629  0.06303  Biso   1.000  N
  N13      1.0000 0.40574  0.57237  0.90847  Biso   1.000  N
  N14      1.0000 0.40054  0.59173  0.98535  Biso   1.000  N
  N15      1.0000 0.42876  0.56079  0.78553  Biso   1.000  N
  N16      1.0000 0.43105  0.55568  0.70941  Biso   1.000  N
  N17      1.0000 0.40310  0.49305  0.82035  Biso   1.000  N
  N18      1.0000 0.39212  0.45515  0.83841  Biso   1.000  N
  N19      1.0000 0.16390  0.49727  0.59153  Biso   1.000  N
  N20      1.0000 0.10638  0.41519  0.51465  Biso   1.000  N
  N21      1.0000 0.27526  0.64323  0.71447  Biso   1.000  N
  N22      1.0000 0.34627  0.72164  0.79059  Biso   1.000  N
  N23      1.0000 0.17270  0.58275  0.67965  Biso   1.000  N
  N24      1.0000 0.11674  0.55371  0.66159  Biso   1.000  N
  N25      1.0000 0.40847  0.40574  0.07237  Biso   1.000  N
  N26      1.0000 0.48535  0.40054  0.09173  Biso   1.000  N
  N27      1.0000 0.28553  0.42876  0.06079  Biso   1.000  N
  N28      1.0000 0.20941  0.43105  0.05568  Biso   1.000  N
  N29      1.0000 0.32035  0.40310  0.99305  Biso   1.000  N
  N30      1.0000 0.33841  0.39212  0.95515  Biso   1.000  N
  N31      1.0000 0.09153  0.16390  0.99727  Biso   1.000  N
  N32      1.0000 0.01465  0.10638  0.91519  Biso   1.000  N
  N33      1.0000 0.21447  0.27526  0.14323  Biso   1.000  N
  N34      1.0000 0.29059  0.34627  0.22164  Biso   1.000  N
  N35      1.0000 0.17965  0.17270  0.08275  Biso   1.000  N
  N36      1.0000 0.16159  0.11674  0.05371  Biso   1.000  N
  N37      1.0000 0.83337  0.33610  0.42763  Biso   1.000  N
  N38      1.0000 0.80881  0.39362  0.40827  Biso   1.000  N
  N39      1.0000 0.86797  0.22474  0.43921  Biso   1.000  N
  N40      1.0000 0.87537  0.15373  0.44432  Biso   1.000  N
  N41      1.0000 0.91005  0.32730  0.50695  Biso   1.000  N
  N42      1.0000 0.93697  0.38326  0.54485  Biso   1.000  N
  N43      1.0000 0.66663  0.09426  0.50273  Biso   1.000  N
  N44      1.0000 0.69119  0.09946  0.58481  Biso   1.000  N
  N45      1.0000 0.63203  0.07124  0.35677  Biso   1.000  N
  N46      1.0000 0.62463  0.06895  0.27836  Biso   1.000  N
  N47      1.0000 0.58995  0.09690  0.41725  Biso   1.000  N
  N48      1.0000 0.56303  0.10788  0.44629  Biso   1.000  N
  N49      1.0000 0.00273  0.66663  0.59426  Biso   1.000  N
  N50      1.0000 0.08481  0.69119  0.59946  Biso   1.000  N
  N51      1.0000 0.85677  0.63203  0.57124  Biso   1.000  N
  N52      1.0000 0.77836  0.62463  0.56895  Biso   1.000  N
  N53      1.0000 0.91725  0.58995  0.59690  Biso   1.000  N
  N54      1.0000 0.94629  0.56303  0.60788  Biso   1.000  N
  N55      1.0000 0.92763  0.83337  0.83610  Biso   1.000  N
  N56      1.0000 0.90827  0.80881  0.89362  Biso   1.000  N
  N57      1.0000 0.93921  0.86797  0.72474  Biso   1.000  N
  N58      1.0000 0.94432  0.87537  0.65373  Biso   1.000  N
  N59      1.0000 0.00695  0.91005  0.82730  Biso   1.000  N
  N60      1.0000 0.04485  0.93697  0.88326  Biso   1.000  N
  N61      1.0000 0.49727  0.09153  0.66390  Biso   1.000  N
  N62      1.0000 0.41519  0.01465  0.60638  Biso   1.000  N
  N63      1.0000 0.64323  0.21447  0.77526  Biso   1.000  N
  N64      1.0000 0.72164  0.29059  0.84627  Biso   1.000  N
  N65      1.0000 0.58275  0.17965  0.67270  Biso   1.000  N
  N66      1.0000 0.55371  0.16159  0.61674  Biso   1.000  N
  N67      1.0000 0.57237  0.40847  0.90574  Biso   1.000  N
  N68      1.0000 0.59173  0.48535  0.90054  Biso   1.000  N
  N69      1.0000 0.56079  0.28553  0.92876  Biso   1.000  N
  N70      1.0000 0.55568  0.20941  0.93105  Biso   1.000  N
  N71      1.0000 0.49305  0.32035  0.90310  Biso   1.000  N
  N72      1.0000 0.45515  0.33841  0.89212  Biso   1.000  N
  N73      1.0000 0.57237  0.16390  0.16663  Biso   1.000  N
  N74      1.0000 0.59173  0.10638  0.19119  Biso   1.000  N
  N75      1.0000 0.56079  0.27526  0.13203  Biso   1.000  N
  N76      1.0000 0.55568  0.34627  0.12463  Biso   1.000  N
  N77      1.0000 0.49305  0.17270  0.08995  Biso   1.000  N
  N78      1.0000 0.45515  0.11674  0.06303  Biso   1.000  N
  N79      1.0000 0.49727  0.40574  0.33337  Biso   1.000  N
  N80      1.0000 0.41519  0.40054  0.30881  Biso   1.000  N
  N81      1.0000 0.64323  0.42876  0.36797  Biso   1.000  N
  N82      1.0000 0.72164  0.43105  0.37537  Biso   1.000  N
  N83      1.0000 0.58275  0.40310  0.41005  Biso   1.000  N
  N84      1.0000 0.55371  0.39212  0.43697  Biso   1.000  N
  N85      1.0000 0.92763  0.09426  0.59153  Biso   1.000  N
  N86      1.0000 0.90827  0.09946  0.51465  Biso   1.000  N
  N87      1.0000 0.93921  0.07124  0.71447  Biso   1.000  N
  N88      1.0000 0.94432  0.06895  0.79059  Biso   1.000  N
  N89      1.0000 0.00695  0.09690  0.67965  Biso   1.000  N
  N90      1.0000 0.04485  0.10788  0.66159  Biso   1.000  N
  N91      1.0000 0.00273  0.33610  0.90847  Biso   1.000  N
  N92      1.0000 0.08481  0.39362  0.98535  Biso   1.000  N
  N93      1.0000 0.85677  0.22474  0.78553  Biso   1.000  N
  N94      1.0000 0.77836  0.15373  0.70941  Biso   1.000  N
  N95      1.0000 0.91725  0.32730  0.82035  Biso   1.000  N
  N96      1.0000 0.94629  0.38326  0.83841  Biso   1.000  N
  N97      1.0000 0.09426  0.09153  0.42763  Biso   1.000  N
  N98      1.0000 0.09946  0.01465  0.40827  Biso   1.000  N
  N99      1.0000 0.07124  0.21447  0.43921  Biso   1.000  N
  N100     1.0000 0.06895  0.29059  0.44432  Biso   1.000  N
  N101     1.0000 0.09690  0.17965  0.50695  Biso   1.000  N
  N102     1.0000 0.10788  0.16159  0.54485  Biso   1.000  N
  N103     1.0000 0.33610  0.40847  0.50273  Biso   1.000  N
  N104     1.0000 0.39362  0.48535  0.58481  Biso   1.000  N
  N105     1.0000 0.22474  0.28553  0.35677  Biso   1.000  N
  N106     1.0000 0.15373  0.20941  0.27836  Biso   1.000  N
  N107     1.0000 0.32730  0.32035  0.41725  Biso   1.000  N
  N108     1.0000 0.38326  0.33841  0.44629  Biso   1.000  N
  N109     1.0000 0.16390  0.66663  0.07237  Biso   1.000  N
  N110     1.0000 0.10638  0.69119  0.09173  Biso   1.000  N
  N111     1.0000 0.27526  0.63203  0.06079  Biso   1.000  N
  N112     1.0000 0.34627  0.62463  0.05568  Biso   1.000  N
  N113     1.0000 0.17270  0.58995  0.99305  Biso   1.000  N
  N114     1.0000 0.11674  0.56303  0.95515  Biso   1.000  N
  N115     1.0000 0.40574  0.83337  0.99727  Biso   1.000  N
  N116     1.0000 0.40054  0.80881  0.91519  Biso   1.000  N
  N117     1.0000 0.42876  0.86797  0.14323  Biso   1.000  N
  N118     1.0000 0.43105  0.87537  0.22164  Biso   1.000  N
  N119     1.0000 0.40310  0.91005  0.08275  Biso   1.000  N
  N120     1.0000 0.39212  0.93697  0.05371  Biso   1.000  N
  N121     1.0000 0.83337  0.49727  0.90574  Biso   1.000  N
  N122     1.0000 0.80881  0.41519  0.90054  Biso   1.000  N
  N123     1.0000 0.86797  0.64323  0.92876  Biso   1.000  N
  N124     1.0000 0.87537  0.72164  0.93105  Biso   1.000  N
  N125     1.0000 0.91005  0.58275  0.90310  Biso   1.000  N
  N126     1.0000 0.93697  0.55371  0.89212  Biso   1.000  N
  N127     1.0000 0.66663  0.57237  0.66390  Biso   1.000  N
  N128     1.0000 0.69119  0.59173  0.60638  Biso   1.000  N
  N129     1.0000 0.63203  0.56079  0.77526  Biso   1.000  N
  N130     1.0000 0.62463  0.55568  0.84627  Biso   1.000  N
  N131     1.0000 0.58995  0.49305  0.67270  Biso   1.000  N
  N132     1.0000 0.56303  0.45515  0.61674  Biso   1.000  N
  N133     1.0000 0.40847  0.00273  0.83610  Biso   1.000  N
  N134     1.0000 0.48535  0.08481  0.89362  Biso   1.000  N
  N135     1.0000 0.28553  0.85677  0.72474  Biso   1.000  N
  N136     1.0000 0.20941  0.77836  0.65373  Biso   1.000  N
  N137     1.0000 0.32035  0.91725  0.82730  Biso   1.000  N
  N138     1.0000 0.33841  0.94629  0.88326  Biso   1.000  N
  N139     1.0000 0.09153  0.92763  0.59426  Biso   1.000  N
  N140     1.0000 0.01465  0.90827  0.59946  Biso   1.000  N
  N141     1.0000 0.21447  0.93921  0.57124  Biso   1.000  N
  N142     1.0000 0.29059  0.94432  0.56895  Biso   1.000  N
  N143     1.0000 0.17965  0.00695  0.59690  Biso   1.000  N
  N144     1.0000 0.16159  0.04485  0.60788  Biso   1.000  N
  N145     1.0000 0.66390  0.07237  0.66663  Biso   1.000  N
  N146     1.0000 0.60638  0.09173  0.69119  Biso   1.000  N
  N147     1.0000 0.77526  0.06079  0.63203  Biso   1.000  N
  N148     1.0000 0.84627  0.05568  0.62463  Biso   1.000  N
  N149     1.0000 0.67270  0.99305  0.58995  Biso   1.000  N
  N150     1.0000 0.61674  0.95515  0.56303  Biso   1.000  N
  N151     1.0000 0.90574  0.99727  0.83337  Biso   1.000  N
  N152     1.0000 0.90054  0.91519  0.80881  Biso   1.000  N
  N153     1.0000 0.92876  0.14323  0.86797  Biso   1.000  N
  N154     1.0000 0.93105  0.22164  0.87537  Biso   1.000  N
  N155     1.0000 0.90310  0.08275  0.91005  Biso   1.000  N
  N156     1.0000 0.89212  0.05371  0.93697  Biso   1.000  N
  N157     1.0000 0.59426  0.42763  0.09153  Biso   1.000  N
  N158     1.0000 0.59946  0.40827  0.01465  Biso   1.000  N
  N159     1.0000 0.57124  0.43921  0.21447  Biso   1.000  N
  N160     1.0000 0.56895  0.44432  0.29059  Biso   1.000  N
  N161     1.0000 0.59690  0.50695  0.17965  Biso   1.000  N
  N162     1.0000 0.60788  0.54485  0.16159  Biso   1.000  N
  N163     1.0000 0.83610  0.50273  0.40847  Biso   1.000  N
  N164     1.0000 0.89362  0.58481  0.48535  Biso   1.000  N
  N165     1.0000 0.72474  0.35677  0.28553  Biso   1.000  N
  N166     1.0000 0.65373  0.27836  0.20941  Biso   1.000  N
  N167     1.0000 0.82730  0.41725  0.32035  Biso   1.000  N
  N168     1.0000 0.88326  0.44629  0.33841  Biso   1.000  N
  N169     1.0000 0.59153  0.59426  0.92763  Biso   1.000  N
  N170     1.0000 0.51465  0.59946  0.90827  Biso   1.000  N
  N171     1.0000 0.71447  0.57124  0.93921  Biso   1.000  N
  N172     1.0000 0.79059  0.56895  0.94432  Biso   1.000  N
  N173     1.0000 0.67965  0.59690  0.00695  Biso   1.000  N
  N174     1.0000 0.66159  0.60788  0.04485  Biso   1.000  N
  N175     1.0000 0.90847  0.83610  0.00273  Biso   1.000  N
  N176     1.0000 0.98535  0.89362  0.08481  Biso   1.000  N
  N177     1.0000 0.78553  0.72474  0.85677  Biso   1.000  N
  N178     1.0000 0.70941  0.65373  0.77836  Biso   1.000  N
  N179     1.0000 0.82035  0.82730  0.91725  Biso   1.000  N
  N180     1.0000 0.83841  0.88326  0.94629  Biso   1.000  N
  N181     1.0000 0.16663  0.66390  0.57237  Biso   1.000  N
  N182     1.0000 0.19119  0.60638  0.59173  Biso   1.000  N
  N183     1.0000 0.13203  0.77526  0.56079  Biso   1.000  N
  N184     1.0000 0.12463  0.84627  0.55568  Biso   1.000  N
  N185     1.0000 0.08995  0.67270  0.49305  Biso   1.000  N
  N186     1.0000 0.06303  0.61674  0.45515  Biso   1.000  N
  N187     1.0000 0.33337  0.90574  0.49727  Biso   1.000  N
  N188     1.0000 0.30881  0.90054  0.41519  Biso   1.000  N
  N189     1.0000 0.36797  0.92876  0.64323  Biso   1.000  N
  N190     1.0000 0.37537  0.93105  0.72164  Biso   1.000  N
  N191     1.0000 0.41005  0.90310  0.58275  Biso   1.000  N
  N192     1.0000 0.43697  0.89212  0.55371  Biso   1.000  N
  N193     1.0000 0.99727  0.33337  0.40574  Biso   1.000  N
  N194     1.0000 0.91519  0.30881  0.40054  Biso   1.000  N
  N195     1.0000 0.14323  0.36797  0.42876  Biso   1.000  N
  N196     1.0000 0.22164  0.37537  0.43105  Biso   1.000  N
  N197     1.0000 0.08275  0.41005  0.40310  Biso   1.000  N
  N198     1.0000 0.05371  0.43697  0.39212  Biso   1.000  N
  N199     1.0000 0.07237  0.16663  0.16390  Biso   1.000  N
  N200     1.0000 0.09173  0.19119  0.10638  Biso   1.000  N
  N201     1.0000 0.06079  0.13203  0.27526  Biso   1.000  N
  N202     1.0000 0.05568  0.12463  0.34627  Biso   1.000  N
  N203     1.0000 0.99305  0.08995  0.17270  Biso   1.000  N
  N204     1.0000 0.95515  0.06303  0.11674  Biso   1.000  N
  N205     1.0000 0.50273  0.90847  0.33610  Biso   1.000  N
  N206     1.0000 0.58481  0.98535  0.39362  Biso   1.000  N
  N207     1.0000 0.35677  0.78553  0.22474  Biso   1.000  N
  N208     1.0000 0.27836  0.70941  0.15373  Biso   1.000  N
  N209     1.0000 0.41725  0.82035  0.32730  Biso   1.000  N
  N210     1.0000 0.44629  0.83841  0.38326  Biso   1.000  N
  N211     1.0000 0.42763  0.59153  0.09426  Biso   1.000  N
  N212     1.0000 0.40827  0.51465  0.09946  Biso   1.000  N
  N213     1.0000 0.43921  0.71447  0.07124  Biso   1.000  N
  N214     1.0000 0.44432  0.79059  0.06895  Biso   1.000  N
  N215     1.0000 0.50695  0.67965  0.09690  Biso   1.000  N
  N216     1.0000 0.54485  0.66159  0.10788  Biso   1.000  N
  N217     1.0000 0.42763  0.83610  0.83337  Biso   1.000  N
  N218     1.0000 0.40827  0.89362  0.80881  Biso   1.000  N
  N219     1.0000 0.43921  0.72474  0.86797  Biso   1.000  N
  N220     1.0000 0.44432  0.65373  0.87537  Biso   1.000  N
  N221     1.0000 0.50695  0.82730  0.91005  Biso   1.000  N
  N222     1.0000 0.54485  0.88326  0.93697  Biso   1.000  N
  N223     1.0000 0.50273  0.59426  0.66663  Biso   1.000  N
  N224     1.0000 0.58481  0.59946  0.69119  Biso   1.000  N
  N225     1.0000 0.35677  0.57124  0.63203  Biso   1.000  N
  N226     1.0000 0.27836  0.56895  0.62463  Biso   1.000  N
  N227     1.0000 0.41725  0.59690  0.58995  Biso   1.000  N
  N228     1.0000 0.44629  0.60788  0.56303  Biso   1.000  N
  N229     1.0000 0.07237  0.90574  0.40847  Biso   1.000  N
  N230     1.0000 0.09173  0.90054  0.48535  Biso   1.000  N
  N231     1.0000 0.06079  0.92876  0.28553  Biso   1.000  N
  N232     1.0000 0.05568  0.93105  0.20941  Biso   1.000  N
  N233     1.0000 0.99305  0.90310  0.32035  Biso   1.000  N
  N234     1.0000 0.95515  0.89212  0.33841  Biso   1.000  N
  N235     1.0000 0.99727  0.66390  0.09153  Biso   1.000  N
  N236     1.0000 0.91519  0.60638  0.01465  Biso   1.000  N
  N237     1.0000 0.14323  0.77526  0.21447  Biso   1.000  N
  N238     1.0000 0.22164  0.84627  0.29059  Biso   1.000  N
  N239     1.0000 0.08275  0.67270  0.17965  Biso   1.000  N
  N240     1.0000 0.05371  0.61674  0.16159  Biso   1.000  N
  N241     1.0000 0.90574  0.90847  0.57237  Biso   1.000  N
  N242     1.0000 0.90054  0.98535  0.59173  Biso   1.000  N
  N243     1.0000 0.92876  0.78553  0.56079  Biso   1.000  N
  N244     1.0000 0.93105  0.70941  0.55568  Biso   1.000  N
  N245     1.0000 0.90310  0.82035  0.49305  Biso   1.000  N
  N246     1.0000 0.89212  0.83841  0.45515  Biso   1.000  N
  N247     1.0000 0.66390  0.59153  0.49727  Biso   1.000  N
  N248     1.0000 0.60638  0.51465  0.41519  Biso   1.000  N
  N249     1.0000 0.77526  0.71447  0.64323  Biso   1.000  N
  N250     1.0000 0.84627  0.79059  0.72164  Biso   1.000  N
  N251     1.0000 0.67270  0.67965  0.58275  Biso   1.000  N
  N252     1.0000 0.61674  0.66159  0.55371  Biso   1.000  N
  N253     1.0000 0.83610  0.33337  0.92763  Biso   1.000  N
  N254     1.0000 0.89362  0.30881  0.90827  Biso   1.000  N
  N255     1.0000 0.72474  0.36797  0.93921  Biso   1.000  N
  N256     1.0000 0.65373  0.37537  0.94432  Biso   1.000  N
  N257     1.0000 0.82730  0.41005  0.00695  Biso   1.000  N
  N258     1.0000 0.88326  0.43697  0.04485  Biso   1.000  N
  N259     1.0000 0.59426  0.16663  0.00273  Biso   1.000  N
  N260     1.0000 0.59946  0.19119  0.08481  Biso   1.000  N
  N261     1.0000 0.57124  0.13203  0.85677  Biso   1.000  N
  N262     1.0000 0.56895  0.12463  0.77836  Biso   1.000  N
  N263     1.0000 0.59690  0.08995  0.91725  Biso   1.000  N
  N264     1.0000 0.60788  0.06303  0.94629  Biso   1.000  N
  N265     1.0000 0.16663  0.50273  0.09426  Biso   1.000  N
  N266     1.0000 0.19119  0.58481  0.09946  Biso   1.000  N
  N267     1.0000 0.13203  0.35677  0.07124  Biso   1.000  N
  N268     1.0000 0.12463  0.27836  0.06895  Biso   1.000  N
  N269     1.0000 0.08995  0.41725  0.09690  Biso   1.000  N
  N270     1.0000 0.06303  0.44629  0.10788  Biso   1.000  N
  N271     1.0000 0.33337  0.42763  0.33610  Biso   1.000  N
  N272     1.0000 0.30881  0.40827  0.39362  Biso   1.000  N
  N273     1.0000 0.36797  0.43921  0.22474  Biso   1.000  N
  N274     1.0000 0.37537  0.44432  0.15373  Biso   1.000  N
  N275     1.0000 0.41005  0.50695  0.32730  Biso   1.000  N
  N276     1.0000 0.43697  0.54485  0.38326  Biso   1.000  N
  N277     1.0000 0.59153  0.99727  0.16390  Biso   1.000  N
  N278     1.0000 0.51465  0.91519  0.10638  Biso   1.000  N
  N279     1.0000 0.71447  0.14323  0.27526  Biso   1.000  N
  N280     1.0000 0.79059  0.22164  0.34627  Biso   1.000  N
  N281     1.0000 0.67965  0.08275  0.17270  Biso   1.000  N
  N282     1.0000 0.66159  0.05371  0.11674  Biso   1.000  N
  N283     1.0000 0.90847  0.07237  0.40574  Biso   1.000  N
  N284     1.0000 0.98535  0.09173  0.40054  Biso   1.000  N
  N285     1.0000 0.78553  0.06079  0.42876  Biso   1.000  N
  N286     1.0000 0.70941  0.05568  0.43105  Biso   1.000  N
  N287     1.0000 0.82035  0.99305  0.40310  Biso   1.000  N
  N288     1.0000 0.83841  0.95515  0.39212  Biso   1.000  N
