data_image0
_cell_length_a       30.9994
_cell_length_b       30.9994
_cell_length_c       30.9994
_cell_angle_alpha    109.471
_cell_angle_beta     109.471
_cell_angle_gamma    109.471

_symmetry_space_group_name_H-M    P 1
_symmetry_int_tables_number       1

loop_
  _symmetry_equiv_pos_as_xyz
  'x, y, z'

loop_
  _atom_site_label
  _atom_site_occupancy
  _atom_site_fract_x
  _atom_site_fract_y
  _atom_site_fract_z
  _atom_site_thermal_displace_type
  _atom_site_B_iso_or_equiv
  _atom_site_type_symbol
  Mn1      1.0000 0.22140  0.57217  0.63293  Biso   1.000  Mn
  Mn2      1.0000 0.43924  0.58847  0.86707  Biso   1.000  Mn
  Mn3      1.0000 0.06076  0.92782  0.14923  Biso   1.000  Mn
  Mn4      1.0000 0.27860  0.91154  0.35077  Biso   1.000  Mn
  Mn5      1.0000 0.64923  0.06076  0.42783  Biso   1.000  Mn
  Mn6      1.0000 0.85077  0.27860  0.41153  Biso   1.000  Mn
  Mn7      1.0000 0.13294  0.22141  0.07218  Biso   1.000  Mn
  Mn8      1.0000 0.36706  0.43923  0.08846  Biso   1.000  Mn
  Mn9      1.0000 0.58847  0.36707  0.93924  Biso   1.000  Mn
  Mn10     1.0000 0.57217  0.13293  0.72140  Biso   1.000  Mn
  Mn11     1.0000 0.91153  0.85077  0.77859  Biso   1.000  Mn
  Mn12     1.0000 0.92783  0.64923  0.56077  Biso   1.000  Mn
  Mn13     1.0000 0.92783  0.27860  0.86707  Biso   1.000  Mn
  Mn14     1.0000 0.91153  0.06076  0.63293  Biso   1.000  Mn
  Mn15     1.0000 0.57217  0.43923  0.35077  Biso   1.000  Mn
  Mn16     1.0000 0.58847  0.22141  0.14923  Biso   1.000  Mn
  Mn17     1.0000 0.43924  0.85077  0.07218  Biso   1.000  Mn
  Mn18     1.0000 0.22140  0.64923  0.08846  Biso   1.000  Mn
  Mn19     1.0000 0.27860  0.36707  0.42783  Biso   1.000  Mn
  Mn20     1.0000 0.06076  0.13293  0.41153  Biso   1.000  Mn
  Mn21     1.0000 0.13294  0.91154  0.56077  Biso   1.000  Mn
  Mn22     1.0000 0.36706  0.92782  0.77859  Biso   1.000  Mn
  Mn23     1.0000 0.64923  0.58847  0.72140  Biso   1.000  Mn
  Mn24     1.0000 0.85077  0.57217  0.93924  Biso   1.000  Mn
  Mn25     1.0000 0.77860  0.42783  0.36707  Biso   1.000  Mn
  Mn26     1.0000 0.56076  0.41153  0.13293  Biso   1.000  Mn
  Mn27     1.0000 0.93924  0.07218  0.85077  Biso   1.000  Mn
  Mn28     1.0000 0.72140  0.08846  0.64923  Biso   1.000  Mn
  Mn29     1.0000 0.35077  0.93924  0.57217  Biso   1.000  Mn
  Mn30     1.0000 0.14923  0.72140  0.58847  Biso   1.000  Mn
  Mn31     1.0000 0.86706  0.77859  0.92782  Biso   1.000  Mn
  Mn32     1.0000 0.63294  0.56077  0.91154  Biso   1.000  Mn
  Mn33     1.0000 0.41153  0.63293  0.06076  Biso   1.000  Mn
  Mn34     1.0000 0.42783  0.86707  0.27860  Biso   1.000  Mn
  Mn35     1.0000 0.08847  0.14923  0.22141  Biso   1.000  Mn
  Mn36     1.0000 0.07218  0.35078  0.43924  Biso   1.000  Mn
  Mn37     1.0000 0.07217  0.72140  0.13293  Biso   1.000  Mn
  Mn38     1.0000 0.08847  0.93924  0.36707  Biso   1.000  Mn
  Mn39     1.0000 0.42783  0.56077  0.64923  Biso   1.000  Mn
  Mn40     1.0000 0.41153  0.77859  0.85077  Biso   1.000  Mn
  Mn41     1.0000 0.56076  0.14923  0.92782  Biso   1.000  Mn
  Mn42     1.0000 0.77860  0.35077  0.91154  Biso   1.000  Mn
  Mn43     1.0000 0.72140  0.63293  0.57217  Biso   1.000  Mn
  Mn44     1.0000 0.93924  0.86707  0.58847  Biso   1.000  Mn
  Mn45     1.0000 0.86706  0.08846  0.43923  Biso   1.000  Mn
  Mn46     1.0000 0.63294  0.07218  0.22141  Biso   1.000  Mn
  Mn47     1.0000 0.35077  0.41153  0.27860  Biso   1.000  Mn
  Mn48     1.0000 0.14923  0.42783  0.06076  Biso   1.000  Mn
  H1       1.0000 0.17890  0.45090  0.54160  Biso   1.000  H
  H2       1.0000 0.03990  0.40780  0.52790  Biso   1.000  H
  H3       1.0000 0.28240  0.72560  0.80840  Biso   1.000  H
  H4       1.0000 0.34770  0.67600  0.73090  Biso   1.000  H
  H5       1.0000 0.05500  0.48780  0.59680  Biso   1.000  H
  H6       1.0000 0.17470  0.63670  0.73140  Biso   1.000  H
  H7       1.0000 0.40930  0.63730  0.95840  Biso   1.000  H
  H8       1.0000 0.37990  0.51200  0.97210  Biso   1.000  H
  H9       1.0000 0.41720  0.47400  0.69160  Biso   1.000  H
  H10      1.0000 0.44510  0.61680  0.76910  Biso   1.000  H
  H11      1.0000 0.39100  0.45820  0.90320  Biso   1.000  H
  H12      1.0000 0.40530  0.44330  0.76860  Biso   1.000  H
  H13      1.0000 0.09070  0.04910  0.22800  Biso   1.000  H
  H14      1.0000 0.12010  0.09220  0.13210  Biso   1.000  H
  H15      1.0000 0.08280  0.77440  0.05680  Biso   1.000  H
  H16      1.0000 0.05490  0.82400  0.17170  Biso   1.000  H
  H17      1.0000 0.10900  0.01220  0.06720  Biso   1.000  H
  H18      1.0000 0.09470  0.86330  0.03800  Biso   1.000  H
  H19      1.0000 0.32110  0.86270  0.27200  Biso   1.000  H
  H20      1.0000 0.46010  0.98800  0.36790  Biso   1.000  H
  H21      1.0000 0.21760  0.02600  0.44320  Biso   1.000  H
  H22      1.0000 0.15230  0.88320  0.32830  Biso   1.000  H
  H23      1.0000 0.44500  0.04180  0.43280  Biso   1.000  H
  H24      1.0000 0.32530  0.05670  0.46200  Biso   1.000  H
  H25      1.0000 0.72800  0.09070  0.54910  Biso   1.000  H
  H26      1.0000 0.63210  0.12010  0.59220  Biso   1.000  H
  H27      1.0000 0.55680  0.08280  0.27440  Biso   1.000  H
  H28      1.0000 0.67170  0.05490  0.32400  Biso   1.000  H
  H29      1.0000 0.56720  0.10900  0.51220  Biso   1.000  H
  H30      1.0000 0.53800  0.09470  0.36330  Biso   1.000  H
  H31      1.0000 0.77200  0.32110  0.36270  Biso   1.000  H
  H32      1.0000 0.86790  0.46010  0.48800  Biso   1.000  H
  H33      1.0000 0.94320  0.21760  0.52600  Biso   1.000  H
  H34      1.0000 0.82830  0.15230  0.38320  Biso   1.000  H
  H35      1.0000 0.93280  0.44500  0.54180  Biso   1.000  H
  H36      1.0000 0.96200  0.32530  0.55670  Biso   1.000  H
  H37      1.0000 0.04160  0.17890  0.95090  Biso   1.000  H
  H38      1.0000 0.02790  0.03990  0.90780  Biso   1.000  H
  H39      1.0000 0.30840  0.28240  0.22560  Biso   1.000  H
  H40      1.0000 0.23090  0.34770  0.17600  Biso   1.000  H
  H41      1.0000 0.09680  0.05500  0.98780  Biso   1.000  H
  H42      1.0000 0.23140  0.17470  0.13670  Biso   1.000  H
  H43      1.0000 0.45840  0.40930  0.13730  Biso   1.000  H
  H44      1.0000 0.47210  0.37990  0.01200  Biso   1.000  H
  H45      1.0000 0.19160  0.41720  0.97400  Biso   1.000  H
  H46      1.0000 0.26910  0.44510  0.11680  Biso   1.000  H
  H47      1.0000 0.40320  0.39100  0.95820  Biso   1.000  H
  H48      1.0000 0.26860  0.40530  0.94330  Biso   1.000  H
  H49      1.0000 0.63730  0.45840  0.90930  Biso   1.000  H
  H50      1.0000 0.51200  0.47210  0.87990  Biso   1.000  H
  H51      1.0000 0.47400  0.19160  0.91720  Biso   1.000  H
  H52      1.0000 0.61680  0.26910  0.94510  Biso   1.000  H
  H53      1.0000 0.45820  0.40320  0.89100  Biso   1.000  H
  H54      1.0000 0.44330  0.26860  0.90530  Biso   1.000  H
  H55      1.0000 0.45090  0.04160  0.67890  Biso   1.000  H
  H56      1.0000 0.40780  0.02790  0.53990  Biso   1.000  H
  H57      1.0000 0.72560  0.30840  0.78240  Biso   1.000  H
  H58      1.0000 0.67600  0.23090  0.84770  Biso   1.000  H
  H59      1.0000 0.48780  0.09680  0.55500  Biso   1.000  H
  H60      1.0000 0.63670  0.23140  0.67470  Biso   1.000  H
  H61      1.0000 0.86270  0.77200  0.82110  Biso   1.000  H
  H62      1.0000 0.98800  0.86790  0.96010  Biso   1.000  H
  H63      1.0000 0.02600  0.94320  0.71760  Biso   1.000  H
  H64      1.0000 0.88320  0.82830  0.65230  Biso   1.000  H
  H65      1.0000 0.04180  0.93280  0.94500  Biso   1.000  H
  H66      1.0000 0.05670  0.96200  0.82530  Biso   1.000  H
  H67      1.0000 0.04910  0.72800  0.59070  Biso   1.000  H
  H68      1.0000 0.09220  0.63210  0.62010  Biso   1.000  H
  H69      1.0000 0.77440  0.55680  0.58280  Biso   1.000  H
  H70      1.0000 0.82400  0.67170  0.55490  Biso   1.000  H
  H71      1.0000 0.01220  0.56720  0.60900  Biso   1.000  H
  H72      1.0000 0.86330  0.53800  0.59470  Biso   1.000  H
  H73      1.0000 0.04910  0.32110  0.95840  Biso   1.000  H
  H74      1.0000 0.09220  0.46010  0.97210  Biso   1.000  H
  H75      1.0000 0.77440  0.21760  0.69160  Biso   1.000  H
  H76      1.0000 0.82400  0.15230  0.76910  Biso   1.000  H
  H77      1.0000 0.01220  0.44500  0.90320  Biso   1.000  H
  H78      1.0000 0.86330  0.32530  0.76860  Biso   1.000  H
  H79      1.0000 0.86270  0.09070  0.54160  Biso   1.000  H
  H80      1.0000 0.98800  0.12010  0.52790  Biso   1.000  H
  H81      1.0000 0.02600  0.08280  0.80840  Biso   1.000  H
  H82      1.0000 0.88320  0.05490  0.73090  Biso   1.000  H
  H83      1.0000 0.04180  0.10900  0.59680  Biso   1.000  H
  H84      1.0000 0.05670  0.09470  0.73140  Biso   1.000  H
  H85      1.0000 0.45090  0.40930  0.27200  Biso   1.000  H
  H86      1.0000 0.40780  0.37990  0.36790  Biso   1.000  H
  H87      1.0000 0.72560  0.41720  0.44320  Biso   1.000  H
  H88      1.0000 0.67600  0.44510  0.32830  Biso   1.000  H
  H89      1.0000 0.48780  0.39100  0.43280  Biso   1.000  H
  H90      1.0000 0.63670  0.40530  0.46200  Biso   1.000  H
  H91      1.0000 0.63730  0.17890  0.22800  Biso   1.000  H
  H92      1.0000 0.51200  0.03990  0.13210  Biso   1.000  H
  H93      1.0000 0.47400  0.28240  0.05680  Biso   1.000  H
  H94      1.0000 0.61680  0.34770  0.17170  Biso   1.000  H
  H95      1.0000 0.45820  0.05500  0.06720  Biso   1.000  H
  H96      1.0000 0.44330  0.17470  0.03800  Biso   1.000  H
  H97      1.0000 0.40930  0.77200  0.95090  Biso   1.000  H
  H98      1.0000 0.37990  0.86790  0.90780  Biso   1.000  H
  H99      1.0000 0.41720  0.94320  0.22560  Biso   1.000  H
  H100     1.0000 0.44510  0.82830  0.17600  Biso   1.000  H
  H101     1.0000 0.39100  0.93280  0.98780  Biso   1.000  H
  H102     1.0000 0.40530  0.96200  0.13670  Biso   1.000  H
  H103     1.0000 0.17890  0.72800  0.13730  Biso   1.000  H
  H104     1.0000 0.03990  0.63210  0.01200  Biso   1.000  H
  H105     1.0000 0.28240  0.55680  0.97400  Biso   1.000  H
  H106     1.0000 0.34770  0.67170  0.11680  Biso   1.000  H
  H107     1.0000 0.05500  0.56720  0.95820  Biso   1.000  H
  H108     1.0000 0.17470  0.53800  0.94330  Biso   1.000  H
  H109     1.0000 0.32110  0.45840  0.54910  Biso   1.000  H
  H110     1.0000 0.46010  0.47210  0.59220  Biso   1.000  H
  H111     1.0000 0.21760  0.19160  0.27440  Biso   1.000  H
  H112     1.0000 0.15230  0.26910  0.32400  Biso   1.000  H
  H113     1.0000 0.44500  0.40320  0.51220  Biso   1.000  H
  H114     1.0000 0.32530  0.26860  0.36330  Biso   1.000  H
  H115     1.0000 0.09070  0.04160  0.36270  Biso   1.000  H
  H116     1.0000 0.12010  0.02790  0.48800  Biso   1.000  H
  H117     1.0000 0.08280  0.30840  0.52600  Biso   1.000  H
  H118     1.0000 0.05490  0.23090  0.38320  Biso   1.000  H
  H119     1.0000 0.10900  0.09680  0.54180  Biso   1.000  H
  H120     1.0000 0.09470  0.23140  0.55670  Biso   1.000  H
  H121     1.0000 0.04160  0.86270  0.59070  Biso   1.000  H
  H122     1.0000 0.02790  0.98800  0.62010  Biso   1.000  H
  H123     1.0000 0.30840  0.02600  0.58280  Biso   1.000  H
  H124     1.0000 0.23090  0.88320  0.55490  Biso   1.000  H
  H125     1.0000 0.09680  0.04180  0.60900  Biso   1.000  H
  H126     1.0000 0.23140  0.05670  0.59470  Biso   1.000  H
  H127     1.0000 0.45840  0.04910  0.82110  Biso   1.000  H
  H128     1.0000 0.47210  0.09220  0.96010  Biso   1.000  H
  H129     1.0000 0.19160  0.77440  0.71760  Biso   1.000  H
  H130     1.0000 0.26910  0.82400  0.65230  Biso   1.000  H
  H131     1.0000 0.40320  0.01220  0.94500  Biso   1.000  H
  H132     1.0000 0.26860  0.86330  0.82530  Biso   1.000  H
  H133     1.0000 0.72800  0.63730  0.67890  Biso   1.000  H
  H134     1.0000 0.63210  0.51200  0.53990  Biso   1.000  H
  H135     1.0000 0.55680  0.47400  0.78240  Biso   1.000  H
  H136     1.0000 0.67170  0.61680  0.84770  Biso   1.000  H
  H137     1.0000 0.56720  0.45820  0.55500  Biso   1.000  H
  H138     1.0000 0.53800  0.44330  0.67470  Biso   1.000  H
  H139     1.0000 0.77200  0.45090  0.90930  Biso   1.000  H
  H140     1.0000 0.86790  0.40780  0.87990  Biso   1.000  H
  H141     1.0000 0.94320  0.72560  0.91720  Biso   1.000  H
  H142     1.0000 0.82830  0.67600  0.94510  Biso   1.000  H
  H143     1.0000 0.93280  0.48780  0.89100  Biso   1.000  H
  H144     1.0000 0.96200  0.63670  0.90530  Biso   1.000  H
  H145     1.0000 0.82110  0.54910  0.45840  Biso   1.000  H
  H146     1.0000 0.96010  0.59220  0.47210  Biso   1.000  H
  H147     1.0000 0.71760  0.27440  0.19160  Biso   1.000  H
  H148     1.0000 0.65230  0.32400  0.26910  Biso   1.000  H
  H149     1.0000 0.94500  0.51220  0.40320  Biso   1.000  H
  H150     1.0000 0.82530  0.36330  0.26860  Biso   1.000  H
  H151     1.0000 0.59070  0.36270  0.04160  Biso   1.000  H
  H152     1.0000 0.62010  0.48800  0.02790  Biso   1.000  H
  H153     1.0000 0.58280  0.52600  0.30840  Biso   1.000  H
  H154     1.0000 0.55490  0.38320  0.23090  Biso   1.000  H
  H155     1.0000 0.60900  0.54180  0.09680  Biso   1.000  H
  H156     1.0000 0.59470  0.55670  0.23140  Biso   1.000  H
  H157     1.0000 0.90930  0.95090  0.77200  Biso   1.000  H
  H158     1.0000 0.87990  0.90780  0.86790  Biso   1.000  H
  H159     1.0000 0.91720  0.22560  0.94320  Biso   1.000  H
  H160     1.0000 0.94510  0.17600  0.82830  Biso   1.000  H
  H161     1.0000 0.89100  0.98780  0.93280  Biso   1.000  H
  H162     1.0000 0.90530  0.13670  0.96200  Biso   1.000  H
  H163     1.0000 0.67890  0.13730  0.72800  Biso   1.000  H
  H164     1.0000 0.53990  0.01200  0.63210  Biso   1.000  H
  H165     1.0000 0.78240  0.97400  0.55680  Biso   1.000  H
  H166     1.0000 0.84770  0.11680  0.67170  Biso   1.000  H
  H167     1.0000 0.55500  0.95820  0.56720  Biso   1.000  H
  H168     1.0000 0.67470  0.94330  0.53800  Biso   1.000  H
  H169     1.0000 0.27200  0.90930  0.45090  Biso   1.000  H
  H170     1.0000 0.36790  0.87990  0.40780  Biso   1.000  H
  H171     1.0000 0.44320  0.91720  0.72560  Biso   1.000  H
  H172     1.0000 0.32830  0.94510  0.67600  Biso   1.000  H
  H173     1.0000 0.43280  0.89100  0.48780  Biso   1.000  H
  H174     1.0000 0.46200  0.90530  0.63670  Biso   1.000  H
  H175     1.0000 0.22800  0.67890  0.63730  Biso   1.000  H
  H176     1.0000 0.13210  0.53990  0.51200  Biso   1.000  H
  H177     1.0000 0.05680  0.78240  0.47400  Biso   1.000  H
  H178     1.0000 0.17170  0.84770  0.61680  Biso   1.000  H
  H179     1.0000 0.06720  0.55500  0.45820  Biso   1.000  H
  H180     1.0000 0.03800  0.67470  0.44330  Biso   1.000  H
  H181     1.0000 0.95840  0.82110  0.04910  Biso   1.000  H
  H182     1.0000 0.97210  0.96010  0.09220  Biso   1.000  H
  H183     1.0000 0.69160  0.71760  0.77440  Biso   1.000  H
  H184     1.0000 0.76910  0.65230  0.82400  Biso   1.000  H
  H185     1.0000 0.90320  0.94500  0.01220  Biso   1.000  H
  H186     1.0000 0.76860  0.82530  0.86330  Biso   1.000  H
  H187     1.0000 0.54160  0.59070  0.86270  Biso   1.000  H
  H188     1.0000 0.52790  0.62010  0.98800  Biso   1.000  H
  H189     1.0000 0.80840  0.58280  0.02600  Biso   1.000  H
  H190     1.0000 0.73090  0.55490  0.88320  Biso   1.000  H
  H191     1.0000 0.59680  0.60900  0.04180  Biso   1.000  H
  H192     1.0000 0.73140  0.59470  0.05670  Biso   1.000  H
  H193     1.0000 0.36270  0.54160  0.09070  Biso   1.000  H
  H194     1.0000 0.48800  0.52790  0.12010  Biso   1.000  H
  H195     1.0000 0.52600  0.80840  0.08280  Biso   1.000  H
  H196     1.0000 0.38320  0.73090  0.05490  Biso   1.000  H
  H197     1.0000 0.54180  0.59680  0.10900  Biso   1.000  H
  H198     1.0000 0.55670  0.73140  0.09470  Biso   1.000  H
  H199     1.0000 0.54910  0.95840  0.32110  Biso   1.000  H
  H200     1.0000 0.59220  0.97210  0.46010  Biso   1.000  H
  H201     1.0000 0.27440  0.69160  0.21760  Biso   1.000  H
  H202     1.0000 0.32400  0.76910  0.15230  Biso   1.000  H
  H203     1.0000 0.51220  0.90320  0.44500  Biso   1.000  H
  H204     1.0000 0.36330  0.76860  0.32530  Biso   1.000  H
  H205     1.0000 0.13730  0.22800  0.17890  Biso   1.000  H
  H206     1.0000 0.01200  0.13210  0.03990  Biso   1.000  H
  H207     1.0000 0.97400  0.05680  0.28240  Biso   1.000  H
  H208     1.0000 0.11680  0.17170  0.34770  Biso   1.000  H
  H209     1.0000 0.95820  0.06720  0.05500  Biso   1.000  H
  H210     1.0000 0.94330  0.03800  0.17470  Biso   1.000  H
  H211     1.0000 0.95090  0.27200  0.40930  Biso   1.000  H
  H212     1.0000 0.90780  0.36790  0.37990  Biso   1.000  H
  H213     1.0000 0.22560  0.44320  0.41720  Biso   1.000  H
  H214     1.0000 0.17600  0.32830  0.44510  Biso   1.000  H
  H215     1.0000 0.98780  0.43280  0.39100  Biso   1.000  H
  H216     1.0000 0.13670  0.46200  0.40530  Biso   1.000  H
  H217     1.0000 0.95090  0.67890  0.04160  Biso   1.000  H
  H218     1.0000 0.90780  0.53990  0.02790  Biso   1.000  H
  H219     1.0000 0.22560  0.78240  0.30840  Biso   1.000  H
  H220     1.0000 0.17600  0.84770  0.23090  Biso   1.000  H
  H221     1.0000 0.98780  0.55500  0.09680  Biso   1.000  H
  H222     1.0000 0.13670  0.67470  0.23140  Biso   1.000  H
  H223     1.0000 0.13730  0.90930  0.45840  Biso   1.000  H
  H224     1.0000 0.01200  0.87990  0.47210  Biso   1.000  H
  H225     1.0000 0.97400  0.91720  0.19160  Biso   1.000  H
  H226     1.0000 0.11680  0.94510  0.26910  Biso   1.000  H
  H227     1.0000 0.95820  0.89100  0.40320  Biso   1.000  H
  H228     1.0000 0.94330  0.90530  0.26860  Biso   1.000  H
  H229     1.0000 0.54910  0.59070  0.72800  Biso   1.000  H
  H230     1.0000 0.59220  0.62010  0.63210  Biso   1.000  H
  H231     1.0000 0.27440  0.58280  0.55680  Biso   1.000  H
  H232     1.0000 0.32400  0.55490  0.67170  Biso   1.000  H
  H233     1.0000 0.51220  0.60900  0.56720  Biso   1.000  H
  H234     1.0000 0.36330  0.59470  0.53800  Biso   1.000  H
  H235     1.0000 0.36270  0.82110  0.77200  Biso   1.000  H
  H236     1.0000 0.48800  0.96010  0.86790  Biso   1.000  H
  H237     1.0000 0.52600  0.71760  0.94320  Biso   1.000  H
  H238     1.0000 0.38320  0.65230  0.82830  Biso   1.000  H
  H239     1.0000 0.54180  0.94500  0.93280  Biso   1.000  H
  H240     1.0000 0.55670  0.82530  0.96200  Biso   1.000  H
  H241     1.0000 0.59070  0.22800  0.04910  Biso   1.000  H
  H242     1.0000 0.62010  0.13210  0.09220  Biso   1.000  H
  H243     1.0000 0.58280  0.05680  0.77440  Biso   1.000  H
  H244     1.0000 0.55490  0.17170  0.82400  Biso   1.000  H
  H245     1.0000 0.60900  0.06720  0.01220  Biso   1.000  H
  H246     1.0000 0.59470  0.03800  0.86330  Biso   1.000  H
  H247     1.0000 0.82110  0.27200  0.86270  Biso   1.000  H
  H248     1.0000 0.96010  0.36790  0.98800  Biso   1.000  H
  H249     1.0000 0.71760  0.44320  0.02600  Biso   1.000  H
  H250     1.0000 0.65230  0.32830  0.88320  Biso   1.000  H
  H251     1.0000 0.94500  0.43280  0.04180  Biso   1.000  H
  H252     1.0000 0.82530  0.46200  0.05670  Biso   1.000  H
  H253     1.0000 0.67890  0.54160  0.45090  Biso   1.000  H
  H254     1.0000 0.53990  0.52790  0.40780  Biso   1.000  H
  H255     1.0000 0.78240  0.80840  0.72560  Biso   1.000  H
  H256     1.0000 0.84770  0.73090  0.67600  Biso   1.000  H
  H257     1.0000 0.55500  0.59680  0.48780  Biso   1.000  H
  H258     1.0000 0.67470  0.73140  0.63670  Biso   1.000  H
  H259     1.0000 0.90930  0.95840  0.63730  Biso   1.000  H
  H260     1.0000 0.87990  0.97210  0.51200  Biso   1.000  H
  H261     1.0000 0.91720  0.69160  0.47400  Biso   1.000  H
  H262     1.0000 0.94510  0.76910  0.61680  Biso   1.000  H
  H263     1.0000 0.89100  0.90320  0.45820  Biso   1.000  H
  H264     1.0000 0.90530  0.76860  0.44330  Biso   1.000  H
  H265     1.0000 0.95840  0.13730  0.40930  Biso   1.000  H
  H266     1.0000 0.97210  0.01200  0.37990  Biso   1.000  H
  H267     1.0000 0.69160  0.97400  0.41720  Biso   1.000  H
  H268     1.0000 0.76910  0.11680  0.44510  Biso   1.000  H
  H269     1.0000 0.90320  0.95820  0.39100  Biso   1.000  H
  H270     1.0000 0.76860  0.94330  0.40530  Biso   1.000  H
  H271     1.0000 0.54160  0.95090  0.17890  Biso   1.000  H
  H272     1.0000 0.52790  0.90780  0.03990  Biso   1.000  H
  H273     1.0000 0.80840  0.22560  0.28240  Biso   1.000  H
  H274     1.0000 0.73090  0.17600  0.34770  Biso   1.000  H
  H275     1.0000 0.59680  0.98780  0.05500  Biso   1.000  H
  H276     1.0000 0.73140  0.13670  0.17470  Biso   1.000  H
  H277     1.0000 0.27200  0.36270  0.32110  Biso   1.000  H
  H278     1.0000 0.36790  0.48800  0.46010  Biso   1.000  H
  H279     1.0000 0.44320  0.52600  0.21760  Biso   1.000  H
  H280     1.0000 0.32830  0.38320  0.15230  Biso   1.000  H
  H281     1.0000 0.43280  0.54180  0.44500  Biso   1.000  H
  H282     1.0000 0.46200  0.55670  0.32530  Biso   1.000  H
  H283     1.0000 0.22800  0.54910  0.09070  Biso   1.000  H
  H284     1.0000 0.13210  0.59220  0.12010  Biso   1.000  H
  H285     1.0000 0.05680  0.27440  0.08280  Biso   1.000  H
  H286     1.0000 0.17170  0.32400  0.05490  Biso   1.000  H
  H287     1.0000 0.06720  0.51220  0.10900  Biso   1.000  H
  H288     1.0000 0.03800  0.36330  0.09470  Biso   1.000  H
  C1       1.0000 0.15199  0.45161  0.54832  Biso   1.000  C
  C2       1.0000 0.07570  0.42722  0.53980  Biso   1.000  C
  C3       1.0000 0.11026  0.47808  0.58270  Biso   1.000  C
  C4       1.0000 0.24797  0.65978  0.73607  Biso   1.000  C
  C5       1.0000 0.28736  0.70568  0.78248  Biso   1.000  C
  C6       1.0000 0.32253  0.67793  0.74012  Biso   1.000  C
  C7       1.0000 0.09140  0.50630  0.61130  Biso   1.000  C
  C8       1.0000 0.19260  0.62710  0.71470  Biso   1.000  C
  C9       1.0000 0.40329  0.60367  0.95168  Biso   1.000  C
  C10      1.0000 0.38742  0.53590  0.96020  Biso   1.000  C
  C11      1.0000 0.39538  0.52756  0.91730  Biso   1.000  C
  C12      1.0000 0.42371  0.51190  0.76393  Biso   1.000  C
  C13      1.0000 0.42320  0.50488  0.71752  Biso   1.000  C
  C14      1.0000 0.43781  0.58241  0.75988  Biso   1.000  C
  C15      1.0000 0.39500  0.48010  0.88870  Biso   1.000  C
  C16      1.0000 0.41240  0.47790  0.78530  Biso   1.000  C
  C17      1.0000 0.09671  0.04839  0.20038  Biso   1.000  C
  C18      1.0000 0.11258  0.07278  0.14848  Biso   1.000  C
  C19      1.0000 0.10462  0.02192  0.13218  Biso   1.000  C
  C20      1.0000 0.07629  0.84022  0.08819  Biso   1.000  C
  C21      1.0000 0.07680  0.79432  0.08168  Biso   1.000  C
  C22      1.0000 0.06219  0.82207  0.14460  Biso   1.000  C
  C23      1.0000 0.10500  0.99370  0.08510  Biso   1.000  C
  C24      1.0000 0.08760  0.87290  0.06550  Biso   1.000  C
  C25      1.0000 0.34801  0.89633  0.29962  Biso   1.000  C
  C26      1.0000 0.42430  0.96410  0.35152  Biso   1.000  C
  C27      1.0000 0.38974  0.97244  0.36782  Biso   1.000  C
  C28      1.0000 0.25203  0.98810  0.41181  Biso   1.000  C
  C29      1.0000 0.21264  0.99512  0.41832  Biso   1.000  C
  C30      1.0000 0.17747  0.91759  0.35540  Biso   1.000  C
  C31      1.0000 0.40860  0.01990  0.41490  Biso   1.000  C
  C32      1.0000 0.30740  0.02210  0.43450  Biso   1.000  C
  C33      1.0000 0.70038  0.09671  0.54839  Biso   1.000  C
  C34      1.0000 0.64848  0.11258  0.57278  Biso   1.000  C
  C35      1.0000 0.63218  0.10462  0.52192  Biso   1.000  C
  C36      1.0000 0.58819  0.07629  0.34022  Biso   1.000  C
  C37      1.0000 0.58168  0.07680  0.29432  Biso   1.000  C
  C38      1.0000 0.64460  0.06219  0.32207  Biso   1.000  C
  C39      1.0000 0.58510  0.10500  0.49370  Biso   1.000  C
  C40      1.0000 0.56550  0.08760  0.37290  Biso   1.000  C
  C41      1.0000 0.79962  0.34801  0.39633  Biso   1.000  C
  C42      1.0000 0.85152  0.42430  0.46410  Biso   1.000  C
  C43      1.0000 0.86782  0.38974  0.47244  Biso   1.000  C
  C44      1.0000 0.91181  0.25203  0.48810  Biso   1.000  C
  C45      1.0000 0.91832  0.21264  0.49512  Biso   1.000  C
  C46      1.0000 0.85540  0.17747  0.41759  Biso   1.000  C
  C47      1.0000 0.91490  0.40860  0.51990  Biso   1.000  C
  C48      1.0000 0.93450  0.30740  0.52210  Biso   1.000  C
  C49      1.0000 0.04832  0.15199  0.95161  Biso   1.000  C
  C50      1.0000 0.03980  0.07570  0.92722  Biso   1.000  C
  C51      1.0000 0.08270  0.11026  0.97808  Biso   1.000  C
  C52      1.0000 0.23607  0.24797  0.15978  Biso   1.000  C
  C53      1.0000 0.28248  0.28736  0.20568  Biso   1.000  C
  C54      1.0000 0.24012  0.32253  0.17793  Biso   1.000  C
  C55      1.0000 0.11130  0.09140  0.00630  Biso   1.000  C
  C56      1.0000 0.21470  0.19260  0.12710  Biso   1.000  C
  C57      1.0000 0.45168  0.40329  0.10367  Biso   1.000  C
  C58      1.0000 0.46020  0.38742  0.03590  Biso   1.000  C
  C59      1.0000 0.41730  0.39538  0.02756  Biso   1.000  C
  C60      1.0000 0.26393  0.42371  0.01190  Biso   1.000  C
  C61      1.0000 0.21752  0.42320  0.00488  Biso   1.000  C
  C62      1.0000 0.25988  0.43781  0.08241  Biso   1.000  C
  C63      1.0000 0.38870  0.39500  0.98010  Biso   1.000  C
  C64      1.0000 0.28530  0.41240  0.97790  Biso   1.000  C
  C65      1.0000 0.60367  0.45168  0.90329  Biso   1.000  C
  C66      1.0000 0.53590  0.46020  0.88742  Biso   1.000  C
  C67      1.0000 0.52756  0.41730  0.89538  Biso   1.000  C
  C68      1.0000 0.51190  0.26393  0.92371  Biso   1.000  C
  C69      1.0000 0.50488  0.21752  0.92320  Biso   1.000  C
  C70      1.0000 0.58241  0.25988  0.93781  Biso   1.000  C
  C71      1.0000 0.48010  0.38870  0.89500  Biso   1.000  C
  C72      1.0000 0.47790  0.28530  0.91240  Biso   1.000  C
  C73      1.0000 0.45161  0.04832  0.65199  Biso   1.000  C
  C74      1.0000 0.42722  0.03980  0.57570  Biso   1.000  C
  C75      1.0000 0.47808  0.08270  0.61026  Biso   1.000  C
  C76      1.0000 0.65978  0.23607  0.74797  Biso   1.000  C
  C77      1.0000 0.70568  0.28248  0.78736  Biso   1.000  C
  C78      1.0000 0.67793  0.24012  0.82253  Biso   1.000  C
  C79      1.0000 0.50630  0.11130  0.59140  Biso   1.000  C
  C80      1.0000 0.62710  0.21470  0.69260  Biso   1.000  C
  C81      1.0000 0.89633  0.79962  0.84801  Biso   1.000  C
  C82      1.0000 0.96410  0.85152  0.92430  Biso   1.000  C
  C83      1.0000 0.97244  0.86782  0.88974  Biso   1.000  C
  C84      1.0000 0.98810  0.91181  0.75203  Biso   1.000  C
  C85      1.0000 0.99512  0.91832  0.71264  Biso   1.000  C
  C86      1.0000 0.91759  0.85540  0.67747  Biso   1.000  C
  C87      1.0000 0.01990  0.91490  0.90860  Biso   1.000  C
  C88      1.0000 0.02210  0.93450  0.80740  Biso   1.000  C
  C89      1.0000 0.04839  0.70038  0.59671  Biso   1.000  C
  C90      1.0000 0.07278  0.64848  0.61258  Biso   1.000  C
  C91      1.0000 0.02192  0.63218  0.60462  Biso   1.000  C
  C92      1.0000 0.84022  0.58819  0.57629  Biso   1.000  C
  C93      1.0000 0.79432  0.58168  0.57680  Biso   1.000  C
  C94      1.0000 0.82207  0.64460  0.56219  Biso   1.000  C
  C95      1.0000 0.99370  0.58510  0.60500  Biso   1.000  C
  C96      1.0000 0.87290  0.56550  0.58760  Biso   1.000  C
  C97      1.0000 0.04839  0.34801  0.95168  Biso   1.000  C
  C98      1.0000 0.07278  0.42430  0.96020  Biso   1.000  C
  C99      1.0000 0.02192  0.38974  0.91730  Biso   1.000  C
  C100     1.0000 0.84022  0.25203  0.76393  Biso   1.000  C
  C101     1.0000 0.79432  0.21264  0.71752  Biso   1.000  C
  C102     1.0000 0.82207  0.17747  0.75988  Biso   1.000  C
  C103     1.0000 0.99370  0.40860  0.88870  Biso   1.000  C
  C104     1.0000 0.87290  0.30740  0.78530  Biso   1.000  C
  C105     1.0000 0.89633  0.09671  0.54832  Biso   1.000  C
  C106     1.0000 0.96410  0.11258  0.53980  Biso   1.000  C
  C107     1.0000 0.97244  0.10462  0.58270  Biso   1.000  C
  C108     1.0000 0.98810  0.07629  0.73607  Biso   1.000  C
  C109     1.0000 0.99512  0.07680  0.78248  Biso   1.000  C
  C110     1.0000 0.91759  0.06219  0.74012  Biso   1.000  C
  C111     1.0000 0.01990  0.10500  0.61130  Biso   1.000  C
  C112     1.0000 0.02210  0.08760  0.71470  Biso   1.000  C
  C113     1.0000 0.45161  0.40329  0.29962  Biso   1.000  C
  C114     1.0000 0.42722  0.38742  0.35152  Biso   1.000  C
  C115     1.0000 0.47808  0.39538  0.36782  Biso   1.000  C
  C116     1.0000 0.65978  0.42371  0.41181  Biso   1.000  C
  C117     1.0000 0.70568  0.42320  0.41832  Biso   1.000  C
  C118     1.0000 0.67793  0.43781  0.35540  Biso   1.000  C
  C119     1.0000 0.50630  0.39500  0.41490  Biso   1.000  C
  C120     1.0000 0.62710  0.41240  0.43450  Biso   1.000  C
  C121     1.0000 0.60367  0.15199  0.20038  Biso   1.000  C
  C122     1.0000 0.53590  0.07570  0.14848  Biso   1.000  C
  C123     1.0000 0.52756  0.11026  0.13218  Biso   1.000  C
  C124     1.0000 0.51190  0.24797  0.08819  Biso   1.000  C
  C125     1.0000 0.50488  0.28736  0.08168  Biso   1.000  C
  C126     1.0000 0.58241  0.32253  0.14460  Biso   1.000  C
  C127     1.0000 0.48010  0.09140  0.08510  Biso   1.000  C
  C128     1.0000 0.47790  0.19260  0.06550  Biso   1.000  C
  C129     1.0000 0.40329  0.79962  0.95161  Biso   1.000  C
  C130     1.0000 0.38742  0.85152  0.92722  Biso   1.000  C
  C131     1.0000 0.39538  0.86782  0.97808  Biso   1.000  C
  C132     1.0000 0.42371  0.91181  0.15978  Biso   1.000  C
  C133     1.0000 0.42320  0.91832  0.20568  Biso   1.000  C
  C134     1.0000 0.43781  0.85540  0.17793  Biso   1.000  C
  C135     1.0000 0.39500  0.91490  0.00630  Biso   1.000  C
  C136     1.0000 0.41240  0.93450  0.12710  Biso   1.000  C
  C137     1.0000 0.15199  0.70038  0.10367  Biso   1.000  C
  C138     1.0000 0.07570  0.64848  0.03590  Biso   1.000  C
  C139     1.0000 0.11026  0.63218  0.02756  Biso   1.000  C
  C140     1.0000 0.24797  0.58819  0.01190  Biso   1.000  C
  C141     1.0000 0.28736  0.58168  0.00488  Biso   1.000  C
  C142     1.0000 0.32253  0.64460  0.08241  Biso   1.000  C
  C143     1.0000 0.09140  0.58510  0.98010  Biso   1.000  C
  C144     1.0000 0.19260  0.56550  0.97790  Biso   1.000  C
  C145     1.0000 0.34801  0.45168  0.54839  Biso   1.000  C
  C146     1.0000 0.42430  0.46020  0.57278  Biso   1.000  C
  C147     1.0000 0.38974  0.41730  0.52192  Biso   1.000  C
  C148     1.0000 0.25203  0.26393  0.34022  Biso   1.000  C
  C149     1.0000 0.21264  0.21752  0.29432  Biso   1.000  C
  C150     1.0000 0.17747  0.25988  0.32207  Biso   1.000  C
  C151     1.0000 0.40860  0.38870  0.49370  Biso   1.000  C
  C152     1.0000 0.30740  0.28530  0.37290  Biso   1.000  C
  C153     1.0000 0.09671  0.04832  0.39633  Biso   1.000  C
  C154     1.0000 0.11258  0.03980  0.46410  Biso   1.000  C
  C155     1.0000 0.10462  0.08270  0.47244  Biso   1.000  C
  C156     1.0000 0.07629  0.23607  0.48810  Biso   1.000  C
  C157     1.0000 0.07680  0.28248  0.49512  Biso   1.000  C
  C158     1.0000 0.06219  0.24012  0.41759  Biso   1.000  C
  C159     1.0000 0.10500  0.11130  0.51990  Biso   1.000  C
  C160     1.0000 0.08760  0.21470  0.52210  Biso   1.000  C
  C161     1.0000 0.04832  0.89633  0.59671  Biso   1.000  C
  C162     1.0000 0.03980  0.96410  0.61258  Biso   1.000  C
  C163     1.0000 0.08270  0.97244  0.60462  Biso   1.000  C
  C164     1.0000 0.23607  0.98810  0.57629  Biso   1.000  C
  C165     1.0000 0.28248  0.99512  0.57680  Biso   1.000  C
  C166     1.0000 0.24012  0.91759  0.56219  Biso   1.000  C
  C167     1.0000 0.11130  0.01990  0.60500  Biso   1.000  C
  C168     1.0000 0.21470  0.02210  0.58760  Biso   1.000  C
  C169     1.0000 0.45168  0.04839  0.84801  Biso   1.000  C
  C170     1.0000 0.46020  0.07278  0.92430  Biso   1.000  C
  C171     1.0000 0.41730  0.02192  0.88974  Biso   1.000  C
  C172     1.0000 0.26393  0.84022  0.75203  Biso   1.000  C
  C173     1.0000 0.21752  0.79432  0.71264  Biso   1.000  C
  C174     1.0000 0.25988  0.82207  0.67747  Biso   1.000  C
  C175     1.0000 0.38870  0.99370  0.90860  Biso   1.000  C
  C176     1.0000 0.28530  0.87290  0.80740  Biso   1.000  C
  C177     1.0000 0.70038  0.60367  0.65199  Biso   1.000  C
  C178     1.0000 0.64848  0.53590  0.57570  Biso   1.000  C
  C179     1.0000 0.63218  0.52756  0.61026  Biso   1.000  C
  C180     1.0000 0.58819  0.51190  0.74797  Biso   1.000  C
  C181     1.0000 0.58168  0.50488  0.78736  Biso   1.000  C
  C182     1.0000 0.64460  0.58241  0.82253  Biso   1.000  C
  C183     1.0000 0.58510  0.48010  0.59140  Biso   1.000  C
  C184     1.0000 0.56550  0.47790  0.69260  Biso   1.000  C
  C185     1.0000 0.79962  0.45161  0.90329  Biso   1.000  C
  C186     1.0000 0.85152  0.42722  0.88742  Biso   1.000  C
  C187     1.0000 0.86782  0.47808  0.89538  Biso   1.000  C
  C188     1.0000 0.91181  0.65978  0.92371  Biso   1.000  C
  C189     1.0000 0.91832  0.70568  0.92320  Biso   1.000  C
  C190     1.0000 0.85540  0.67793  0.93781  Biso   1.000  C
  C191     1.0000 0.91490  0.50630  0.89500  Biso   1.000  C
  C192     1.0000 0.93450  0.62710  0.91240  Biso   1.000  C
  C193     1.0000 0.84801  0.54839  0.45168  Biso   1.000  C
  C194     1.0000 0.92430  0.57278  0.46020  Biso   1.000  C
  C195     1.0000 0.88974  0.52192  0.41730  Biso   1.000  C
  C196     1.0000 0.75203  0.34022  0.26393  Biso   1.000  C
  C197     1.0000 0.71264  0.29432  0.21752  Biso   1.000  C
  C198     1.0000 0.67747  0.32207  0.25988  Biso   1.000  C
  C199     1.0000 0.90860  0.49370  0.38870  Biso   1.000  C
  C200     1.0000 0.80740  0.37290  0.28530  Biso   1.000  C
  C201     1.0000 0.59671  0.39633  0.04832  Biso   1.000  C
  C202     1.0000 0.61258  0.46410  0.03980  Biso   1.000  C
  C203     1.0000 0.60462  0.47244  0.08270  Biso   1.000  C
  C204     1.0000 0.57629  0.48810  0.23607  Biso   1.000  C
  C205     1.0000 0.57680  0.49512  0.28248  Biso   1.000  C
  C206     1.0000 0.56219  0.41759  0.24012  Biso   1.000  C
  C207     1.0000 0.60500  0.51990  0.11130  Biso   1.000  C
  C208     1.0000 0.58760  0.52210  0.21470  Biso   1.000  C
  C209     1.0000 0.90329  0.95161  0.79962  Biso   1.000  C
  C210     1.0000 0.88742  0.92722  0.85152  Biso   1.000  C
  C211     1.0000 0.89538  0.97808  0.86782  Biso   1.000  C
  C212     1.0000 0.92371  0.15978  0.91181  Biso   1.000  C
  C213     1.0000 0.92320  0.20568  0.91832  Biso   1.000  C
  C214     1.0000 0.93781  0.17793  0.85540  Biso   1.000  C
  C215     1.0000 0.89500  0.00630  0.91490  Biso   1.000  C
  C216     1.0000 0.91240  0.12710  0.93450  Biso   1.000  C
  C217     1.0000 0.65199  0.10367  0.70038  Biso   1.000  C
  C218     1.0000 0.57570  0.03590  0.64848  Biso   1.000  C
  C219     1.0000 0.61026  0.02756  0.63218  Biso   1.000  C
  C220     1.0000 0.74797  0.01190  0.58819  Biso   1.000  C
  C221     1.0000 0.78736  0.00488  0.58168  Biso   1.000  C
  C222     1.0000 0.82253  0.08241  0.64460  Biso   1.000  C
  C223     1.0000 0.59140  0.98010  0.58510  Biso   1.000  C
  C224     1.0000 0.69260  0.97790  0.56550  Biso   1.000  C
  C225     1.0000 0.29962  0.90329  0.45161  Biso   1.000  C
  C226     1.0000 0.35152  0.88742  0.42722  Biso   1.000  C
  C227     1.0000 0.36782  0.89538  0.47808  Biso   1.000  C
  C228     1.0000 0.41181  0.92371  0.65978  Biso   1.000  C
  C229     1.0000 0.41832  0.92320  0.70568  Biso   1.000  C
  C230     1.0000 0.35540  0.93781  0.67793  Biso   1.000  C
  C231     1.0000 0.41490  0.89500  0.50630  Biso   1.000  C
  C232     1.0000 0.43450  0.91240  0.62710  Biso   1.000  C
  C233     1.0000 0.20038  0.65199  0.60367  Biso   1.000  C
  C234     1.0000 0.14848  0.57570  0.53590  Biso   1.000  C
  C235     1.0000 0.13218  0.61026  0.52756  Biso   1.000  C
  C236     1.0000 0.08819  0.74797  0.51190  Biso   1.000  C
  C237     1.0000 0.08168  0.78736  0.50488  Biso   1.000  C
  C238     1.0000 0.14460  0.82253  0.58241  Biso   1.000  C
  C239     1.0000 0.08510  0.59140  0.48010  Biso   1.000  C
  C240     1.0000 0.06550  0.69260  0.47790  Biso   1.000  C
  C241     1.0000 0.95168  0.84801  0.04839  Biso   1.000  C
  C242     1.0000 0.96020  0.92430  0.07278  Biso   1.000  C
  C243     1.0000 0.91730  0.88974  0.02192  Biso   1.000  C
  C244     1.0000 0.76393  0.75203  0.84022  Biso   1.000  C
  C245     1.0000 0.71752  0.71264  0.79432  Biso   1.000  C
  C246     1.0000 0.75988  0.67747  0.82207  Biso   1.000  C
  C247     1.0000 0.88870  0.90860  0.99370  Biso   1.000  C
  C248     1.0000 0.78530  0.80740  0.87290  Biso   1.000  C
  C249     1.0000 0.54832  0.59671  0.89633  Biso   1.000  C
  C250     1.0000 0.53980  0.61258  0.96410  Biso   1.000  C
  C251     1.0000 0.58270  0.60462  0.97244  Biso   1.000  C
  C252     1.0000 0.73607  0.57629  0.98810  Biso   1.000  C
  C253     1.0000 0.78248  0.57680  0.99512  Biso   1.000  C
  C254     1.0000 0.74012  0.56219  0.91759  Biso   1.000  C
  C255     1.0000 0.61130  0.60500  0.01990  Biso   1.000  C
  C256     1.0000 0.71470  0.58760  0.02210  Biso   1.000  C
  C257     1.0000 0.39633  0.54832  0.09671  Biso   1.000  C
  C258     1.0000 0.46410  0.53980  0.11258  Biso   1.000  C
  C259     1.0000 0.47244  0.58270  0.10462  Biso   1.000  C
  C260     1.0000 0.48810  0.73607  0.07629  Biso   1.000  C
  C261     1.0000 0.49512  0.78248  0.07680  Biso   1.000  C
  C262     1.0000 0.41759  0.74012  0.06219  Biso   1.000  C
  C263     1.0000 0.51990  0.61130  0.10500  Biso   1.000  C
  C264     1.0000 0.52210  0.71470  0.08760  Biso   1.000  C
  C265     1.0000 0.54839  0.95168  0.34801  Biso   1.000  C
  C266     1.0000 0.57278  0.96020  0.42430  Biso   1.000  C
  C267     1.0000 0.52192  0.91730  0.38974  Biso   1.000  C
  C268     1.0000 0.34022  0.76393  0.25203  Biso   1.000  C
  C269     1.0000 0.29432  0.71752  0.21264  Biso   1.000  C
  C270     1.0000 0.32207  0.75988  0.17747  Biso   1.000  C
  C271     1.0000 0.49370  0.88870  0.40860  Biso   1.000  C
  C272     1.0000 0.37290  0.78530  0.30740  Biso   1.000  C
  C273     1.0000 0.10367  0.20038  0.15199  Biso   1.000  C
  C274     1.0000 0.03590  0.14848  0.07570  Biso   1.000  C
  C275     1.0000 0.02756  0.13218  0.11026  Biso   1.000  C
  C276     1.0000 0.01190  0.08819  0.24797  Biso   1.000  C
  C277     1.0000 0.00488  0.08168  0.28736  Biso   1.000  C
  C278     1.0000 0.08241  0.14460  0.32253  Biso   1.000  C
  C279     1.0000 0.98010  0.08510  0.09140  Biso   1.000  C
  C280     1.0000 0.97790  0.06550  0.19260  Biso   1.000  C
  C281     1.0000 0.95161  0.29962  0.40329  Biso   1.000  C
  C282     1.0000 0.92722  0.35152  0.38742  Biso   1.000  C
  C283     1.0000 0.97808  0.36782  0.39538  Biso   1.000  C
  C284     1.0000 0.15978  0.41181  0.42371  Biso   1.000  C
  C285     1.0000 0.20568  0.41832  0.42320  Biso   1.000  C
  C286     1.0000 0.17793  0.35540  0.43781  Biso   1.000  C
  C287     1.0000 0.00630  0.41490  0.39500  Biso   1.000  C
  C288     1.0000 0.12710  0.43450  0.41240  Biso   1.000  C
  C289     1.0000 0.95161  0.65199  0.04832  Biso   1.000  C
  C290     1.0000 0.92722  0.57570  0.03980  Biso   1.000  C
  C291     1.0000 0.97808  0.61026  0.08270  Biso   1.000  C
  C292     1.0000 0.15978  0.74797  0.23607  Biso   1.000  C
  C293     1.0000 0.20568  0.78736  0.28248  Biso   1.000  C
  C294     1.0000 0.17793  0.82253  0.24012  Biso   1.000  C
  C295     1.0000 0.00630  0.59140  0.11130  Biso   1.000  C
  C296     1.0000 0.12710  0.69260  0.21470  Biso   1.000  C
  C297     1.0000 0.10367  0.90329  0.45168  Biso   1.000  C
  C298     1.0000 0.03590  0.88742  0.46020  Biso   1.000  C
  C299     1.0000 0.02756  0.89538  0.41730  Biso   1.000  C
  C300     1.0000 0.01190  0.92371  0.26393  Biso   1.000  C
  C301     1.0000 0.00488  0.92320  0.21752  Biso   1.000  C
  C302     1.0000 0.08241  0.93781  0.25988  Biso   1.000  C
  C303     1.0000 0.98010  0.89500  0.38870  Biso   1.000  C
  C304     1.0000 0.97790  0.91240  0.28530  Biso   1.000  C
  C305     1.0000 0.54839  0.59671  0.70038  Biso   1.000  C
  C306     1.0000 0.57278  0.61258  0.64848  Biso   1.000  C
  C307     1.0000 0.52192  0.60462  0.63218  Biso   1.000  C
  C308     1.0000 0.34022  0.57629  0.58819  Biso   1.000  C
  C309     1.0000 0.29432  0.57680  0.58168  Biso   1.000  C
  C310     1.0000 0.32207  0.56219  0.64460  Biso   1.000  C
  C311     1.0000 0.49370  0.60500  0.58510  Biso   1.000  C
  C312     1.0000 0.37290  0.58760  0.56550  Biso   1.000  C
  C313     1.0000 0.39633  0.84801  0.79962  Biso   1.000  C
  C314     1.0000 0.46410  0.92430  0.85152  Biso   1.000  C
  C315     1.0000 0.47244  0.88974  0.86782  Biso   1.000  C
  C316     1.0000 0.48810  0.75203  0.91181  Biso   1.000  C
  C317     1.0000 0.49512  0.71264  0.91832  Biso   1.000  C
  C318     1.0000 0.41759  0.67747  0.85540  Biso   1.000  C
  C319     1.0000 0.51990  0.90860  0.91490  Biso   1.000  C
  C320     1.0000 0.52210  0.80740  0.93450  Biso   1.000  C
  C321     1.0000 0.59671  0.20038  0.04839  Biso   1.000  C
  C322     1.0000 0.61258  0.14848  0.07278  Biso   1.000  C
  C323     1.0000 0.60462  0.13218  0.02192  Biso   1.000  C
  C324     1.0000 0.57629  0.08819  0.84022  Biso   1.000  C
  C325     1.0000 0.57680  0.08168  0.79432  Biso   1.000  C
  C326     1.0000 0.56219  0.14460  0.82207  Biso   1.000  C
  C327     1.0000 0.60500  0.08510  0.99370  Biso   1.000  C
  C328     1.0000 0.58760  0.06550  0.87290  Biso   1.000  C
  C329     1.0000 0.84801  0.29962  0.89633  Biso   1.000  C
  C330     1.0000 0.92430  0.35152  0.96410  Biso   1.000  C
  C331     1.0000 0.88974  0.36782  0.97244  Biso   1.000  C
  C332     1.0000 0.75203  0.41181  0.98810  Biso   1.000  C
  C333     1.0000 0.71264  0.41832  0.99512  Biso   1.000  C
  C334     1.0000 0.67747  0.35540  0.91759  Biso   1.000  C
  C335     1.0000 0.90860  0.41490  0.01990  Biso   1.000  C
  C336     1.0000 0.80740  0.43450  0.02210  Biso   1.000  C
  C337     1.0000 0.65199  0.54832  0.45161  Biso   1.000  C
  C338     1.0000 0.57570  0.53980  0.42722  Biso   1.000  C
  C339     1.0000 0.61026  0.58270  0.47808  Biso   1.000  C
  C340     1.0000 0.74797  0.73607  0.65978  Biso   1.000  C
  C341     1.0000 0.78736  0.78248  0.70568  Biso   1.000  C
  C342     1.0000 0.82253  0.74012  0.67793  Biso   1.000  C
  C343     1.0000 0.59140  0.61130  0.50630  Biso   1.000  C
  C344     1.0000 0.69260  0.71470  0.62710  Biso   1.000  C
  C345     1.0000 0.90329  0.95168  0.60367  Biso   1.000  C
  C346     1.0000 0.88742  0.96020  0.53590  Biso   1.000  C
  C347     1.0000 0.89538  0.91730  0.52756  Biso   1.000  C
  C348     1.0000 0.92371  0.76393  0.51190  Biso   1.000  C
  C349     1.0000 0.92320  0.71752  0.50488  Biso   1.000  C
  C350     1.0000 0.93781  0.75988  0.58241  Biso   1.000  C
  C351     1.0000 0.89500  0.88870  0.48010  Biso   1.000  C
  C352     1.0000 0.91240  0.78530  0.47790  Biso   1.000  C
  C353     1.0000 0.95168  0.10367  0.40329  Biso   1.000  C
  C354     1.0000 0.96020  0.03590  0.38742  Biso   1.000  C
  C355     1.0000 0.91730  0.02756  0.39538  Biso   1.000  C
  C356     1.0000 0.76393  0.01190  0.42371  Biso   1.000  C
  C357     1.0000 0.71752  0.00488  0.42320  Biso   1.000  C
  C358     1.0000 0.75988  0.08241  0.43781  Biso   1.000  C
  C359     1.0000 0.88870  0.98010  0.39500  Biso   1.000  C
  C360     1.0000 0.78530  0.97790  0.41240  Biso   1.000  C
  C361     1.0000 0.54832  0.95161  0.15199  Biso   1.000  C
  C362     1.0000 0.53980  0.92722  0.07570  Biso   1.000  C
  C363     1.0000 0.58270  0.97808  0.11026  Biso   1.000  C
  C364     1.0000 0.73607  0.15978  0.24797  Biso   1.000  C
  C365     1.0000 0.78248  0.20568  0.28736  Biso   1.000  C
  C366     1.0000 0.74012  0.17793  0.32253  Biso   1.000  C
  C367     1.0000 0.61130  0.00630  0.09140  Biso   1.000  C
  C368     1.0000 0.71470  0.12710  0.19260  Biso   1.000  C
  C369     1.0000 0.29962  0.39633  0.34801  Biso   1.000  C
  C370     1.0000 0.35152  0.46410  0.42430  Biso   1.000  C
  C371     1.0000 0.36782  0.47244  0.38974  Biso   1.000  C
  C372     1.0000 0.41181  0.48810  0.25203  Biso   1.000  C
  C373     1.0000 0.41832  0.49512  0.21264  Biso   1.000  C
  C374     1.0000 0.35540  0.41759  0.17747  Biso   1.000  C
  C375     1.0000 0.41490  0.51990  0.40860  Biso   1.000  C
  C376     1.0000 0.43450  0.52210  0.30740  Biso   1.000  C
  C377     1.0000 0.20038  0.54839  0.09671  Biso   1.000  C
  C378     1.0000 0.14848  0.57278  0.11258  Biso   1.000  C
  C379     1.0000 0.13218  0.52192  0.10462  Biso   1.000  C
  C380     1.0000 0.08819  0.34022  0.07629  Biso   1.000  C
  C381     1.0000 0.08168  0.29432  0.07680  Biso   1.000  C
  C382     1.0000 0.14460  0.32207  0.06219  Biso   1.000  C
  C383     1.0000 0.08510  0.49370  0.10500  Biso   1.000  C
  C384     1.0000 0.06550  0.37290  0.08760  Biso   1.000  C
  N1       1.0000 0.16000  0.49309  0.58805  Biso   1.000  N
  N2       1.0000 0.10208  0.41055  0.51833  Biso   1.000  N
  N3       1.0000 0.11390  0.55180  0.65270  Biso   1.000  N
  N4       1.0000 0.16700  0.58040  0.66780  Biso   1.000  N
  N5       1.0000 0.27154  0.64113  0.70957  Biso   1.000  N
  N6       1.0000 0.33484  0.71754  0.78462  Biso   1.000  N
  N7       1.0000 0.40504  0.57195  0.91195  Biso   1.000  N
  N8       1.0000 0.39222  0.58375  0.98167  Biso   1.000  N
  N9       1.0000 0.39910  0.46120  0.84730  Biso   1.000  N
  N10      1.0000 0.41260  0.49920  0.83220  Biso   1.000  N
  N11      1.0000 0.43156  0.56197  0.79043  Biso   1.000  N
  N12      1.0000 0.43292  0.55022  0.71538  Biso   1.000  N
  N13      1.0000 0.09496  0.00691  0.16691  Biso   1.000  N
  N14      1.0000 0.10778  0.08945  0.19153  Biso   1.000  N
  N15      1.0000 0.10090  0.94820  0.06210  Biso   1.000  N
  N16      1.0000 0.08740  0.91960  0.08660  Biso   1.000  N
  N17      1.0000 0.06844  0.85887  0.13041  Biso   1.000  N
  N18      1.0000 0.06708  0.78246  0.11730  Biso   1.000  N
  N19      1.0000 0.34000  0.92805  0.33309  Biso   1.000  N
  N20      1.0000 0.39792  0.91625  0.30847  Biso   1.000  N
  N21      1.0000 0.38610  0.03880  0.43790  Biso   1.000  N
  N22      1.0000 0.33300  0.00080  0.41340  Biso   1.000  N
  N23      1.0000 0.22846  0.93803  0.36959  Biso   1.000  N
  N24      1.0000 0.16516  0.94978  0.38270  Biso   1.000  N
  N25      1.0000 0.66691  0.09496  0.50691  Biso   1.000  N
  N26      1.0000 0.69153  0.10778  0.58945  Biso   1.000  N
  N27      1.0000 0.56210  0.10090  0.44820  Biso   1.000  N
  N28      1.0000 0.58660  0.08740  0.41960  Biso   1.000  N
  N29      1.0000 0.63041  0.06844  0.35887  Biso   1.000  N
  N30      1.0000 0.61730  0.06708  0.28246  Biso   1.000  N
  N31      1.0000 0.83309  0.34000  0.42805  Biso   1.000  N
  N32      1.0000 0.80847  0.39792  0.41625  Biso   1.000  N
  N33      1.0000 0.93790  0.38610  0.53880  Biso   1.000  N
  N34      1.0000 0.91340  0.33300  0.50080  Biso   1.000  N
  N35      1.0000 0.86959  0.22846  0.43803  Biso   1.000  N
  N36      1.0000 0.88270  0.16516  0.44978  Biso   1.000  N
  N37      1.0000 0.08805  0.16000  0.99309  Biso   1.000  N
  N38      1.0000 0.01833  0.10208  0.91055  Biso   1.000  N
  N39      1.0000 0.15270  0.11390  0.05180  Biso   1.000  N
  N40      1.0000 0.16780  0.16700  0.08040  Biso   1.000  N
  N41      1.0000 0.20957  0.27154  0.14113  Biso   1.000  N
  N42      1.0000 0.28462  0.33484  0.21754  Biso   1.000  N
  N43      1.0000 0.41195  0.40504  0.07195  Biso   1.000  N
  N44      1.0000 0.48167  0.39222  0.08375  Biso   1.000  N
  N45      1.0000 0.34730  0.39910  0.96120  Biso   1.000  N
  N46      1.0000 0.33220  0.41260  0.99920  Biso   1.000  N
  N47      1.0000 0.29043  0.43156  0.06197  Biso   1.000  N
  N48      1.0000 0.21538  0.43292  0.05022  Biso   1.000  N
  N49      1.0000 0.57195  0.41195  0.90504  Biso   1.000  N
  N50      1.0000 0.58375  0.48167  0.89222  Biso   1.000  N
  N51      1.0000 0.46120  0.34730  0.89910  Biso   1.000  N
  N52      1.0000 0.49920  0.33220  0.91260  Biso   1.000  N
  N53      1.0000 0.56197  0.29043  0.93156  Biso   1.000  N
  N54      1.0000 0.55022  0.21538  0.93292  Biso   1.000  N
  N55      1.0000 0.49309  0.08805  0.66000  Biso   1.000  N
  N56      1.0000 0.41055  0.01833  0.60208  Biso   1.000  N
  N57      1.0000 0.55180  0.15270  0.61390  Biso   1.000  N
  N58      1.0000 0.58040  0.16780  0.66700  Biso   1.000  N
  N59      1.0000 0.64113  0.20957  0.77154  Biso   1.000  N
  N60      1.0000 0.71754  0.28462  0.83484  Biso   1.000  N
  N61      1.0000 0.92805  0.83309  0.84000  Biso   1.000  N
  N62      1.0000 0.91625  0.80847  0.89792  Biso   1.000  N
  N63      1.0000 0.03880  0.93790  0.88610  Biso   1.000  N
  N64      1.0000 0.00080  0.91340  0.83300  Biso   1.000  N
  N65      1.0000 0.93803  0.86959  0.72846  Biso   1.000  N
  N66      1.0000 0.94978  0.88270  0.66516  Biso   1.000  N
  N67      1.0000 0.00691  0.66691  0.59496  Biso   1.000  N
  N68      1.0000 0.08945  0.69153  0.60778  Biso   1.000  N
  N69      1.0000 0.94820  0.56210  0.60090  Biso   1.000  N
  N70      1.0000 0.91960  0.58660  0.58740  Biso   1.000  N
  N71      1.0000 0.85887  0.63041  0.56844  Biso   1.000  N
  N72      1.0000 0.78246  0.61730  0.56708  Biso   1.000  N
  N73      1.0000 0.00691  0.34000  0.91195  Biso   1.000  N
  N74      1.0000 0.08945  0.39792  0.98167  Biso   1.000  N
  N75      1.0000 0.94820  0.38610  0.84730  Biso   1.000  N
  N76      1.0000 0.91960  0.33300  0.83220  Biso   1.000  N
  N77      1.0000 0.85887  0.22846  0.79043  Biso   1.000  N
  N78      1.0000 0.78246  0.16516  0.71538  Biso   1.000  N
  N79      1.0000 0.92805  0.09496  0.58805  Biso   1.000  N
  N80      1.0000 0.91625  0.10778  0.51833  Biso   1.000  N
  N81      1.0000 0.03880  0.10090  0.65270  Biso   1.000  N
  N82      1.0000 0.00080  0.08740  0.66780  Biso   1.000  N
  N83      1.0000 0.93803  0.06844  0.70957  Biso   1.000  N
  N84      1.0000 0.94978  0.06708  0.78462  Biso   1.000  N
  N85      1.0000 0.49309  0.40504  0.33309  Biso   1.000  N
  N86      1.0000 0.41055  0.39222  0.30847  Biso   1.000  N
  N87      1.0000 0.55180  0.39910  0.43790  Biso   1.000  N
  N88      1.0000 0.58040  0.41260  0.41340  Biso   1.000  N
  N89      1.0000 0.64113  0.43156  0.36959  Biso   1.000  N
  N90      1.0000 0.71754  0.43292  0.38270  Biso   1.000  N
  N91      1.0000 0.57195  0.16000  0.16691  Biso   1.000  N
  N92      1.0000 0.58375  0.10208  0.19153  Biso   1.000  N
  N93      1.0000 0.46120  0.11390  0.06210  Biso   1.000  N
  N94      1.0000 0.49920  0.16700  0.08660  Biso   1.000  N
  N95      1.0000 0.56197  0.27154  0.13041  Biso   1.000  N
  N96      1.0000 0.55022  0.33484  0.11730  Biso   1.000  N
  N97      1.0000 0.40504  0.83309  0.99309  Biso   1.000  N
  N98      1.0000 0.39222  0.80847  0.91055  Biso   1.000  N
  N99      1.0000 0.39910  0.93790  0.05180  Biso   1.000  N
  N100     1.0000 0.41260  0.91340  0.08040  Biso   1.000  N
  N101     1.0000 0.43156  0.86959  0.14113  Biso   1.000  N
  N102     1.0000 0.43292  0.88270  0.21754  Biso   1.000  N
  N103     1.0000 0.16000  0.66691  0.07195  Biso   1.000  N
  N104     1.0000 0.10208  0.69153  0.08375  Biso   1.000  N
  N105     1.0000 0.11390  0.56210  0.96120  Biso   1.000  N
  N106     1.0000 0.16700  0.58660  0.99920  Biso   1.000  N
  N107     1.0000 0.27154  0.63041  0.06197  Biso   1.000  N
  N108     1.0000 0.33484  0.61730  0.05022  Biso   1.000  N
  N109     1.0000 0.34000  0.41195  0.50691  Biso   1.000  N
  N110     1.0000 0.39792  0.48167  0.58945  Biso   1.000  N
  N111     1.0000 0.38610  0.34730  0.44820  Biso   1.000  N
  N112     1.0000 0.33300  0.33220  0.41960  Biso   1.000  N
  N113     1.0000 0.22846  0.29043  0.35887  Biso   1.000  N
  N114     1.0000 0.16516  0.21538  0.28246  Biso   1.000  N
  N115     1.0000 0.09496  0.08805  0.42805  Biso   1.000  N
  N116     1.0000 0.10778  0.01833  0.41625  Biso   1.000  N
  N117     1.0000 0.10090  0.15270  0.53880  Biso   1.000  N
  N118     1.0000 0.08740  0.16780  0.50080  Biso   1.000  N
  N119     1.0000 0.06844  0.20957  0.43803  Biso   1.000  N
  N120     1.0000 0.06708  0.28462  0.44978  Biso   1.000  N
  N121     1.0000 0.08805  0.92805  0.59496  Biso   1.000  N
  N122     1.0000 0.01833  0.91625  0.60778  Biso   1.000  N
  N123     1.0000 0.15270  0.03880  0.60090  Biso   1.000  N
  N124     1.0000 0.16780  0.00080  0.58740  Biso   1.000  N
  N125     1.0000 0.20957  0.93803  0.56844  Biso   1.000  N
  N126     1.0000 0.28462  0.94978  0.56708  Biso   1.000  N
  N127     1.0000 0.41195  0.00691  0.84000  Biso   1.000  N
  N128     1.0000 0.48167  0.08945  0.89792  Biso   1.000  N
  N129     1.0000 0.34730  0.94820  0.88610  Biso   1.000  N
  N130     1.0000 0.33220  0.91960  0.83300  Biso   1.000  N
  N131     1.0000 0.29043  0.85887  0.72846  Biso   1.000  N
  N132     1.0000 0.21538  0.78246  0.66516  Biso   1.000  N
  N133     1.0000 0.66691  0.57195  0.66000  Biso   1.000  N
  N134     1.0000 0.69153  0.58375  0.60208  Biso   1.000  N
  N135     1.0000 0.56210  0.46120  0.61390  Biso   1.000  N
  N136     1.0000 0.58660  0.49920  0.66700  Biso   1.000  N
  N137     1.0000 0.63041  0.56197  0.77154  Biso   1.000  N
  N138     1.0000 0.61730  0.55022  0.83484  Biso   1.000  N
  N139     1.0000 0.83309  0.49309  0.90504  Biso   1.000  N
  N140     1.0000 0.80847  0.41055  0.89222  Biso   1.000  N
  N141     1.0000 0.93790  0.55180  0.89910  Biso   1.000  N
  N142     1.0000 0.91340  0.58040  0.91260  Biso   1.000  N
  N143     1.0000 0.86959  0.64113  0.93156  Biso   1.000  N
  N144     1.0000 0.88270  0.71754  0.93292  Biso   1.000  N
  N145     1.0000 0.84000  0.50691  0.41195  Biso   1.000  N
  N146     1.0000 0.89792  0.58945  0.48167  Biso   1.000  N
  N147     1.0000 0.88610  0.44820  0.34730  Biso   1.000  N
  N148     1.0000 0.83300  0.41960  0.33220  Biso   1.000  N
  N149     1.0000 0.72846  0.35887  0.29043  Biso   1.000  N
  N150     1.0000 0.66516  0.28246  0.21538  Biso   1.000  N
  N151     1.0000 0.59496  0.42805  0.08805  Biso   1.000  N
  N152     1.0000 0.60778  0.41625  0.01833  Biso   1.000  N
  N153     1.0000 0.60090  0.53880  0.15270  Biso   1.000  N
  N154     1.0000 0.58740  0.50080  0.16780  Biso   1.000  N
  N155     1.0000 0.56844  0.43803  0.20957  Biso   1.000  N
  N156     1.0000 0.56708  0.44978  0.28462  Biso   1.000  N
  N157     1.0000 0.90504  0.99309  0.83309  Biso   1.000  N
  N158     1.0000 0.89222  0.91055  0.80847  Biso   1.000  N
  N159     1.0000 0.89910  0.05180  0.93790  Biso   1.000  N
  N160     1.0000 0.91260  0.08040  0.91340  Biso   1.000  N
  N161     1.0000 0.93156  0.14113  0.86959  Biso   1.000  N
  N162     1.0000 0.93292  0.21754  0.88270  Biso   1.000  N
  N163     1.0000 0.66000  0.07195  0.66691  Biso   1.000  N
  N164     1.0000 0.60208  0.08375  0.69153  Biso   1.000  N
  N165     1.0000 0.61390  0.96120  0.56210  Biso   1.000  N
  N166     1.0000 0.66700  0.99920  0.58660  Biso   1.000  N
  N167     1.0000 0.77154  0.06197  0.63041  Biso   1.000  N
  N168     1.0000 0.83484  0.05022  0.61730  Biso   1.000  N
  N169     1.0000 0.33309  0.90504  0.49309  Biso   1.000  N
  N170     1.0000 0.30847  0.89222  0.41055  Biso   1.000  N
  N171     1.0000 0.43790  0.89910  0.55180  Biso   1.000  N
  N172     1.0000 0.41340  0.91260  0.58040  Biso   1.000  N
  N173     1.0000 0.36959  0.93156  0.64113  Biso   1.000  N
  N174     1.0000 0.38270  0.93292  0.71754  Biso   1.000  N
  N175     1.0000 0.16691  0.66000  0.57195  Biso   1.000  N
  N176     1.0000 0.19153  0.60208  0.58375  Biso   1.000  N
  N177     1.0000 0.06210  0.61390  0.46120  Biso   1.000  N
  N178     1.0000 0.08660  0.66700  0.49920  Biso   1.000  N
  N179     1.0000 0.13041  0.77154  0.56197  Biso   1.000  N
  N180     1.0000 0.11730  0.83484  0.55022  Biso   1.000  N
  N181     1.0000 0.91195  0.84000  0.00691  Biso   1.000  N
  N182     1.0000 0.98167  0.89792  0.08945  Biso   1.000  N
  N183     1.0000 0.84730  0.88610  0.94820  Biso   1.000  N
  N184     1.0000 0.83220  0.83300  0.91960  Biso   1.000  N
  N185     1.0000 0.79043  0.72846  0.85887  Biso   1.000  N
  N186     1.0000 0.71538  0.66516  0.78246  Biso   1.000  N
  N187     1.0000 0.58805  0.59496  0.92805  Biso   1.000  N
  N188     1.0000 0.51833  0.60778  0.91625  Biso   1.000  N
  N189     1.0000 0.65270  0.60090  0.03880  Biso   1.000  N
  N190     1.0000 0.66780  0.58740  0.00080  Biso   1.000  N
  N191     1.0000 0.70957  0.56844  0.93803  Biso   1.000  N
  N192     1.0000 0.78462  0.56708  0.94978  Biso   1.000  N
  N193     1.0000 0.42805  0.58805  0.09496  Biso   1.000  N
  N194     1.0000 0.41625  0.51833  0.10778  Biso   1.000  N
  N195     1.0000 0.53880  0.65270  0.10090  Biso   1.000  N
  N196     1.0000 0.50080  0.66780  0.08740  Biso   1.000  N
  N197     1.0000 0.43803  0.70957  0.06844  Biso   1.000  N
  N198     1.0000 0.44978  0.78462  0.06708  Biso   1.000  N
  N199     1.0000 0.50691  0.91195  0.34000  Biso   1.000  N
  N200     1.0000 0.58945  0.98167  0.39792  Biso   1.000  N
  N201     1.0000 0.44820  0.84730  0.38610  Biso   1.000  N
  N202     1.0000 0.41960  0.83220  0.33300  Biso   1.000  N
  N203     1.0000 0.35887  0.79043  0.22846  Biso   1.000  N
  N204     1.0000 0.28246  0.71538  0.16516  Biso   1.000  N
  N205     1.0000 0.07195  0.16691  0.16000  Biso   1.000  N
  N206     1.0000 0.08375  0.19153  0.10208  Biso   1.000  N
  N207     1.0000 0.96120  0.06210  0.11390  Biso   1.000  N
  N208     1.0000 0.99920  0.08660  0.16700  Biso   1.000  N
  N209     1.0000 0.06197  0.13041  0.27154  Biso   1.000  N
  N210     1.0000 0.05022  0.11730  0.33484  Biso   1.000  N
  N211     1.0000 0.99309  0.33309  0.40504  Biso   1.000  N
  N212     1.0000 0.91055  0.30847  0.39222  Biso   1.000  N
  N213     1.0000 0.05180  0.43790  0.39910  Biso   1.000  N
  N214     1.0000 0.08040  0.41340  0.41260  Biso   1.000  N
  N215     1.0000 0.14113  0.36959  0.43156  Biso   1.000  N
  N216     1.0000 0.21754  0.38270  0.43292  Biso   1.000  N
  N217     1.0000 0.99309  0.66000  0.08805  Biso   1.000  N
  N218     1.0000 0.91055  0.60208  0.01833  Biso   1.000  N
  N219     1.0000 0.05180  0.61390  0.15270  Biso   1.000  N
  N220     1.0000 0.08040  0.66700  0.16780  Biso   1.000  N
  N221     1.0000 0.14113  0.77154  0.20957  Biso   1.000  N
  N222     1.0000 0.21754  0.83484  0.28462  Biso   1.000  N
  N223     1.0000 0.07195  0.90504  0.41195  Biso   1.000  N
  N224     1.0000 0.08375  0.89222  0.48167  Biso   1.000  N
  N225     1.0000 0.96120  0.89910  0.34730  Biso   1.000  N
  N226     1.0000 0.99920  0.91260  0.33220  Biso   1.000  N
  N227     1.0000 0.06197  0.93156  0.29043  Biso   1.000  N
  N228     1.0000 0.05022  0.93292  0.21538  Biso   1.000  N
  N229     1.0000 0.50691  0.59496  0.66691  Biso   1.000  N
  N230     1.0000 0.58945  0.60778  0.69153  Biso   1.000  N
  N231     1.0000 0.44820  0.60090  0.56210  Biso   1.000  N
  N232     1.0000 0.41960  0.58740  0.58660  Biso   1.000  N
  N233     1.0000 0.35887  0.56844  0.63041  Biso   1.000  N
  N234     1.0000 0.28246  0.56708  0.61730  Biso   1.000  N
  N235     1.0000 0.42805  0.84000  0.83309  Biso   1.000  N
  N236     1.0000 0.41625  0.89792  0.80847  Biso   1.000  N
  N237     1.0000 0.53880  0.88610  0.93790  Biso   1.000  N
  N238     1.0000 0.50080  0.83300  0.91340  Biso   1.000  N
  N239     1.0000 0.43803  0.72846  0.86959  Biso   1.000  N
  N240     1.0000 0.44978  0.66516  0.88270  Biso   1.000  N
  N241     1.0000 0.59496  0.16691  0.00691  Biso   1.000  N
  N242     1.0000 0.60778  0.19153  0.08945  Biso   1.000  N
  N243     1.0000 0.60090  0.06210  0.94820  Biso   1.000  N
  N244     1.0000 0.58740  0.08660  0.91960  Biso   1.000  N
  N245     1.0000 0.56844  0.13041  0.85887  Biso   1.000  N
  N246     1.0000 0.56708  0.11730  0.78246  Biso   1.000  N
  N247     1.0000 0.84000  0.33309  0.92805  Biso   1.000  N
  N248     1.0000 0.89792  0.30847  0.91625  Biso   1.000  N
  N249     1.0000 0.88610  0.43790  0.03880  Biso   1.000  N
  N250     1.0000 0.83300  0.41340  0.00080  Biso   1.000  N
  N251     1.0000 0.72846  0.36959  0.93803  Biso   1.000  N
  N252     1.0000 0.66516  0.38270  0.94978  Biso   1.000  N
  N253     1.0000 0.66000  0.58805  0.49309  Biso   1.000  N
  N254     1.0000 0.60208  0.51833  0.41055  Biso   1.000  N
  N255     1.0000 0.61390  0.65270  0.55180  Biso   1.000  N
  N256     1.0000 0.66700  0.66780  0.58040  Biso   1.000  N
  N257     1.0000 0.77154  0.70957  0.64113  Biso   1.000  N
  N258     1.0000 0.83484  0.78462  0.71754  Biso   1.000  N
  N259     1.0000 0.90504  0.91195  0.57195  Biso   1.000  N
  N260     1.0000 0.89222  0.98167  0.58375  Biso   1.000  N
  N261     1.0000 0.89910  0.84730  0.46120  Biso   1.000  N
  N262     1.0000 0.91260  0.83220  0.49920  Biso   1.000  N
  N263     1.0000 0.93156  0.79043  0.56197  Biso   1.000  N
  N264     1.0000 0.93292  0.71538  0.55022  Biso   1.000  N
  N265     1.0000 0.91195  0.07195  0.40504  Biso   1.000  N
  N266     1.0000 0.98167  0.08375  0.39222  Biso   1.000  N
  N267     1.0000 0.84730  0.96120  0.39910  Biso   1.000  N
  N268     1.0000 0.83220  0.99920  0.41260  Biso   1.000  N
  N269     1.0000 0.79043  0.06197  0.43156  Biso   1.000  N
  N270     1.0000 0.71538  0.05022  0.43292  Biso   1.000  N
  N271     1.0000 0.58805  0.99309  0.16000  Biso   1.000  N
  N272     1.0000 0.51833  0.91055  0.10208  Biso   1.000  N
  N273     1.0000 0.65270  0.05180  0.11390  Biso   1.000  N
  N274     1.0000 0.66780  0.08040  0.16700  Biso   1.000  N
  N275     1.0000 0.70957  0.14113  0.27154  Biso   1.000  N
  N276     1.0000 0.78462  0.21754  0.33484  Biso   1.000  N
  N277     1.0000 0.33309  0.42805  0.34000  Biso   1.000  N
  N278     1.0000 0.30847  0.41625  0.39792  Biso   1.000  N
  N279     1.0000 0.43790  0.53880  0.38610  Biso   1.000  N
  N280     1.0000 0.41340  0.50080  0.33300  Biso   1.000  N
  N281     1.0000 0.36959  0.43803  0.22846  Biso   1.000  N
  N282     1.0000 0.38270  0.44978  0.16516  Biso   1.000  N
  N283     1.0000 0.16691  0.50691  0.09496  Biso   1.000  N
  N284     1.0000 0.19153  0.58945  0.10778  Biso   1.000  N
  N285     1.0000 0.06210  0.44820  0.10090  Biso   1.000  N
  N286     1.0000 0.08660  0.41960  0.08740  Biso   1.000  N
  N287     1.0000 0.13041  0.35887  0.06844  Biso   1.000  N
  N288     1.0000 0.11730  0.28246  0.06708  Biso   1.000  N
