data_image0
_cell_length_a       29.3162
_cell_length_b       29.3162
_cell_length_c       29.3162
_cell_angle_alpha    109.471
_cell_angle_beta     109.471
_cell_angle_gamma    109.471

_symmetry_space_group_name_H-M    P 1
_symmetry_int_tables_number       1

loop_
  _symmetry_equiv_pos_as_xyz
  'x, y, z'

loop_
  _atom_site_label
  _atom_site_occupancy
  _atom_site_fract_x
  _atom_site_fract_y
  _atom_site_fract_z
  _atom_site_thermal_displace_type
  _atom_site_B_iso_or_equiv
  _atom_site_type_symbol
  Ni1      1.0000 0.56127  0.14088  0.71807  Biso   1.000  Ni
  Ni2      1.0000 0.92281  0.84320  0.78193  Biso   1.000  Ni
  Ni3      1.0000 0.57719  0.35912  0.92039  Biso   1.000  Ni
  Ni4      1.0000 0.93873  0.65680  0.57961  Biso   1.000  Ni
  Ni5      1.0000 0.42039  0.57719  0.85912  Biso   1.000  Ni
  Ni6      1.0000 0.07961  0.93873  0.15680  Biso   1.000  Ni
  Ni7      1.0000 0.21807  0.56127  0.64088  Biso   1.000  Ni
  Ni8      1.0000 0.28193  0.92281  0.34320  Biso   1.000  Ni
  Ni9      1.0000 0.84320  0.28193  0.42281  Biso   1.000  Ni
  Ni10     1.0000 0.14088  0.21807  0.06127  Biso   1.000  Ni
  Ni11     1.0000 0.65680  0.07961  0.43873  Biso   1.000  Ni
  Ni12     1.0000 0.35912  0.42039  0.07719  Biso   1.000  Ni
  Ni13     1.0000 0.35912  0.93873  0.78193  Biso   1.000  Ni
  Ni14     1.0000 0.65680  0.57719  0.71807  Biso   1.000  Ni
  Ni15     1.0000 0.14088  0.92281  0.57961  Biso   1.000  Ni
  Ni16     1.0000 0.84320  0.56127  0.92039  Biso   1.000  Ni
  Ni17     1.0000 0.92281  0.07961  0.64088  Biso   1.000  Ni
  Ni18     1.0000 0.56127  0.42039  0.34320  Biso   1.000  Ni
  Ni19     1.0000 0.93873  0.28193  0.85912  Biso   1.000  Ni
  Ni20     1.0000 0.57719  0.21807  0.15680  Biso   1.000  Ni
  Ni21     1.0000 0.21807  0.65680  0.07719  Biso   1.000  Ni
  Ni22     1.0000 0.28193  0.35912  0.43873  Biso   1.000  Ni
  Ni23     1.0000 0.42039  0.84320  0.06127  Biso   1.000  Ni
  Ni24     1.0000 0.07961  0.14088  0.42281  Biso   1.000  Ni
  Ni25     1.0000 0.43873  0.85912  0.28193  Biso   1.000  Ni
  Ni26     1.0000 0.07719  0.15680  0.21807  Biso   1.000  Ni
  Ni27     1.0000 0.42281  0.64088  0.07961  Biso   1.000  Ni
  Ni28     1.0000 0.06127  0.34320  0.42039  Biso   1.000  Ni
  Ni29     1.0000 0.57961  0.42281  0.14088  Biso   1.000  Ni
  Ni30     1.0000 0.92039  0.06127  0.84320  Biso   1.000  Ni
  Ni31     1.0000 0.78193  0.43873  0.35912  Biso   1.000  Ni
  Ni32     1.0000 0.71807  0.07719  0.65680  Biso   1.000  Ni
  Ni33     1.0000 0.15680  0.71807  0.57719  Biso   1.000  Ni
  Ni34     1.0000 0.85912  0.78193  0.93873  Biso   1.000  Ni
  Ni35     1.0000 0.34320  0.92039  0.56127  Biso   1.000  Ni
  Ni36     1.0000 0.64088  0.57961  0.92281  Biso   1.000  Ni
  Ni37     1.0000 0.64088  0.06127  0.21807  Biso   1.000  Ni
  Ni38     1.0000 0.34320  0.42281  0.28193  Biso   1.000  Ni
  Ni39     1.0000 0.85912  0.07719  0.42039  Biso   1.000  Ni
  Ni40     1.0000 0.15680  0.43873  0.07961  Biso   1.000  Ni
  Ni41     1.0000 0.07719  0.92039  0.35912  Biso   1.000  Ni
  Ni42     1.0000 0.43873  0.57961  0.65680  Biso   1.000  Ni
  Ni43     1.0000 0.06127  0.71807  0.14088  Biso   1.000  Ni
  Ni44     1.0000 0.42281  0.78193  0.84320  Biso   1.000  Ni
  Ni45     1.0000 0.78193  0.34320  0.92281  Biso   1.000  Ni
  Ni46     1.0000 0.71807  0.64088  0.56127  Biso   1.000  Ni
  Ni47     1.0000 0.57961  0.15680  0.93873  Biso   1.000  Ni
  Ni48     1.0000 0.92039  0.85912  0.57719  Biso   1.000  Ni
  H1       1.0000 0.66890  0.22460  0.84950  Biso   1.000  H
  H2       1.0000 0.44410  0.03040  0.67730  Biso   1.000  H
  H3       1.0000 0.39960  0.01400  0.52580  Biso   1.000  H
  H4       1.0000 0.73930  0.31440  0.79350  Biso   1.000  H
  H5       1.0000 0.46760  0.11120  0.55300  Biso   1.000  H
  H6       1.0000 0.63930  0.23420  0.66970  Biso   1.000  H
  H7       1.0000 0.87510  0.81940  0.65050  Biso   1.000  H
  H8       1.0000 0.85310  0.76680  0.82270  Biso   1.000  H
  H9       1.0000 0.98820  0.87380  0.97420  Biso   1.000  H
  H10      1.0000 0.02090  0.94580  0.70650  Biso   1.000  H
  H11      1.0000 0.05820  0.91460  0.94700  Biso   1.000  H
  H12      1.0000 0.06450  0.96960  0.83030  Biso   1.000  H
  H13      1.0000 0.62490  0.27540  0.94430  Biso   1.000  H
  H14      1.0000 0.64690  0.46960  0.91370  Biso   1.000  H
  H15      1.0000 0.51180  0.48600  0.88560  Biso   1.000  H
  H16      1.0000 0.47910  0.18560  0.92490  Biso   1.000  H
  H17      1.0000 0.44180  0.38880  0.85640  Biso   1.000  H
  H18      1.0000 0.43550  0.26580  0.90510  Biso   1.000  H
  H19      1.0000 0.83110  0.68060  0.55570  Biso   1.000  H
  H20      1.0000 0.05590  0.73320  0.58630  Biso   1.000  H
  H21      1.0000 0.10040  0.62620  0.61440  Biso   1.000  H
  H22      1.0000 0.76070  0.55420  0.57510  Biso   1.000  H
  H23      1.0000 0.03240  0.58540  0.64360  Biso   1.000  H
  H24      1.0000 0.86070  0.53040  0.59490  Biso   1.000  H
  H25      1.0000 0.44430  0.62490  0.77540  Biso   1.000  H
  H26      1.0000 0.41370  0.64690  0.96960  Biso   1.000  H
  H27      1.0000 0.38560  0.51180  0.98600  Biso   1.000  H
  H28      1.0000 0.42490  0.47910  0.68560  Biso   1.000  H
  H29      1.0000 0.35640  0.44180  0.88880  Biso   1.000  H
  H30      1.0000 0.40510  0.43550  0.76580  Biso   1.000  H
  H31      1.0000 0.05570  0.83110  0.18060  Biso   1.000  H
  H32      1.0000 0.08630  0.05590  0.23320  Biso   1.000  H
  H33      1.0000 0.11440  0.10040  0.12620  Biso   1.000  H
  H34      1.0000 0.07510  0.76070  0.05420  Biso   1.000  H
  H35      1.0000 0.14360  0.03240  0.08540  Biso   1.000  H
  H36      1.0000 0.09490  0.86070  0.03040  Biso   1.000  H
  H37      1.0000 0.34950  0.66890  0.72460  Biso   1.000  H
  H38      1.0000 0.17730  0.44410  0.53040  Biso   1.000  H
  H39      1.0000 0.02580  0.39960  0.51400  Biso   1.000  H
  H40      1.0000 0.29350  0.73930  0.81440  Biso   1.000  H
  H41      1.0000 0.05300  0.46760  0.61120  Biso   1.000  H
  H42      1.0000 0.16970  0.63930  0.73420  Biso   1.000  H
  H43      1.0000 0.15050  0.87510  0.31940  Biso   1.000  H
  H44      1.0000 0.32270  0.85310  0.26680  Biso   1.000  H
  H45      1.0000 0.47420  0.98820  0.37380  Biso   1.000  H
  H46      1.0000 0.20650  0.02090  0.44580  Biso   1.000  H
  H47      1.0000 0.44700  0.05820  0.41460  Biso   1.000  H
  H48      1.0000 0.33030  0.06450  0.46960  Biso   1.000  H
  H49      1.0000 0.81940  0.15050  0.37510  Biso   1.000  H
  H50      1.0000 0.76680  0.32270  0.35310  Biso   1.000  H
  H51      1.0000 0.87380  0.47420  0.48820  Biso   1.000  H
  H52      1.0000 0.94580  0.20650  0.52090  Biso   1.000  H
  H53      1.0000 0.91460  0.44700  0.55820  Biso   1.000  H
  H54      1.0000 0.96960  0.33030  0.56450  Biso   1.000  H
  H55      1.0000 0.22460  0.34950  0.16890  Biso   1.000  H
  H56      1.0000 0.03040  0.17730  0.94410  Biso   1.000  H
  H57      1.0000 0.01400  0.02580  0.89960  Biso   1.000  H
  H58      1.0000 0.31440  0.29350  0.23930  Biso   1.000  H
  H59      1.0000 0.11120  0.05300  0.96760  Biso   1.000  H
  H60      1.0000 0.23420  0.16970  0.13930  Biso   1.000  H
  H61      1.0000 0.68060  0.05570  0.33110  Biso   1.000  H
  H62      1.0000 0.73320  0.08630  0.55590  Biso   1.000  H
  H63      1.0000 0.62620  0.11440  0.60040  Biso   1.000  H
  H64      1.0000 0.55420  0.07510  0.26070  Biso   1.000  H
  H65      1.0000 0.58540  0.14360  0.53240  Biso   1.000  H
  H66      1.0000 0.53040  0.09490  0.36070  Biso   1.000  H
  H67      1.0000 0.27540  0.44430  0.12490  Biso   1.000  H
  H68      1.0000 0.46960  0.41370  0.14690  Biso   1.000  H
  H69      1.0000 0.48600  0.38560  0.01180  Biso   1.000  H
  H70      1.0000 0.18560  0.42490  0.97910  Biso   1.000  H
  H71      1.0000 0.38880  0.35640  0.94180  Biso   1.000  H
  H72      1.0000 0.26580  0.40510  0.93550  Biso   1.000  H
  H73      1.0000 0.27540  0.83110  0.65050  Biso   1.000  H
  H74      1.0000 0.46960  0.05590  0.82270  Biso   1.000  H
  H75      1.0000 0.48600  0.10040  0.97420  Biso   1.000  H
  H76      1.0000 0.18560  0.76070  0.70650  Biso   1.000  H
  H77      1.0000 0.38880  0.03240  0.94700  Biso   1.000  H
  H78      1.0000 0.26580  0.86070  0.83030  Biso   1.000  H
  H79      1.0000 0.68060  0.62490  0.84950  Biso   1.000  H
  H80      1.0000 0.73320  0.64690  0.67730  Biso   1.000  H
  H81      1.0000 0.62620  0.51180  0.52580  Biso   1.000  H
  H82      1.0000 0.55420  0.47910  0.79350  Biso   1.000  H
  H83      1.0000 0.58540  0.44180  0.55300  Biso   1.000  H
  H84      1.0000 0.53040  0.43550  0.66970  Biso   1.000  H
  H85      1.0000 0.22460  0.87510  0.55570  Biso   1.000  H
  H86      1.0000 0.03040  0.85310  0.58630  Biso   1.000  H
  H87      1.0000 0.01400  0.98820  0.61440  Biso   1.000  H
  H88      1.0000 0.31440  0.02090  0.57510  Biso   1.000  H
  H89      1.0000 0.11120  0.05820  0.64360  Biso   1.000  H
  H90      1.0000 0.23420  0.06450  0.59490  Biso   1.000  H
  H91      1.0000 0.81940  0.66890  0.94430  Biso   1.000  H
  H92      1.0000 0.76680  0.44410  0.91370  Biso   1.000  H
  H93      1.0000 0.87380  0.39960  0.88560  Biso   1.000  H
  H94      1.0000 0.94580  0.73930  0.92490  Biso   1.000  H
  H95      1.0000 0.91460  0.46760  0.85640  Biso   1.000  H
  H96      1.0000 0.96960  0.63930  0.90510  Biso   1.000  H
  H97      1.0000 0.87510  0.05570  0.72460  Biso   1.000  H
  H98      1.0000 0.85310  0.08630  0.53040  Biso   1.000  H
  H99      1.0000 0.98820  0.11440  0.51400  Biso   1.000  H
  H100     1.0000 0.02090  0.07510  0.81440  Biso   1.000  H
  H101     1.0000 0.05820  0.14360  0.61120  Biso   1.000  H
  H102     1.0000 0.06450  0.09490  0.73420  Biso   1.000  H
  H103     1.0000 0.66890  0.44430  0.31940  Biso   1.000  H
  H104     1.0000 0.44410  0.41370  0.26680  Biso   1.000  H
  H105     1.0000 0.39960  0.38560  0.37380  Biso   1.000  H
  H106     1.0000 0.73930  0.42490  0.44580  Biso   1.000  H
  H107     1.0000 0.46760  0.35640  0.41460  Biso   1.000  H
  H108     1.0000 0.63930  0.40510  0.46960  Biso   1.000  H
  H109     1.0000 0.83110  0.15050  0.77540  Biso   1.000  H
  H110     1.0000 0.05590  0.32270  0.96960  Biso   1.000  H
  H111     1.0000 0.10040  0.47420  0.98600  Biso   1.000  H
  H112     1.0000 0.76070  0.20650  0.68560  Biso   1.000  H
  H113     1.0000 0.03240  0.44700  0.88880  Biso   1.000  H
  H114     1.0000 0.86070  0.33030  0.76580  Biso   1.000  H
  H115     1.0000 0.62490  0.34950  0.18060  Biso   1.000  H
  H116     1.0000 0.64690  0.17730  0.23320  Biso   1.000  H
  H117     1.0000 0.51180  0.02580  0.12620  Biso   1.000  H
  H118     1.0000 0.47910  0.29350  0.05420  Biso   1.000  H
  H119     1.0000 0.44180  0.05300  0.08540  Biso   1.000  H
  H120     1.0000 0.43550  0.16970  0.03040  Biso   1.000  H
  H121     1.0000 0.34950  0.68060  0.12490  Biso   1.000  H
  H122     1.0000 0.17730  0.73320  0.14690  Biso   1.000  H
  H123     1.0000 0.02580  0.62620  0.01180  Biso   1.000  H
  H124     1.0000 0.29350  0.55420  0.97910  Biso   1.000  H
  H125     1.0000 0.05300  0.58540  0.94180  Biso   1.000  H
  H126     1.0000 0.16970  0.53040  0.93550  Biso   1.000  H
  H127     1.0000 0.15050  0.27540  0.33110  Biso   1.000  H
  H128     1.0000 0.32270  0.46960  0.55590  Biso   1.000  H
  H129     1.0000 0.47420  0.48600  0.60040  Biso   1.000  H
  H130     1.0000 0.20650  0.18560  0.26070  Biso   1.000  H
  H131     1.0000 0.44700  0.38880  0.53240  Biso   1.000  H
  H132     1.0000 0.33030  0.26580  0.36070  Biso   1.000  H
  H133     1.0000 0.44430  0.81940  0.16890  Biso   1.000  H
  H134     1.0000 0.41370  0.76680  0.94410  Biso   1.000  H
  H135     1.0000 0.38560  0.87380  0.89960  Biso   1.000  H
  H136     1.0000 0.42490  0.94580  0.23930  Biso   1.000  H
  H137     1.0000 0.35640  0.91460  0.96760  Biso   1.000  H
  H138     1.0000 0.40510  0.96960  0.13930  Biso   1.000  H
  H139     1.0000 0.05570  0.22460  0.37510  Biso   1.000  H
  H140     1.0000 0.08630  0.03040  0.35310  Biso   1.000  H
  H141     1.0000 0.11440  0.01400  0.48820  Biso   1.000  H
  H142     1.0000 0.07510  0.31440  0.52090  Biso   1.000  H
  H143     1.0000 0.14360  0.11120  0.55820  Biso   1.000  H
  H144     1.0000 0.09490  0.23420  0.56450  Biso   1.000  H
  H145     1.0000 0.33110  0.77540  0.15050  Biso   1.000  H
  H146     1.0000 0.55590  0.96960  0.32270  Biso   1.000  H
  H147     1.0000 0.60040  0.98600  0.47420  Biso   1.000  H
  H148     1.0000 0.26070  0.68560  0.20650  Biso   1.000  H
  H149     1.0000 0.53240  0.88880  0.44700  Biso   1.000  H
  H150     1.0000 0.36070  0.76580  0.33030  Biso   1.000  H
  H151     1.0000 0.12490  0.18060  0.34950  Biso   1.000  H
  H152     1.0000 0.14690  0.23320  0.17730  Biso   1.000  H
  H153     1.0000 0.01180  0.12620  0.02580  Biso   1.000  H
  H154     1.0000 0.97910  0.05420  0.29350  Biso   1.000  H
  H155     1.0000 0.94180  0.08540  0.05300  Biso   1.000  H
  H156     1.0000 0.93550  0.03040  0.16970  Biso   1.000  H
  H157     1.0000 0.37510  0.72460  0.05570  Biso   1.000  H
  H158     1.0000 0.35310  0.53040  0.08630  Biso   1.000  H
  H159     1.0000 0.48820  0.51400  0.11440  Biso   1.000  H
  H160     1.0000 0.52090  0.81440  0.07510  Biso   1.000  H
  H161     1.0000 0.55820  0.61120  0.14360  Biso   1.000  H
  H162     1.0000 0.56450  0.73420  0.09490  Biso   1.000  H
  H163     1.0000 0.16890  0.31940  0.44430  Biso   1.000  H
  H164     1.0000 0.94410  0.26680  0.41370  Biso   1.000  H
  H165     1.0000 0.89960  0.37380  0.38560  Biso   1.000  H
  H166     1.0000 0.23930  0.44580  0.42490  Biso   1.000  H
  H167     1.0000 0.96760  0.41460  0.35640  Biso   1.000  H
  H168     1.0000 0.13930  0.46960  0.40510  Biso   1.000  H
  H169     1.0000 0.55570  0.37510  0.22460  Biso   1.000  H
  H170     1.0000 0.58630  0.35310  0.03040  Biso   1.000  H
  H171     1.0000 0.61440  0.48820  0.01400  Biso   1.000  H
  H172     1.0000 0.57510  0.52090  0.31440  Biso   1.000  H
  H173     1.0000 0.64360  0.55820  0.11120  Biso   1.000  H
  H174     1.0000 0.59490  0.56450  0.23420  Biso   1.000  H
  H175     1.0000 0.94430  0.16890  0.81940  Biso   1.000  H
  H176     1.0000 0.91370  0.94410  0.76680  Biso   1.000  H
  H177     1.0000 0.88560  0.89960  0.87380  Biso   1.000  H
  H178     1.0000 0.92490  0.23930  0.94580  Biso   1.000  H
  H179     1.0000 0.85640  0.96760  0.91460  Biso   1.000  H
  H180     1.0000 0.90510  0.13930  0.96960  Biso   1.000  H
  H181     1.0000 0.65050  0.33110  0.27540  Biso   1.000  H
  H182     1.0000 0.82270  0.55590  0.46960  Biso   1.000  H
  H183     1.0000 0.97420  0.60040  0.48600  Biso   1.000  H
  H184     1.0000 0.70650  0.26070  0.18560  Biso   1.000  H
  H185     1.0000 0.94700  0.53240  0.38880  Biso   1.000  H
  H186     1.0000 0.83030  0.36070  0.26580  Biso   1.000  H
  H187     1.0000 0.84950  0.12490  0.68060  Biso   1.000  H
  H188     1.0000 0.67730  0.14690  0.73320  Biso   1.000  H
  H189     1.0000 0.52580  0.01180  0.62620  Biso   1.000  H
  H190     1.0000 0.79350  0.97910  0.55420  Biso   1.000  H
  H191     1.0000 0.55300  0.94180  0.58540  Biso   1.000  H
  H192     1.0000 0.66970  0.93550  0.53040  Biso   1.000  H
  H193     1.0000 0.18060  0.84950  0.62490  Biso   1.000  H
  H194     1.0000 0.23320  0.67730  0.64690  Biso   1.000  H
  H195     1.0000 0.12620  0.52580  0.51180  Biso   1.000  H
  H196     1.0000 0.05420  0.79350  0.47910  Biso   1.000  H
  H197     1.0000 0.08540  0.55300  0.44180  Biso   1.000  H
  H198     1.0000 0.03040  0.66970  0.43550  Biso   1.000  H
  H199     1.0000 0.77540  0.65050  0.83110  Biso   1.000  H
  H200     1.0000 0.96960  0.82270  0.05590  Biso   1.000  H
  H201     1.0000 0.98600  0.97420  0.10040  Biso   1.000  H
  H202     1.0000 0.68560  0.70650  0.76070  Biso   1.000  H
  H203     1.0000 0.88880  0.94700  0.03240  Biso   1.000  H
  H204     1.0000 0.76580  0.83030  0.86070  Biso   1.000  H
  H205     1.0000 0.31940  0.94430  0.66890  Biso   1.000  H
  H206     1.0000 0.26680  0.91370  0.44410  Biso   1.000  H
  H207     1.0000 0.37380  0.88560  0.39960  Biso   1.000  H
  H208     1.0000 0.44580  0.92490  0.73930  Biso   1.000  H
  H209     1.0000 0.41460  0.85640  0.46760  Biso   1.000  H
  H210     1.0000 0.46960  0.90510  0.63930  Biso   1.000  H
  H211     1.0000 0.72460  0.55570  0.87510  Biso   1.000  H
  H212     1.0000 0.53040  0.58630  0.85310  Biso   1.000  H
  H213     1.0000 0.51400  0.61440  0.98820  Biso   1.000  H
  H214     1.0000 0.81440  0.57510  0.02090  Biso   1.000  H
  H215     1.0000 0.61120  0.64360  0.05820  Biso   1.000  H
  H216     1.0000 0.73420  0.59490  0.06450  Biso   1.000  H
  H217     1.0000 0.72460  0.16890  0.34950  Biso   1.000  H
  H218     1.0000 0.53040  0.94410  0.17730  Biso   1.000  H
  H219     1.0000 0.51400  0.89960  0.02580  Biso   1.000  H
  H220     1.0000 0.81440  0.23930  0.29350  Biso   1.000  H
  H221     1.0000 0.61120  0.96760  0.05300  Biso   1.000  H
  H222     1.0000 0.73420  0.13930  0.16970  Biso   1.000  H
  H223     1.0000 0.31940  0.37510  0.15050  Biso   1.000  H
  H224     1.0000 0.26680  0.35310  0.32270  Biso   1.000  H
  H225     1.0000 0.37380  0.48820  0.47420  Biso   1.000  H
  H226     1.0000 0.44580  0.52090  0.20650  Biso   1.000  H
  H227     1.0000 0.41460  0.55820  0.44700  Biso   1.000  H
  H228     1.0000 0.46960  0.56450  0.33030  Biso   1.000  H
  H229     1.0000 0.77540  0.12490  0.44430  Biso   1.000  H
  H230     1.0000 0.96960  0.14690  0.41370  Biso   1.000  H
  H231     1.0000 0.98600  0.01180  0.38560  Biso   1.000  H
  H232     1.0000 0.68560  0.97910  0.42490  Biso   1.000  H
  H233     1.0000 0.88880  0.94180  0.35640  Biso   1.000  H
  H234     1.0000 0.76580  0.93550  0.40510  Biso   1.000  H
  H235     1.0000 0.18060  0.33110  0.05570  Biso   1.000  H
  H236     1.0000 0.23320  0.55590  0.08630  Biso   1.000  H
  H237     1.0000 0.12620  0.60040  0.11440  Biso   1.000  H
  H238     1.0000 0.05420  0.26070  0.07510  Biso   1.000  H
  H239     1.0000 0.08540  0.53240  0.14360  Biso   1.000  H
  H240     1.0000 0.03040  0.36070  0.09490  Biso   1.000  H
  H241     1.0000 0.12490  0.94430  0.27540  Biso   1.000  H
  H242     1.0000 0.14690  0.91370  0.46960  Biso   1.000  H
  H243     1.0000 0.01180  0.88560  0.48600  Biso   1.000  H
  H244     1.0000 0.97910  0.92490  0.18560  Biso   1.000  H
  H245     1.0000 0.94180  0.85640  0.38880  Biso   1.000  H
  H246     1.0000 0.93550  0.90510  0.26580  Biso   1.000  H
  H247     1.0000 0.33110  0.55570  0.68060  Biso   1.000  H
  H248     1.0000 0.55590  0.58630  0.73320  Biso   1.000  H
  H249     1.0000 0.60040  0.61440  0.62620  Biso   1.000  H
  H250     1.0000 0.26070  0.57510  0.55420  Biso   1.000  H
  H251     1.0000 0.53240  0.64360  0.58540  Biso   1.000  H
  H252     1.0000 0.36070  0.59490  0.53040  Biso   1.000  H
  H253     1.0000 0.16890  0.84950  0.22460  Biso   1.000  H
  H254     1.0000 0.94410  0.67730  0.03040  Biso   1.000  H
  H255     1.0000 0.89960  0.52580  0.01400  Biso   1.000  H
  H256     1.0000 0.23930  0.79350  0.31440  Biso   1.000  H
  H257     1.0000 0.96760  0.55300  0.11120  Biso   1.000  H
  H258     1.0000 0.13930  0.66970  0.23420  Biso   1.000  H
  H259     1.0000 0.37510  0.65050  0.81940  Biso   1.000  H
  H260     1.0000 0.35310  0.82270  0.76680  Biso   1.000  H
  H261     1.0000 0.48820  0.97420  0.87380  Biso   1.000  H
  H262     1.0000 0.52090  0.70650  0.94580  Biso   1.000  H
  H263     1.0000 0.55820  0.94700  0.91460  Biso   1.000  H
  H264     1.0000 0.56450  0.83030  0.96960  Biso   1.000  H
  H265     1.0000 0.65050  0.31940  0.87510  Biso   1.000  H
  H266     1.0000 0.82270  0.26680  0.85310  Biso   1.000  H
  H267     1.0000 0.97420  0.37380  0.98820  Biso   1.000  H
  H268     1.0000 0.70650  0.44580  0.02090  Biso   1.000  H
  H269     1.0000 0.94700  0.41460  0.05820  Biso   1.000  H
  H270     1.0000 0.83030  0.46960  0.06450  Biso   1.000  H
  H271     1.0000 0.84950  0.72460  0.66890  Biso   1.000  H
  H272     1.0000 0.67730  0.53040  0.44410  Biso   1.000  H
  H273     1.0000 0.52580  0.51400  0.39960  Biso   1.000  H
  H274     1.0000 0.79350  0.81440  0.73930  Biso   1.000  H
  H275     1.0000 0.55300  0.61120  0.46760  Biso   1.000  H
  H276     1.0000 0.66970  0.73420  0.63930  Biso   1.000  H
  H277     1.0000 0.55570  0.18060  0.83110  Biso   1.000  H
  H278     1.0000 0.58630  0.23320  0.05590  Biso   1.000  H
  H279     1.0000 0.61440  0.12620  0.10040  Biso   1.000  H
  H280     1.0000 0.57510  0.05420  0.76070  Biso   1.000  H
  H281     1.0000 0.64360  0.08540  0.03240  Biso   1.000  H
  H282     1.0000 0.59490  0.03040  0.86070  Biso   1.000  H
  H283     1.0000 0.94430  0.77540  0.62490  Biso   1.000  H
  H284     1.0000 0.91370  0.96960  0.64690  Biso   1.000  H
  H285     1.0000 0.88560  0.98600  0.51180  Biso   1.000  H
  H286     1.0000 0.92490  0.68560  0.47910  Biso   1.000  H
  H287     1.0000 0.85640  0.88880  0.44180  Biso   1.000  H
  H288     1.0000 0.90510  0.76580  0.43550  Biso   1.000  H
  C1       1.0000 0.67490  0.23730  0.82500  Biso   1.000  C
  C2       1.0000 0.44410  0.03740  0.64790  Biso   1.000  C
  C3       1.0000 0.66000  0.24200  0.74920  Biso   1.000  C
  C4       1.0000 0.41880  0.02800  0.56500  Biso   1.000  C
  C5       1.0000 0.71350  0.28620  0.79550  Biso   1.000  C
  C6       1.0000 0.46820  0.07950  0.60370  Biso   1.000  C
  C7       1.0000 0.49200  0.11730  0.58810  Biso   1.000  C
  C8       1.0000 0.62800  0.22200  0.69200  Biso   1.000  C
  C9       1.0000 0.91230  0.84990  0.67500  Biso   1.000  C
  C10      1.0000 0.88950  0.79620  0.85210  Biso   1.000  C
  C11      1.0000 0.99280  0.91080  0.75080  Biso   1.000  C
  C12      1.0000 0.96300  0.85380  0.93500  Biso   1.000  C
  C13      1.0000 0.99070  0.91800  0.70450  Biso   1.000  C
  C14      1.0000 0.97580  0.86450  0.89630  Biso   1.000  C
  C15      1.0000 0.02920  0.90390  0.91190  Biso   1.000  C
  C16      1.0000 0.03000  0.93600  0.80800  Biso   1.000  C
  C17      1.0000 0.58770  0.26270  0.93760  Biso   1.000  C
  C18      1.0000 0.61050  0.46260  0.90670  Biso   1.000  C
  C19      1.0000 0.50720  0.25800  0.91800  Biso   1.000  C
  C20      1.0000 0.53700  0.47200  0.89080  Biso   1.000  C
  C21      1.0000 0.50930  0.21380  0.92730  Biso   1.000  C
  C22      1.0000 0.52420  0.42050  0.88870  Biso   1.000  C
  C23      1.0000 0.47080  0.38270  0.87470  Biso   1.000  C
  C24      1.0000 0.47000  0.27800  0.90600  Biso   1.000  C
  C25      1.0000 0.82510  0.65010  0.56240  Biso   1.000  C
  C26      1.0000 0.05590  0.70380  0.59330  Biso   1.000  C
  C27      1.0000 0.84000  0.58920  0.58200  Biso   1.000  C
  C28      1.0000 0.08120  0.64620  0.60920  Biso   1.000  C
  C29      1.0000 0.78650  0.58200  0.57270  Biso   1.000  C
  C30      1.0000 0.03180  0.63550  0.61130  Biso   1.000  C
  C31      1.0000 0.00800  0.59610  0.62530  Biso   1.000  C
  C32      1.0000 0.87200  0.56400  0.59400  Biso   1.000  C
  C33      1.0000 0.43760  0.58770  0.76270  Biso   1.000  C
  C34      1.0000 0.40670  0.61050  0.96260  Biso   1.000  C
  C35      1.0000 0.41800  0.50720  0.75800  Biso   1.000  C
  C36      1.0000 0.39080  0.53700  0.97200  Biso   1.000  C
  C37      1.0000 0.42730  0.50930  0.71380  Biso   1.000  C
  C38      1.0000 0.38870  0.52420  0.92050  Biso   1.000  C
  C39      1.0000 0.37470  0.47080  0.88270  Biso   1.000  C
  C40      1.0000 0.40600  0.47000  0.77800  Biso   1.000  C
  C41      1.0000 0.06240  0.82510  0.15010  Biso   1.000  C
  C42      1.0000 0.09330  0.05590  0.20380  Biso   1.000  C
  C43      1.0000 0.08200  0.84000  0.08920  Biso   1.000  C
  C44      1.0000 0.10920  0.08120  0.14620  Biso   1.000  C
  C45      1.0000 0.07270  0.78650  0.08200  Biso   1.000  C
  C46      1.0000 0.11130  0.03180  0.13550  Biso   1.000  C
  C47      1.0000 0.12530  0.00800  0.09610  Biso   1.000  C
  C48      1.0000 0.09400  0.87200  0.06400  Biso   1.000  C
  C49      1.0000 0.32500  0.67490  0.73730  Biso   1.000  C
  C50      1.0000 0.14790  0.44410  0.53740  Biso   1.000  C
  C51      1.0000 0.24920  0.66000  0.74200  Biso   1.000  C
  C52      1.0000 0.06500  0.41880  0.52800  Biso   1.000  C
  C53      1.0000 0.29550  0.71350  0.78620  Biso   1.000  C
  C54      1.0000 0.10370  0.46820  0.57950  Biso   1.000  C
  C55      1.0000 0.08810  0.49200  0.61730  Biso   1.000  C
  C56      1.0000 0.19200  0.62800  0.72200  Biso   1.000  C
  C57      1.0000 0.17500  0.91230  0.34990  Biso   1.000  C
  C58      1.0000 0.35210  0.88950  0.29620  Biso   1.000  C
  C59      1.0000 0.25080  0.99280  0.41080  Biso   1.000  C
  C60      1.0000 0.43500  0.96300  0.35380  Biso   1.000  C
  C61      1.0000 0.20450  0.99070  0.41800  Biso   1.000  C
  C62      1.0000 0.39630  0.97580  0.36450  Biso   1.000  C
  C63      1.0000 0.41190  0.02920  0.40390  Biso   1.000  C
  C64      1.0000 0.30800  0.03000  0.43600  Biso   1.000  C
  C65      1.0000 0.84990  0.17500  0.41230  Biso   1.000  C
  C66      1.0000 0.79620  0.35210  0.38950  Biso   1.000  C
  C67      1.0000 0.91080  0.25080  0.49280  Biso   1.000  C
  C68      1.0000 0.85380  0.43500  0.46300  Biso   1.000  C
  C69      1.0000 0.91800  0.20450  0.49070  Biso   1.000  C
  C70      1.0000 0.86450  0.39630  0.47580  Biso   1.000  C
  C71      1.0000 0.90390  0.41190  0.52920  Biso   1.000  C
  C72      1.0000 0.93600  0.30800  0.53000  Biso   1.000  C
  C73      1.0000 0.23730  0.32500  0.17490  Biso   1.000  C
  C74      1.0000 0.03740  0.14790  0.94410  Biso   1.000  C
  C75      1.0000 0.24200  0.24920  0.16000  Biso   1.000  C
  C76      1.0000 0.02800  0.06500  0.91880  Biso   1.000  C
  C77      1.0000 0.28620  0.29550  0.21350  Biso   1.000  C
  C78      1.0000 0.07950  0.10370  0.96820  Biso   1.000  C
  C79      1.0000 0.11730  0.08810  0.99200  Biso   1.000  C
  C80      1.0000 0.22200  0.19200  0.12800  Biso   1.000  C
  C81      1.0000 0.65010  0.06240  0.32510  Biso   1.000  C
  C82      1.0000 0.70380  0.09330  0.55590  Biso   1.000  C
  C83      1.0000 0.58920  0.08200  0.34000  Biso   1.000  C
  C84      1.0000 0.64620  0.10920  0.58120  Biso   1.000  C
  C85      1.0000 0.58200  0.07270  0.28650  Biso   1.000  C
  C86      1.0000 0.63550  0.11130  0.53180  Biso   1.000  C
  C87      1.0000 0.59610  0.12530  0.50800  Biso   1.000  C
  C88      1.0000 0.56400  0.09400  0.37200  Biso   1.000  C
  C89      1.0000 0.26270  0.43760  0.08770  Biso   1.000  C
  C90      1.0000 0.46260  0.40670  0.11050  Biso   1.000  C
  C91      1.0000 0.25800  0.41800  0.00720  Biso   1.000  C
  C92      1.0000 0.47200  0.39080  0.03700  Biso   1.000  C
  C93      1.0000 0.21380  0.42730  0.00930  Biso   1.000  C
  C94      1.0000 0.42050  0.38870  0.02420  Biso   1.000  C
  C95      1.0000 0.38270  0.37470  0.97080  Biso   1.000  C
  C96      1.0000 0.27800  0.40600  0.97000  Biso   1.000  C
  C97      1.0000 0.26270  0.82510  0.67500  Biso   1.000  C
  C98      1.0000 0.46260  0.05590  0.85210  Biso   1.000  C
  C99      1.0000 0.25800  0.84000  0.75080  Biso   1.000  C
  C100     1.0000 0.47200  0.08120  0.93500  Biso   1.000  C
  C101     1.0000 0.21380  0.78650  0.70450  Biso   1.000  C
  C102     1.0000 0.42050  0.03180  0.89630  Biso   1.000  C
  C103     1.0000 0.38270  0.00800  0.91190  Biso   1.000  C
  C104     1.0000 0.27800  0.87200  0.80800  Biso   1.000  C
  C105     1.0000 0.65010  0.58770  0.82500  Biso   1.000  C
  C106     1.0000 0.70380  0.61050  0.64790  Biso   1.000  C
  C107     1.0000 0.58920  0.50720  0.74920  Biso   1.000  C
  C108     1.0000 0.64620  0.53700  0.56500  Biso   1.000  C
  C109     1.0000 0.58200  0.50930  0.79550  Biso   1.000  C
  C110     1.0000 0.63550  0.52420  0.60370  Biso   1.000  C
  C111     1.0000 0.59610  0.47080  0.58810  Biso   1.000  C
  C112     1.0000 0.56400  0.47000  0.69200  Biso   1.000  C
  C113     1.0000 0.23730  0.91230  0.56240  Biso   1.000  C
  C114     1.0000 0.03740  0.88950  0.59330  Biso   1.000  C
  C115     1.0000 0.24200  0.99280  0.58200  Biso   1.000  C
  C116     1.0000 0.02800  0.96300  0.60920  Biso   1.000  C
  C117     1.0000 0.28620  0.99070  0.57270  Biso   1.000  C
  C118     1.0000 0.07950  0.97580  0.61130  Biso   1.000  C
  C119     1.0000 0.11730  0.02920  0.62530  Biso   1.000  C
  C120     1.0000 0.22200  0.03000  0.59400  Biso   1.000  C
  C121     1.0000 0.84990  0.67490  0.93760  Biso   1.000  C
  C122     1.0000 0.79620  0.44410  0.90670  Biso   1.000  C
  C123     1.0000 0.91080  0.66000  0.91800  Biso   1.000  C
  C124     1.0000 0.85380  0.41880  0.89080  Biso   1.000  C
  C125     1.0000 0.91800  0.71350  0.92730  Biso   1.000  C
  C126     1.0000 0.86450  0.46820  0.88870  Biso   1.000  C
  C127     1.0000 0.90390  0.49200  0.87470  Biso   1.000  C
  C128     1.0000 0.93600  0.62800  0.90600  Biso   1.000  C
  C129     1.0000 0.91230  0.06240  0.73730  Biso   1.000  C
  C130     1.0000 0.88950  0.09330  0.53740  Biso   1.000  C
  C131     1.0000 0.99280  0.08200  0.74200  Biso   1.000  C
  C132     1.0000 0.96300  0.10920  0.52800  Biso   1.000  C
  C133     1.0000 0.99070  0.07270  0.78620  Biso   1.000  C
  C134     1.0000 0.97580  0.11130  0.57950  Biso   1.000  C
  C135     1.0000 0.02920  0.12530  0.61730  Biso   1.000  C
  C136     1.0000 0.03000  0.09400  0.72200  Biso   1.000  C
  C137     1.0000 0.67490  0.43760  0.34990  Biso   1.000  C
  C138     1.0000 0.44410  0.40670  0.29620  Biso   1.000  C
  C139     1.0000 0.66000  0.41800  0.41080  Biso   1.000  C
  C140     1.0000 0.41880  0.39080  0.35380  Biso   1.000  C
  C141     1.0000 0.71350  0.42730  0.41800  Biso   1.000  C
  C142     1.0000 0.46820  0.38870  0.36450  Biso   1.000  C
  C143     1.0000 0.49200  0.37470  0.40390  Biso   1.000  C
  C144     1.0000 0.62800  0.40600  0.43600  Biso   1.000  C
  C145     1.0000 0.82510  0.17500  0.76270  Biso   1.000  C
  C146     1.0000 0.05590  0.35210  0.96260  Biso   1.000  C
  C147     1.0000 0.84000  0.25080  0.75800  Biso   1.000  C
  C148     1.0000 0.08120  0.43500  0.97200  Biso   1.000  C
  C149     1.0000 0.78650  0.20450  0.71380  Biso   1.000  C
  C150     1.0000 0.03180  0.39630  0.92050  Biso   1.000  C
  C151     1.0000 0.00800  0.41190  0.88270  Biso   1.000  C
  C152     1.0000 0.87200  0.30800  0.77800  Biso   1.000  C
  C153     1.0000 0.58770  0.32500  0.15010  Biso   1.000  C
  C154     1.0000 0.61050  0.14790  0.20380  Biso   1.000  C
  C155     1.0000 0.50720  0.24920  0.08920  Biso   1.000  C
  C156     1.0000 0.53700  0.06500  0.14620  Biso   1.000  C
  C157     1.0000 0.50930  0.29550  0.08200  Biso   1.000  C
  C158     1.0000 0.52420  0.10370  0.13550  Biso   1.000  C
  C159     1.0000 0.47080  0.08810  0.09610  Biso   1.000  C
  C160     1.0000 0.47000  0.19200  0.06400  Biso   1.000  C
  C161     1.0000 0.32500  0.65010  0.08770  Biso   1.000  C
  C162     1.0000 0.14790  0.70380  0.11050  Biso   1.000  C
  C163     1.0000 0.24920  0.58920  0.00720  Biso   1.000  C
  C164     1.0000 0.06500  0.64620  0.03700  Biso   1.000  C
  C165     1.0000 0.29550  0.58200  0.00930  Biso   1.000  C
  C166     1.0000 0.10370  0.63550  0.02420  Biso   1.000  C
  C167     1.0000 0.08810  0.59610  0.97080  Biso   1.000  C
  C168     1.0000 0.19200  0.56400  0.97000  Biso   1.000  C
  C169     1.0000 0.17500  0.26270  0.32510  Biso   1.000  C
  C170     1.0000 0.35210  0.46260  0.55590  Biso   1.000  C
  C171     1.0000 0.25080  0.25800  0.34000  Biso   1.000  C
  C172     1.0000 0.43500  0.47200  0.58120  Biso   1.000  C
  C173     1.0000 0.20450  0.21380  0.28650  Biso   1.000  C
  C174     1.0000 0.39630  0.42050  0.53180  Biso   1.000  C
  C175     1.0000 0.41190  0.38270  0.50800  Biso   1.000  C
  C176     1.0000 0.30800  0.27800  0.37200  Biso   1.000  C
  C177     1.0000 0.43760  0.84990  0.17490  Biso   1.000  C
  C178     1.0000 0.40670  0.79620  0.94410  Biso   1.000  C
  C179     1.0000 0.41800  0.91080  0.16000  Biso   1.000  C
  C180     1.0000 0.39080  0.85380  0.91880  Biso   1.000  C
  C181     1.0000 0.42730  0.91800  0.21350  Biso   1.000  C
  C182     1.0000 0.38870  0.86450  0.96820  Biso   1.000  C
  C183     1.0000 0.37470  0.90390  0.99200  Biso   1.000  C
  C184     1.0000 0.40600  0.93600  0.12800  Biso   1.000  C
  C185     1.0000 0.06240  0.23730  0.41230  Biso   1.000  C
  C186     1.0000 0.09330  0.03740  0.38950  Biso   1.000  C
  C187     1.0000 0.08200  0.24200  0.49280  Biso   1.000  C
  C188     1.0000 0.10920  0.02800  0.46300  Biso   1.000  C
  C189     1.0000 0.07270  0.28620  0.49070  Biso   1.000  C
  C190     1.0000 0.11130  0.07950  0.47580  Biso   1.000  C
  C191     1.0000 0.12530  0.11730  0.52920  Biso   1.000  C
  C192     1.0000 0.09400  0.22200  0.53000  Biso   1.000  C
  C193     1.0000 0.32510  0.76270  0.17500  Biso   1.000  C
  C194     1.0000 0.55590  0.96260  0.35210  Biso   1.000  C
  C195     1.0000 0.34000  0.75800  0.25080  Biso   1.000  C
  C196     1.0000 0.58120  0.97200  0.43500  Biso   1.000  C
  C197     1.0000 0.28650  0.71380  0.20450  Biso   1.000  C
  C198     1.0000 0.53180  0.92050  0.39630  Biso   1.000  C
  C199     1.0000 0.50800  0.88270  0.41190  Biso   1.000  C
  C200     1.0000 0.37200  0.77800  0.30800  Biso   1.000  C
  C201     1.0000 0.08770  0.15010  0.32500  Biso   1.000  C
  C202     1.0000 0.11050  0.20380  0.14790  Biso   1.000  C
  C203     1.0000 0.00720  0.08920  0.24920  Biso   1.000  C
  C204     1.0000 0.03700  0.14620  0.06500  Biso   1.000  C
  C205     1.0000 0.00930  0.08200  0.29550  Biso   1.000  C
  C206     1.0000 0.02420  0.13550  0.10370  Biso   1.000  C
  C207     1.0000 0.97080  0.09610  0.08810  Biso   1.000  C
  C208     1.0000 0.97000  0.06400  0.19200  Biso   1.000  C
  C209     1.0000 0.41230  0.73730  0.06240  Biso   1.000  C
  C210     1.0000 0.38950  0.53740  0.09330  Biso   1.000  C
  C211     1.0000 0.49280  0.74200  0.08200  Biso   1.000  C
  C212     1.0000 0.46300  0.52800  0.10920  Biso   1.000  C
  C213     1.0000 0.49070  0.78620  0.07270  Biso   1.000  C
  C214     1.0000 0.47580  0.57950  0.11130  Biso   1.000  C
  C215     1.0000 0.52920  0.61730  0.12530  Biso   1.000  C
  C216     1.0000 0.53000  0.72200  0.09400  Biso   1.000  C
  C217     1.0000 0.17490  0.34990  0.43760  Biso   1.000  C
  C218     1.0000 0.94410  0.29620  0.40670  Biso   1.000  C
  C219     1.0000 0.16000  0.41080  0.41800  Biso   1.000  C
  C220     1.0000 0.91880  0.35380  0.39080  Biso   1.000  C
  C221     1.0000 0.21350  0.41800  0.42730  Biso   1.000  C
  C222     1.0000 0.96820  0.36450  0.38870  Biso   1.000  C
  C223     1.0000 0.99200  0.40390  0.37470  Biso   1.000  C
  C224     1.0000 0.12800  0.43600  0.40600  Biso   1.000  C
  C225     1.0000 0.56240  0.41230  0.23730  Biso   1.000  C
  C226     1.0000 0.59330  0.38950  0.03740  Biso   1.000  C
  C227     1.0000 0.58200  0.49280  0.24200  Biso   1.000  C
  C228     1.0000 0.60920  0.46300  0.02800  Biso   1.000  C
  C229     1.0000 0.57270  0.49070  0.28620  Biso   1.000  C
  C230     1.0000 0.61130  0.47580  0.07950  Biso   1.000  C
  C231     1.0000 0.62530  0.52920  0.11730  Biso   1.000  C
  C232     1.0000 0.59400  0.53000  0.22200  Biso   1.000  C
  C233     1.0000 0.93760  0.17490  0.84990  Biso   1.000  C
  C234     1.0000 0.90670  0.94410  0.79620  Biso   1.000  C
  C235     1.0000 0.91800  0.16000  0.91080  Biso   1.000  C
  C236     1.0000 0.89080  0.91880  0.85380  Biso   1.000  C
  C237     1.0000 0.92730  0.21350  0.91800  Biso   1.000  C
  C238     1.0000 0.88870  0.96820  0.86450  Biso   1.000  C
  C239     1.0000 0.87470  0.99200  0.90390  Biso   1.000  C
  C240     1.0000 0.90600  0.12800  0.93600  Biso   1.000  C
  C241     1.0000 0.67500  0.32510  0.26270  Biso   1.000  C
  C242     1.0000 0.85210  0.55590  0.46260  Biso   1.000  C
  C243     1.0000 0.75080  0.34000  0.25800  Biso   1.000  C
  C244     1.0000 0.93500  0.58120  0.47200  Biso   1.000  C
  C245     1.0000 0.70450  0.28650  0.21380  Biso   1.000  C
  C246     1.0000 0.89630  0.53180  0.42050  Biso   1.000  C
  C247     1.0000 0.91190  0.50800  0.38270  Biso   1.000  C
  C248     1.0000 0.80800  0.37200  0.27800  Biso   1.000  C
  C249     1.0000 0.82500  0.08770  0.65010  Biso   1.000  C
  C250     1.0000 0.64790  0.11050  0.70380  Biso   1.000  C
  C251     1.0000 0.74920  0.00720  0.58920  Biso   1.000  C
  C252     1.0000 0.56500  0.03700  0.64620  Biso   1.000  C
  C253     1.0000 0.79550  0.00930  0.58200  Biso   1.000  C
  C254     1.0000 0.60370  0.02420  0.63550  Biso   1.000  C
  C255     1.0000 0.58810  0.97080  0.59610  Biso   1.000  C
  C256     1.0000 0.69200  0.97000  0.56400  Biso   1.000  C
  C257     1.0000 0.15010  0.82500  0.58770  Biso   1.000  C
  C258     1.0000 0.20380  0.64790  0.61050  Biso   1.000  C
  C259     1.0000 0.08920  0.74920  0.50720  Biso   1.000  C
  C260     1.0000 0.14620  0.56500  0.53700  Biso   1.000  C
  C261     1.0000 0.08200  0.79550  0.50930  Biso   1.000  C
  C262     1.0000 0.13550  0.60370  0.52420  Biso   1.000  C
  C263     1.0000 0.09610  0.58810  0.47080  Biso   1.000  C
  C264     1.0000 0.06400  0.69200  0.47000  Biso   1.000  C
  C265     1.0000 0.76270  0.67500  0.82510  Biso   1.000  C
  C266     1.0000 0.96260  0.85210  0.05590  Biso   1.000  C
  C267     1.0000 0.75800  0.75080  0.84000  Biso   1.000  C
  C268     1.0000 0.97200  0.93500  0.08120  Biso   1.000  C
  C269     1.0000 0.71380  0.70450  0.78650  Biso   1.000  C
  C270     1.0000 0.92050  0.89630  0.03180  Biso   1.000  C
  C271     1.0000 0.88270  0.91190  0.00800  Biso   1.000  C
  C272     1.0000 0.77800  0.80800  0.87200  Biso   1.000  C
  C273     1.0000 0.34990  0.93760  0.67490  Biso   1.000  C
  C274     1.0000 0.29620  0.90670  0.44410  Biso   1.000  C
  C275     1.0000 0.41080  0.91800  0.66000  Biso   1.000  C
  C276     1.0000 0.35380  0.89080  0.41880  Biso   1.000  C
  C277     1.0000 0.41800  0.92730  0.71350  Biso   1.000  C
  C278     1.0000 0.36450  0.88870  0.46820  Biso   1.000  C
  C279     1.0000 0.40390  0.87470  0.49200  Biso   1.000  C
  C280     1.0000 0.43600  0.90600  0.62800  Biso   1.000  C
  C281     1.0000 0.73730  0.56240  0.91230  Biso   1.000  C
  C282     1.0000 0.53740  0.59330  0.88950  Biso   1.000  C
  C283     1.0000 0.74200  0.58200  0.99280  Biso   1.000  C
  C284     1.0000 0.52800  0.60920  0.96300  Biso   1.000  C
  C285     1.0000 0.78620  0.57270  0.99070  Biso   1.000  C
  C286     1.0000 0.57950  0.61130  0.97580  Biso   1.000  C
  C287     1.0000 0.61730  0.62530  0.02920  Biso   1.000  C
  C288     1.0000 0.72200  0.59400  0.03000  Biso   1.000  C
  C289     1.0000 0.73730  0.17490  0.32500  Biso   1.000  C
  C290     1.0000 0.53740  0.94410  0.14790  Biso   1.000  C
  C291     1.0000 0.74200  0.16000  0.24920  Biso   1.000  C
  C292     1.0000 0.52800  0.91880  0.06500  Biso   1.000  C
  C293     1.0000 0.78620  0.21350  0.29550  Biso   1.000  C
  C294     1.0000 0.57950  0.96820  0.10370  Biso   1.000  C
  C295     1.0000 0.61730  0.99200  0.08810  Biso   1.000  C
  C296     1.0000 0.72200  0.12800  0.19200  Biso   1.000  C
  C297     1.0000 0.34990  0.41230  0.17500  Biso   1.000  C
  C298     1.0000 0.29620  0.38950  0.35210  Biso   1.000  C
  C299     1.0000 0.41080  0.49280  0.25080  Biso   1.000  C
  C300     1.0000 0.35380  0.46300  0.43500  Biso   1.000  C
  C301     1.0000 0.41800  0.49070  0.20450  Biso   1.000  C
  C302     1.0000 0.36450  0.47580  0.39630  Biso   1.000  C
  C303     1.0000 0.40390  0.52920  0.41190  Biso   1.000  C
  C304     1.0000 0.43600  0.53000  0.30800  Biso   1.000  C
  C305     1.0000 0.76270  0.08770  0.43760  Biso   1.000  C
  C306     1.0000 0.96260  0.11050  0.40670  Biso   1.000  C
  C307     1.0000 0.75800  0.00720  0.41800  Biso   1.000  C
  C308     1.0000 0.97200  0.03700  0.39080  Biso   1.000  C
  C309     1.0000 0.71380  0.00930  0.42730  Biso   1.000  C
  C310     1.0000 0.92050  0.02420  0.38870  Biso   1.000  C
  C311     1.0000 0.88270  0.97080  0.37470  Biso   1.000  C
  C312     1.0000 0.77800  0.97000  0.40600  Biso   1.000  C
  C313     1.0000 0.15010  0.32510  0.06240  Biso   1.000  C
  C314     1.0000 0.20380  0.55590  0.09330  Biso   1.000  C
  C315     1.0000 0.08920  0.34000  0.08200  Biso   1.000  C
  C316     1.0000 0.14620  0.58120  0.10920  Biso   1.000  C
  C317     1.0000 0.08200  0.28650  0.07270  Biso   1.000  C
  C318     1.0000 0.13550  0.53180  0.11130  Biso   1.000  C
  C319     1.0000 0.09610  0.50800  0.12530  Biso   1.000  C
  C320     1.0000 0.06400  0.37200  0.09400  Biso   1.000  C
  C321     1.0000 0.08770  0.93760  0.26270  Biso   1.000  C
  C322     1.0000 0.11050  0.90670  0.46260  Biso   1.000  C
  C323     1.0000 0.00720  0.91800  0.25800  Biso   1.000  C
  C324     1.0000 0.03700  0.89080  0.47200  Biso   1.000  C
  C325     1.0000 0.00930  0.92730  0.21380  Biso   1.000  C
  C326     1.0000 0.02420  0.88870  0.42050  Biso   1.000  C
  C327     1.0000 0.97080  0.87470  0.38270  Biso   1.000  C
  C328     1.0000 0.97000  0.90600  0.27800  Biso   1.000  C
  C329     1.0000 0.32510  0.56240  0.65010  Biso   1.000  C
  C330     1.0000 0.55590  0.59330  0.70380  Biso   1.000  C
  C331     1.0000 0.34000  0.58200  0.58920  Biso   1.000  C
  C332     1.0000 0.58120  0.60920  0.64620  Biso   1.000  C
  C333     1.0000 0.28650  0.57270  0.58200  Biso   1.000  C
  C334     1.0000 0.53180  0.61130  0.63550  Biso   1.000  C
  C335     1.0000 0.50800  0.62530  0.59610  Biso   1.000  C
  C336     1.0000 0.37200  0.59400  0.56400  Biso   1.000  C
  C337     1.0000 0.17490  0.82500  0.23730  Biso   1.000  C
  C338     1.0000 0.94410  0.64790  0.03740  Biso   1.000  C
  C339     1.0000 0.16000  0.74920  0.24200  Biso   1.000  C
  C340     1.0000 0.91880  0.56500  0.02800  Biso   1.000  C
  C341     1.0000 0.21350  0.79550  0.28620  Biso   1.000  C
  C342     1.0000 0.96820  0.60370  0.07950  Biso   1.000  C
  C343     1.0000 0.99200  0.58810  0.11730  Biso   1.000  C
  C344     1.0000 0.12800  0.69200  0.22200  Biso   1.000  C
  C345     1.0000 0.41230  0.67500  0.84990  Biso   1.000  C
  C346     1.0000 0.38950  0.85210  0.79620  Biso   1.000  C
  C347     1.0000 0.49280  0.75080  0.91080  Biso   1.000  C
  C348     1.0000 0.46300  0.93500  0.85380  Biso   1.000  C
  C349     1.0000 0.49070  0.70450  0.91800  Biso   1.000  C
  C350     1.0000 0.47580  0.89630  0.86450  Biso   1.000  C
  C351     1.0000 0.52920  0.91190  0.90390  Biso   1.000  C
  C352     1.0000 0.53000  0.80800  0.93600  Biso   1.000  C
  C353     1.0000 0.67500  0.34990  0.91230  Biso   1.000  C
  C354     1.0000 0.85210  0.29620  0.88950  Biso   1.000  C
  C355     1.0000 0.75080  0.41080  0.99280  Biso   1.000  C
  C356     1.0000 0.93500  0.35380  0.96300  Biso   1.000  C
  C357     1.0000 0.70450  0.41800  0.99070  Biso   1.000  C
  C358     1.0000 0.89630  0.36450  0.97580  Biso   1.000  C
  C359     1.0000 0.91190  0.40390  0.02920  Biso   1.000  C
  C360     1.0000 0.80800  0.43600  0.03000  Biso   1.000  C
  C361     1.0000 0.82500  0.73730  0.67490  Biso   1.000  C
  C362     1.0000 0.64790  0.53740  0.44410  Biso   1.000  C
  C363     1.0000 0.74920  0.74200  0.66000  Biso   1.000  C
  C364     1.0000 0.56500  0.52800  0.41880  Biso   1.000  C
  C365     1.0000 0.79550  0.78620  0.71350  Biso   1.000  C
  C366     1.0000 0.60370  0.57950  0.46820  Biso   1.000  C
  C367     1.0000 0.58810  0.61730  0.49200  Biso   1.000  C
  C368     1.0000 0.69200  0.72200  0.62800  Biso   1.000  C
  C369     1.0000 0.56240  0.15010  0.82510  Biso   1.000  C
  C370     1.0000 0.59330  0.20380  0.05590  Biso   1.000  C
  C371     1.0000 0.58200  0.08920  0.84000  Biso   1.000  C
  C372     1.0000 0.60920  0.14620  0.08120  Biso   1.000  C
  C373     1.0000 0.57270  0.08200  0.78650  Biso   1.000  C
  C374     1.0000 0.61130  0.13550  0.03180  Biso   1.000  C
  C375     1.0000 0.62530  0.09610  0.00800  Biso   1.000  C
  C376     1.0000 0.59400  0.06400  0.87200  Biso   1.000  C
  C377     1.0000 0.93760  0.76270  0.58770  Biso   1.000  C
  C378     1.0000 0.90670  0.96260  0.61050  Biso   1.000  C
  C379     1.0000 0.91800  0.75800  0.50720  Biso   1.000  C
  C380     1.0000 0.89080  0.97200  0.53700  Biso   1.000  C
  C381     1.0000 0.92730  0.71380  0.50930  Biso   1.000  C
  C382     1.0000 0.88870  0.92050  0.52420  Biso   1.000  C
  C383     1.0000 0.87470  0.88270  0.47080  Biso   1.000  C
  C384     1.0000 0.90600  0.77800  0.47000  Biso   1.000  C
  N1       1.0000 0.63610  0.21080  0.77110  Biso   1.000  N
  N2       1.0000 0.72340  0.28330  0.84310  Biso   1.000  N
  N3       1.0000 0.40188  0.00030  0.59178  Biso   1.000  N
  N4       1.0000 0.48370  0.08290  0.65620  Biso   1.000  N
  N5       1.0000 0.57500  0.18070  0.67350  Biso   1.000  N
  N6       1.0000 0.54510  0.16160  0.61550  Biso   1.000  N
  N7       1.0000 0.93970  0.86500  0.72890  Biso   1.000  N
  N8       1.0000 0.94020  0.88030  0.65690  Biso   1.000  N
  N9       1.0000 0.90852  0.81010  0.90822  Biso   1.000  N
  N10      1.0000 0.92670  0.82750  0.84380  Biso   1.000  N
  N11      1.0000 0.00720  0.90150  0.82650  Biso   1.000  N
  N12      1.0000 0.04610  0.92960  0.88450  Biso   1.000  N
  N13      1.0000 0.56030  0.28920  0.92530  Biso   1.000  N
  N14      1.0000 0.55980  0.21670  0.94010  Biso   1.000  N
  N15      1.0000 0.59148  0.49970  0.90158  Biso   1.000  N
  N16      1.0000 0.57330  0.41710  0.90080  Biso   1.000  N
  N17      1.0000 0.49280  0.31930  0.89430  Biso   1.000  N
  N18      1.0000 0.45390  0.33840  0.88350  Biso   1.000  N
  N19      1.0000 0.86390  0.63500  0.57470  Biso   1.000  N
  N20      1.0000 0.77660  0.61970  0.55990  Biso   1.000  N
  N21      1.0000 0.09812  0.68990  0.59842  Biso   1.000  N
  N22      1.0000 0.01630  0.67250  0.59920  Biso   1.000  N
  N23      1.0000 0.92500  0.59850  0.60570  Biso   1.000  N
  N24      1.0000 0.95490  0.57040  0.61650  Biso   1.000  N
  N25      1.0000 0.42530  0.56030  0.78920  Biso   1.000  N
  N26      1.0000 0.44010  0.55980  0.71670  Biso   1.000  N
  N27      1.0000 0.40158  0.59148  0.99970  Biso   1.000  N
  N28      1.0000 0.40080  0.57330  0.91710  Biso   1.000  N
  N29      1.0000 0.39430  0.49280  0.81930  Biso   1.000  N
  N30      1.0000 0.38350  0.45390  0.83840  Biso   1.000  N
  N31      1.0000 0.07470  0.86390  0.13500  Biso   1.000  N
  N32      1.0000 0.05990  0.77660  0.11970  Biso   1.000  N
  N33      1.0000 0.09842  0.09812  0.18990  Biso   1.000  N
  N34      1.0000 0.09920  0.01630  0.17250  Biso   1.000  N
  N35      1.0000 0.10570  0.92500  0.09850  Biso   1.000  N
  N36      1.0000 0.11650  0.95490  0.07040  Biso   1.000  N
  N37      1.0000 0.27110  0.63610  0.71080  Biso   1.000  N
  N38      1.0000 0.34310  0.72340  0.78330  Biso   1.000  N
  N39      1.0000 0.09178  0.40188  0.50030  Biso   1.000  N
  N40      1.0000 0.15620  0.48370  0.58290  Biso   1.000  N
  N41      1.0000 0.17350  0.57500  0.68070  Biso   1.000  N
  N42      1.0000 0.11550  0.54510  0.66160  Biso   1.000  N
  N43      1.0000 0.22890  0.93970  0.36500  Biso   1.000  N
  N44      1.0000 0.15690  0.94020  0.38030  Biso   1.000  N
  N45      1.0000 0.40822  0.90852  0.31010  Biso   1.000  N
  N46      1.0000 0.34380  0.92670  0.32750  Biso   1.000  N
  N47      1.0000 0.32650  0.00720  0.40150  Biso   1.000  N
  N48      1.0000 0.38450  0.04610  0.42960  Biso   1.000  N
  N49      1.0000 0.86500  0.22890  0.43970  Biso   1.000  N
  N50      1.0000 0.88030  0.15690  0.44020  Biso   1.000  N
  N51      1.0000 0.81010  0.40822  0.40852  Biso   1.000  N
  N52      1.0000 0.82750  0.34380  0.42670  Biso   1.000  N
  N53      1.0000 0.90150  0.32650  0.50720  Biso   1.000  N
  N54      1.0000 0.92960  0.38450  0.54610  Biso   1.000  N
  N55      1.0000 0.21080  0.27110  0.13610  Biso   1.000  N
  N56      1.0000 0.28330  0.34310  0.22340  Biso   1.000  N
  N57      1.0000 0.00030  0.09178  0.90188  Biso   1.000  N
  N58      1.0000 0.08290  0.15620  0.98370  Biso   1.000  N
  N59      1.0000 0.18070  0.17350  0.07500  Biso   1.000  N
  N60      1.0000 0.16160  0.11550  0.04510  Biso   1.000  N
  N61      1.0000 0.63500  0.07470  0.36390  Biso   1.000  N
  N62      1.0000 0.61970  0.05990  0.27660  Biso   1.000  N
  N63      1.0000 0.68990  0.09842  0.59812  Biso   1.000  N
  N64      1.0000 0.67250  0.09920  0.51630  Biso   1.000  N
  N65      1.0000 0.59850  0.10570  0.42500  Biso   1.000  N
  N66      1.0000 0.57040  0.11650  0.45490  Biso   1.000  N
  N67      1.0000 0.28920  0.42530  0.06030  Biso   1.000  N
  N68      1.0000 0.21670  0.44010  0.05980  Biso   1.000  N
  N69      1.0000 0.49970  0.40158  0.09148  Biso   1.000  N
  N70      1.0000 0.41710  0.40080  0.07330  Biso   1.000  N
  N71      1.0000 0.31930  0.39430  0.99280  Biso   1.000  N
  N72      1.0000 0.33840  0.38350  0.95390  Biso   1.000  N
  N73      1.0000 0.28920  0.86390  0.72890  Biso   1.000  N
  N74      1.0000 0.21670  0.77660  0.65690  Biso   1.000  N
  N75      1.0000 0.49970  0.09812  0.90822  Biso   1.000  N
  N76      1.0000 0.41710  0.01630  0.84380  Biso   1.000  N
  N77      1.0000 0.31930  0.92500  0.82650  Biso   1.000  N
  N78      1.0000 0.33840  0.95490  0.88450  Biso   1.000  N
  N79      1.0000 0.63500  0.56030  0.77110  Biso   1.000  N
  N80      1.0000 0.61970  0.55980  0.84310  Biso   1.000  N
  N81      1.0000 0.68990  0.59148  0.59178  Biso   1.000  N
  N82      1.0000 0.67250  0.57330  0.65620  Biso   1.000  N
  N83      1.0000 0.59850  0.49280  0.67350  Biso   1.000  N
  N84      1.0000 0.57040  0.45390  0.61550  Biso   1.000  N
  N85      1.0000 0.21080  0.93970  0.57470  Biso   1.000  N
  N86      1.0000 0.28330  0.94020  0.55990  Biso   1.000  N
  N87      1.0000 0.00030  0.90852  0.59842  Biso   1.000  N
  N88      1.0000 0.08290  0.92670  0.59920  Biso   1.000  N
  N89      1.0000 0.18070  0.00720  0.60570  Biso   1.000  N
  N90      1.0000 0.16160  0.04610  0.61650  Biso   1.000  N
  N91      1.0000 0.86500  0.63610  0.92530  Biso   1.000  N
  N92      1.0000 0.88030  0.72340  0.94010  Biso   1.000  N
  N93      1.0000 0.81010  0.40188  0.90158  Biso   1.000  N
  N94      1.0000 0.82750  0.48370  0.90080  Biso   1.000  N
  N95      1.0000 0.90150  0.57500  0.89430  Biso   1.000  N
  N96      1.0000 0.92960  0.54510  0.88350  Biso   1.000  N
  N97      1.0000 0.93970  0.07470  0.71080  Biso   1.000  N
  N98      1.0000 0.94020  0.05990  0.78330  Biso   1.000  N
  N99      1.0000 0.90852  0.09842  0.50030  Biso   1.000  N
  N100     1.0000 0.92670  0.09920  0.58290  Biso   1.000  N
  N101     1.0000 0.00720  0.10570  0.68070  Biso   1.000  N
  N102     1.0000 0.04610  0.11650  0.66160  Biso   1.000  N
  N103     1.0000 0.63610  0.42530  0.36500  Biso   1.000  N
  N104     1.0000 0.72340  0.44010  0.38030  Biso   1.000  N
  N105     1.0000 0.40188  0.40158  0.31010  Biso   1.000  N
  N106     1.0000 0.48370  0.40080  0.32750  Biso   1.000  N
  N107     1.0000 0.57500  0.39430  0.40150  Biso   1.000  N
  N108     1.0000 0.54510  0.38350  0.42960  Biso   1.000  N
  N109     1.0000 0.86390  0.22890  0.78920  Biso   1.000  N
  N110     1.0000 0.77660  0.15690  0.71670  Biso   1.000  N
  N111     1.0000 0.09812  0.40822  0.99970  Biso   1.000  N
  N112     1.0000 0.01630  0.34380  0.91710  Biso   1.000  N
  N113     1.0000 0.92500  0.32650  0.81930  Biso   1.000  N
  N114     1.0000 0.95490  0.38450  0.83840  Biso   1.000  N
  N115     1.0000 0.56030  0.27110  0.13500  Biso   1.000  N
  N116     1.0000 0.55980  0.34310  0.11970  Biso   1.000  N
  N117     1.0000 0.59148  0.09178  0.18990  Biso   1.000  N
  N118     1.0000 0.57330  0.15620  0.17250  Biso   1.000  N
  N119     1.0000 0.49280  0.17350  0.09850  Biso   1.000  N
  N120     1.0000 0.45390  0.11550  0.07040  Biso   1.000  N
  N121     1.0000 0.27110  0.63500  0.06030  Biso   1.000  N
  N122     1.0000 0.34310  0.61970  0.05980  Biso   1.000  N
  N123     1.0000 0.09178  0.68990  0.09148  Biso   1.000  N
  N124     1.0000 0.15620  0.67250  0.07330  Biso   1.000  N
  N125     1.0000 0.17350  0.59850  0.99280  Biso   1.000  N
  N126     1.0000 0.11550  0.57040  0.95390  Biso   1.000  N
  N127     1.0000 0.22890  0.28920  0.36390  Biso   1.000  N
  N128     1.0000 0.15690  0.21670  0.27660  Biso   1.000  N
  N129     1.0000 0.40822  0.49970  0.59812  Biso   1.000  N
  N130     1.0000 0.34380  0.41710  0.51630  Biso   1.000  N
  N131     1.0000 0.32650  0.31930  0.42500  Biso   1.000  N
  N132     1.0000 0.38450  0.33840  0.45490  Biso   1.000  N
  N133     1.0000 0.42530  0.86500  0.13610  Biso   1.000  N
  N134     1.0000 0.44010  0.88030  0.22340  Biso   1.000  N
  N135     1.0000 0.40158  0.81010  0.90188  Biso   1.000  N
  N136     1.0000 0.40080  0.82750  0.98370  Biso   1.000  N
  N137     1.0000 0.39430  0.90150  0.07500  Biso   1.000  N
  N138     1.0000 0.38350  0.92960  0.04510  Biso   1.000  N
  N139     1.0000 0.07470  0.21080  0.43970  Biso   1.000  N
  N140     1.0000 0.05990  0.28330  0.44020  Biso   1.000  N
  N141     1.0000 0.09842  0.00030  0.40852  Biso   1.000  N
  N142     1.0000 0.09920  0.08290  0.42670  Biso   1.000  N
  N143     1.0000 0.10570  0.18070  0.50720  Biso   1.000  N
  N144     1.0000 0.11650  0.16160  0.54610  Biso   1.000  N
  N145     1.0000 0.36390  0.78920  0.22890  Biso   1.000  N
  N146     1.0000 0.27660  0.71670  0.15690  Biso   1.000  N
  N147     1.0000 0.59812  0.99970  0.40822  Biso   1.000  N
  N148     1.0000 0.51630  0.91710  0.34380  Biso   1.000  N
  N149     1.0000 0.42500  0.81930  0.32650  Biso   1.000  N
  N150     1.0000 0.45490  0.83840  0.38450  Biso   1.000  N
  N151     1.0000 0.06030  0.13500  0.27110  Biso   1.000  N
  N152     1.0000 0.05980  0.11970  0.34310  Biso   1.000  N
  N153     1.0000 0.09148  0.18990  0.09178  Biso   1.000  N
  N154     1.0000 0.07330  0.17250  0.15620  Biso   1.000  N
  N155     1.0000 0.99280  0.09850  0.17350  Biso   1.000  N
  N156     1.0000 0.95390  0.07040  0.11550  Biso   1.000  N
  N157     1.0000 0.43970  0.71080  0.07470  Biso   1.000  N
  N158     1.0000 0.44020  0.78330  0.05990  Biso   1.000  N
  N159     1.0000 0.40852  0.50030  0.09842  Biso   1.000  N
  N160     1.0000 0.42670  0.58290  0.09920  Biso   1.000  N
  N161     1.0000 0.50720  0.68070  0.10570  Biso   1.000  N
  N162     1.0000 0.54610  0.66160  0.11650  Biso   1.000  N
  N163     1.0000 0.13610  0.36500  0.42530  Biso   1.000  N
  N164     1.0000 0.22340  0.38030  0.44010  Biso   1.000  N
  N165     1.0000 0.90188  0.31010  0.40158  Biso   1.000  N
  N166     1.0000 0.98370  0.32750  0.40080  Biso   1.000  N
  N167     1.0000 0.07500  0.40150  0.39430  Biso   1.000  N
  N168     1.0000 0.04510  0.42960  0.38350  Biso   1.000  N
  N169     1.0000 0.57470  0.43970  0.21080  Biso   1.000  N
  N170     1.0000 0.55990  0.44020  0.28330  Biso   1.000  N
  N171     1.0000 0.59842  0.40852  0.00030  Biso   1.000  N
  N172     1.0000 0.59920  0.42670  0.08290  Biso   1.000  N
  N173     1.0000 0.60570  0.50720  0.18070  Biso   1.000  N
  N174     1.0000 0.61650  0.54610  0.16160  Biso   1.000  N
  N175     1.0000 0.92530  0.13610  0.86500  Biso   1.000  N
  N176     1.0000 0.94010  0.22340  0.88030  Biso   1.000  N
  N177     1.0000 0.90158  0.90188  0.81010  Biso   1.000  N
  N178     1.0000 0.90080  0.98370  0.82750  Biso   1.000  N
  N179     1.0000 0.89430  0.07500  0.90150  Biso   1.000  N
  N180     1.0000 0.88350  0.04510  0.92960  Biso   1.000  N
  N181     1.0000 0.72890  0.36390  0.28920  Biso   1.000  N
  N182     1.0000 0.65690  0.27660  0.21670  Biso   1.000  N
  N183     1.0000 0.90822  0.59812  0.49970  Biso   1.000  N
  N184     1.0000 0.84380  0.51630  0.41710  Biso   1.000  N
  N185     1.0000 0.82650  0.42500  0.31930  Biso   1.000  N
  N186     1.0000 0.88450  0.45490  0.33840  Biso   1.000  N
  N187     1.0000 0.77110  0.06030  0.63500  Biso   1.000  N
  N188     1.0000 0.84310  0.05980  0.61970  Biso   1.000  N
  N189     1.0000 0.59178  0.09148  0.68990  Biso   1.000  N
  N190     1.0000 0.65620  0.07330  0.67250  Biso   1.000  N
  N191     1.0000 0.67350  0.99280  0.59850  Biso   1.000  N
  N192     1.0000 0.61550  0.95390  0.57040  Biso   1.000  N
  N193     1.0000 0.13500  0.77110  0.56030  Biso   1.000  N
  N194     1.0000 0.11970  0.84310  0.55980  Biso   1.000  N
  N195     1.0000 0.18990  0.59178  0.59148  Biso   1.000  N
  N196     1.0000 0.17250  0.65620  0.57330  Biso   1.000  N
  N197     1.0000 0.09850  0.67350  0.49280  Biso   1.000  N
  N198     1.0000 0.07040  0.61550  0.45390  Biso   1.000  N
  N199     1.0000 0.78920  0.72890  0.86390  Biso   1.000  N
  N200     1.0000 0.71670  0.65690  0.77660  Biso   1.000  N
  N201     1.0000 0.99970  0.90822  0.09812  Biso   1.000  N
  N202     1.0000 0.91710  0.84380  0.01630  Biso   1.000  N
  N203     1.0000 0.81930  0.82650  0.92500  Biso   1.000  N
  N204     1.0000 0.83840  0.88450  0.95490  Biso   1.000  N
  N205     1.0000 0.36500  0.92530  0.63610  Biso   1.000  N
  N206     1.0000 0.38030  0.94010  0.72340  Biso   1.000  N
  N207     1.0000 0.31010  0.90158  0.40188  Biso   1.000  N
  N208     1.0000 0.32750  0.90080  0.48370  Biso   1.000  N
  N209     1.0000 0.40150  0.89430  0.57500  Biso   1.000  N
  N210     1.0000 0.42960  0.88350  0.54510  Biso   1.000  N
  N211     1.0000 0.71080  0.57470  0.93970  Biso   1.000  N
  N212     1.0000 0.78330  0.55990  0.94020  Biso   1.000  N
  N213     1.0000 0.50030  0.59842  0.90852  Biso   1.000  N
  N214     1.0000 0.58290  0.59920  0.92670  Biso   1.000  N
  N215     1.0000 0.68070  0.60570  0.00720  Biso   1.000  N
  N216     1.0000 0.66160  0.61650  0.04610  Biso   1.000  N
  N217     1.0000 0.71080  0.13610  0.27110  Biso   1.000  N
  N218     1.0000 0.78330  0.22340  0.34310  Biso   1.000  N
  N219     1.0000 0.50030  0.90188  0.09178  Biso   1.000  N
  N220     1.0000 0.58290  0.98370  0.15620  Biso   1.000  N
  N221     1.0000 0.68070  0.07500  0.17350  Biso   1.000  N
  N222     1.0000 0.66160  0.04510  0.11550  Biso   1.000  N
  N223     1.0000 0.36500  0.43970  0.22890  Biso   1.000  N
  N224     1.0000 0.38030  0.44020  0.15690  Biso   1.000  N
  N225     1.0000 0.31010  0.40852  0.40822  Biso   1.000  N
  N226     1.0000 0.32750  0.42670  0.34380  Biso   1.000  N
  N227     1.0000 0.40150  0.50720  0.32650  Biso   1.000  N
  N228     1.0000 0.42960  0.54610  0.38450  Biso   1.000  N
  N229     1.0000 0.78920  0.06030  0.42530  Biso   1.000  N
  N230     1.0000 0.71670  0.05980  0.44010  Biso   1.000  N
  N231     1.0000 0.99970  0.09148  0.40158  Biso   1.000  N
  N232     1.0000 0.91710  0.07330  0.40080  Biso   1.000  N
  N233     1.0000 0.81930  0.99280  0.39430  Biso   1.000  N
  N234     1.0000 0.83840  0.95390  0.38350  Biso   1.000  N
  N235     1.0000 0.13500  0.36390  0.07470  Biso   1.000  N
  N236     1.0000 0.11970  0.27660  0.05990  Biso   1.000  N
  N237     1.0000 0.18990  0.59812  0.09842  Biso   1.000  N
  N238     1.0000 0.17250  0.51630  0.09920  Biso   1.000  N
  N239     1.0000 0.09850  0.42500  0.10570  Biso   1.000  N
  N240     1.0000 0.07040  0.45490  0.11650  Biso   1.000  N
  N241     1.0000 0.06030  0.92530  0.28920  Biso   1.000  N
  N242     1.0000 0.05980  0.94010  0.21670  Biso   1.000  N
  N243     1.0000 0.09148  0.90158  0.49970  Biso   1.000  N
  N244     1.0000 0.07330  0.90080  0.41710  Biso   1.000  N
  N245     1.0000 0.99280  0.89430  0.31930  Biso   1.000  N
  N246     1.0000 0.95390  0.88350  0.33840  Biso   1.000  N
  N247     1.0000 0.36390  0.57470  0.63500  Biso   1.000  N
  N248     1.0000 0.27660  0.55990  0.61970  Biso   1.000  N
  N249     1.0000 0.59812  0.59842  0.68990  Biso   1.000  N
  N250     1.0000 0.51630  0.59920  0.67250  Biso   1.000  N
  N251     1.0000 0.42500  0.60570  0.59850  Biso   1.000  N
  N252     1.0000 0.45490  0.61650  0.57040  Biso   1.000  N
  N253     1.0000 0.13610  0.77110  0.21080  Biso   1.000  N
  N254     1.0000 0.22340  0.84310  0.28330  Biso   1.000  N
  N255     1.0000 0.90188  0.59178  0.00030  Biso   1.000  N
  N256     1.0000 0.98370  0.65620  0.08290  Biso   1.000  N
  N257     1.0000 0.07500  0.67350  0.18070  Biso   1.000  N
  N258     1.0000 0.04510  0.61550  0.16160  Biso   1.000  N
  N259     1.0000 0.43970  0.72890  0.86500  Biso   1.000  N
  N260     1.0000 0.44020  0.65690  0.88030  Biso   1.000  N
  N261     1.0000 0.40852  0.90822  0.81010  Biso   1.000  N
  N262     1.0000 0.42670  0.84380  0.82750  Biso   1.000  N
  N263     1.0000 0.50720  0.82650  0.90150  Biso   1.000  N
  N264     1.0000 0.54610  0.88450  0.92960  Biso   1.000  N
  N265     1.0000 0.72890  0.36500  0.93970  Biso   1.000  N
  N266     1.0000 0.65690  0.38030  0.94020  Biso   1.000  N
  N267     1.0000 0.90822  0.31010  0.90852  Biso   1.000  N
  N268     1.0000 0.84380  0.32750  0.92670  Biso   1.000  N
  N269     1.0000 0.82650  0.40150  0.00720  Biso   1.000  N
  N270     1.0000 0.88450  0.42960  0.04610  Biso   1.000  N
  N271     1.0000 0.77110  0.71080  0.63610  Biso   1.000  N
  N272     1.0000 0.84310  0.78330  0.72340  Biso   1.000  N
  N273     1.0000 0.59178  0.50030  0.40188  Biso   1.000  N
  N274     1.0000 0.65620  0.58290  0.48370  Biso   1.000  N
  N275     1.0000 0.67350  0.68070  0.57500  Biso   1.000  N
  N276     1.0000 0.61550  0.66160  0.54510  Biso   1.000  N
  N277     1.0000 0.57470  0.13500  0.86390  Biso   1.000  N
  N278     1.0000 0.55990  0.11970  0.77660  Biso   1.000  N
  N279     1.0000 0.59842  0.18990  0.09812  Biso   1.000  N
  N280     1.0000 0.59920  0.17250  0.01630  Biso   1.000  N
  N281     1.0000 0.60570  0.09850  0.92500  Biso   1.000  N
  N282     1.0000 0.61650  0.07040  0.95490  Biso   1.000  N
  N283     1.0000 0.92530  0.78920  0.56030  Biso   1.000  N
  N284     1.0000 0.94010  0.71670  0.55980  Biso   1.000  N
  N285     1.0000 0.90158  0.99970  0.59148  Biso   1.000  N
  N286     1.0000 0.90080  0.91710  0.57330  Biso   1.000  N
  N287     1.0000 0.89430  0.81930  0.49280  Biso   1.000  N
  N288     1.0000 0.88350  0.83840  0.45390  Biso   1.000  N
