data_image0
_cell_length_a       26.8326
_cell_length_b       26.8326
_cell_length_c       26.8326
_cell_angle_alpha    109.471
_cell_angle_beta     109.471
_cell_angle_gamma    109.471

_symmetry_space_group_name_H-M    P 1
_symmetry_int_tables_number       1

loop_
  _symmetry_equiv_pos_as_xyz
  'x, y, z'

loop_
  _atom_site_label
  _atom_site_occupancy
  _atom_site_fract_x
  _atom_site_fract_y
  _atom_site_fract_z
  _atom_site_thermal_displace_type
  _atom_site_B_iso_or_equiv
  _atom_site_type_symbol
  Zn1      1.0000 0.76041  0.21370  0.55773  Biso   1.000  Zn
  Zn2      1.0000 0.23052  0.77955  0.55863  Biso   1.000  Zn
  Zn3      1.0000 0.03454  0.94636  0.67066  Biso   1.000  Zn
  Zn4      1.0000 0.96369  0.05113  0.36324  Biso   1.000  Zn
  Zn5      1.0000 0.65597  0.20268  0.44227  Biso   1.000  Zn
  Zn6      1.0000 0.22092  0.67189  0.44137  Biso   1.000  Zn
  Zn7      1.0000 0.27570  0.36388  0.32934  Biso   1.000  Zn
  Zn8      1.0000 0.68789  0.60045  0.63676  Biso   1.000  Zn
  Zn9      1.0000 0.34403  0.78630  0.54671  Biso   1.000  Zn
  Zn10     1.0000 0.77908  0.22045  0.45097  Biso   1.000  Zn
  Zn11     1.0000 0.72430  0.05364  0.08818  Biso   1.000  Zn
  Zn12     1.0000 0.31211  0.94887  0.91256  Biso   1.000  Zn
  Zn13     1.0000 0.23959  0.79732  0.45329  Biso   1.000  Zn
  Zn14     1.0000 0.76948  0.32811  0.54903  Biso   1.000  Zn
  Zn15     1.0000 0.96546  0.63612  0.91182  Biso   1.000  Zn
  Zn16     1.0000 0.03631  0.39955  0.08744  Biso   1.000  Zn
  Zn17     1.0000 0.54671  0.34403  0.78630  Biso   1.000  Zn
  Zn18     1.0000 0.45097  0.77908  0.22045  Biso   1.000  Zn
  Zn19     1.0000 0.08818  0.72430  0.05364  Biso   1.000  Zn
  Zn20     1.0000 0.91256  0.31211  0.94887  Biso   1.000  Zn
  Zn21     1.0000 0.45329  0.23959  0.79732  Biso   1.000  Zn
  Zn22     1.0000 0.54903  0.76948  0.32811  Biso   1.000  Zn
  Zn23     1.0000 0.91182  0.96546  0.63612  Biso   1.000  Zn
  Zn24     1.0000 0.08744  0.03631  0.39955  Biso   1.000  Zn
  Zn25     1.0000 0.55773  0.76041  0.21370  Biso   1.000  Zn
  Zn26     1.0000 0.55863  0.23052  0.77955  Biso   1.000  Zn
  Zn27     1.0000 0.67066  0.03454  0.94636  Biso   1.000  Zn
  Zn28     1.0000 0.36324  0.96369  0.05113  Biso   1.000  Zn
  Zn29     1.0000 0.44227  0.65597  0.20268  Biso   1.000  Zn
  Zn30     1.0000 0.44137  0.22092  0.67189  Biso   1.000  Zn
  Zn31     1.0000 0.32934  0.27570  0.36388  Biso   1.000  Zn
  Zn32     1.0000 0.63676  0.68789  0.60045  Biso   1.000  Zn
  Zn33     1.0000 0.20268  0.44227  0.65597  Biso   1.000  Zn
  Zn34     1.0000 0.67189  0.44137  0.22092  Biso   1.000  Zn
  Zn35     1.0000 0.36388  0.32934  0.27570  Biso   1.000  Zn
  Zn36     1.0000 0.60045  0.63676  0.68789  Biso   1.000  Zn
  Zn37     1.0000 0.21370  0.55773  0.76041  Biso   1.000  Zn
  Zn38     1.0000 0.77955  0.55863  0.23052  Biso   1.000  Zn
  Zn39     1.0000 0.94636  0.67066  0.03454  Biso   1.000  Zn
  Zn40     1.0000 0.05113  0.36324  0.96369  Biso   1.000  Zn
  Zn41     1.0000 0.79732  0.45329  0.23959  Biso   1.000  Zn
  Zn42     1.0000 0.32811  0.54903  0.76948  Biso   1.000  Zn
  Zn43     1.0000 0.63612  0.91182  0.96546  Biso   1.000  Zn
  Zn44     1.0000 0.39955  0.08744  0.03631  Biso   1.000  Zn
  Zn45     1.0000 0.78630  0.54671  0.34403  Biso   1.000  Zn
  Zn46     1.0000 0.22045  0.45097  0.77908  Biso   1.000  Zn
  Zn47     1.0000 0.05364  0.08818  0.72430  Biso   1.000  Zn
  Zn48     1.0000 0.94887  0.91256  0.31211  Biso   1.000  Zn
  Zn49     1.0000 1.00000  1.00000  0.51924  Biso   1.000  Zn
  Zn50     1.0000 0.48076  0.48076  0.48076  Biso   1.000  Zn
  Zn51     1.0000 0.51924  0.00000  0.00000  Biso   1.000  Zn
  Zn52     1.0000 0.00000  0.51924  0.00000  Biso   1.000  Zn
  H1       1.0000 0.92680  0.74630  0.60730  Biso   1.000  H
  H2       1.0000 0.88440  0.12850  0.60230  Biso   1.000  H
  H3       1.0000 0.93540  0.07150  0.56870  Biso   1.000  H
  H4       1.0000 0.55850  0.92990  0.49840  Biso   1.000  H
  H5       1.0000 0.61240  0.04400  0.55660  Biso   1.000  H
  H6       1.0000 0.12990  0.89290  0.44040  Biso   1.000  H
  H7       1.0000 0.06450  0.93110  0.46740  Biso   1.000  H
  H8       1.0000 0.84230  0.66170  0.59700  Biso   1.000  H
  H9       1.0000 0.13900  0.31950  0.39270  Biso   1.000  H
  H10      1.0000 0.52620  0.28210  0.39770  Biso   1.000  H
  H11      1.0000 0.50280  0.36670  0.43130  Biso   1.000  H
  H12      1.0000 0.43150  0.06010  0.50160  Biso   1.000  H
  H13      1.0000 0.48740  0.05580  0.44340  Biso   1.000  H
  H14      1.0000 0.45250  0.68950  0.55960  Biso   1.000  H
  H15      1.0000 0.46370  0.59710  0.53260  Biso   1.000  H
  H16      1.0000 0.06470  0.24530  0.40300  Biso   1.000  H
  H17      1.0000 0.86100  0.25370  0.18050  Biso   1.000  H
  H18      1.0000 0.47380  0.87150  0.75590  Biso   1.000  H
  H19      1.0000 0.49720  0.92850  0.86390  Biso   1.000  H
  H20      1.0000 0.56850  0.07010  0.62860  Biso   1.000  H
  H21      1.0000 0.51260  0.95600  0.56840  Biso   1.000  H
  H22      1.0000 0.54750  0.10710  0.23700  Biso   1.000  H
  H23      1.0000 0.53630  0.06890  0.13340  Biso   1.000  H
  H24      1.0000 0.93530  0.33830  0.18060  Biso   1.000  H
  H25      1.0000 0.07320  0.68050  0.81950  Biso   1.000  H
  H26      1.0000 0.11560  0.71790  0.24410  Biso   1.000  H
  H27      1.0000 0.06460  0.63330  0.13610  Biso   1.000  H
  H28      1.0000 0.44150  0.93990  0.37140  Biso   1.000  H
  H29      1.0000 0.38760  0.94420  0.43160  Biso   1.000  H
  H30      1.0000 0.87010  0.31050  0.76300  Biso   1.000  H
  H31      1.0000 0.93550  0.40290  0.86660  Biso   1.000  H
  H32      1.0000 0.15770  0.75470  0.81940  Biso   1.000  H
  H33      1.0000 0.18050  0.86100  0.25370  Biso   1.000  H
  H34      1.0000 0.75590  0.47380  0.87150  Biso   1.000  H
  H35      1.0000 0.86390  0.49720  0.92850  Biso   1.000  H
  H36      1.0000 0.62860  0.56850  0.07010  Biso   1.000  H
  H37      1.0000 0.56840  0.51260  0.95600  Biso   1.000  H
  H38      1.0000 0.23700  0.54750  0.10710  Biso   1.000  H
  H39      1.0000 0.13340  0.53630  0.06890  Biso   1.000  H
  H40      1.0000 0.18060  0.93530  0.33830  Biso   1.000  H
  H41      1.0000 0.81950  0.07320  0.68050  Biso   1.000  H
  H42      1.0000 0.24410  0.11560  0.71790  Biso   1.000  H
  H43      1.0000 0.13610  0.06460  0.63330  Biso   1.000  H
  H44      1.0000 0.37140  0.44150  0.93990  Biso   1.000  H
  H45      1.0000 0.43160  0.38760  0.94420  Biso   1.000  H
  H46      1.0000 0.76300  0.87010  0.31050  Biso   1.000  H
  H47      1.0000 0.86660  0.93550  0.40290  Biso   1.000  H
  H48      1.0000 0.81940  0.15770  0.75470  Biso   1.000  H
  H49      1.0000 0.60730  0.92680  0.74630  Biso   1.000  H
  H50      1.0000 0.60230  0.88440  0.12850  Biso   1.000  H
  H51      1.0000 0.56870  0.93540  0.07150  Biso   1.000  H
  H52      1.0000 0.49840  0.55850  0.92990  Biso   1.000  H
  H53      1.0000 0.55660  0.61240  0.04400  Biso   1.000  H
  H54      1.0000 0.44040  0.12990  0.89290  Biso   1.000  H
  H55      1.0000 0.46740  0.06450  0.93110  Biso   1.000  H
  H56      1.0000 0.59700  0.84230  0.66170  Biso   1.000  H
  H57      1.0000 0.39270  0.13900  0.31950  Biso   1.000  H
  H58      1.0000 0.39770  0.52620  0.28210  Biso   1.000  H
  H59      1.0000 0.43130  0.50280  0.36670  Biso   1.000  H
  H60      1.0000 0.50160  0.43150  0.06010  Biso   1.000  H
  H61      1.0000 0.44340  0.48740  0.05580  Biso   1.000  H
  H62      1.0000 0.55960  0.45250  0.68950  Biso   1.000  H
  H63      1.0000 0.53260  0.46370  0.59710  Biso   1.000  H
  H64      1.0000 0.40300  0.06470  0.24530  Biso   1.000  H
  H65      1.0000 0.31950  0.39270  0.13900  Biso   1.000  H
  H66      1.0000 0.28210  0.39770  0.52620  Biso   1.000  H
  H67      1.0000 0.36670  0.43130  0.50280  Biso   1.000  H
  H68      1.0000 0.06010  0.50160  0.43150  Biso   1.000  H
  H69      1.0000 0.05580  0.44340  0.48740  Biso   1.000  H
  H70      1.0000 0.68950  0.55960  0.45250  Biso   1.000  H
  H71      1.0000 0.59710  0.53260  0.46370  Biso   1.000  H
  H72      1.0000 0.24530  0.40300  0.06470  Biso   1.000  H
  H73      1.0000 0.74630  0.60730  0.92680  Biso   1.000  H
  H74      1.0000 0.12850  0.60230  0.88440  Biso   1.000  H
  H75      1.0000 0.07150  0.56870  0.93540  Biso   1.000  H
  H76      1.0000 0.92990  0.49840  0.55850  Biso   1.000  H
  H77      1.0000 0.04400  0.55660  0.61240  Biso   1.000  H
  H78      1.0000 0.89290  0.44040  0.12990  Biso   1.000  H
  H79      1.0000 0.93110  0.46740  0.06450  Biso   1.000  H
  H80      1.0000 0.66170  0.59700  0.84230  Biso   1.000  H
  H81      1.0000 0.68050  0.81950  0.07320  Biso   1.000  H
  H82      1.0000 0.71790  0.24410  0.11560  Biso   1.000  H
  H83      1.0000 0.63330  0.13610  0.06460  Biso   1.000  H
  H84      1.0000 0.93990  0.37140  0.44150  Biso   1.000  H
  H85      1.0000 0.94420  0.43160  0.38760  Biso   1.000  H
  H86      1.0000 0.31050  0.76300  0.87010  Biso   1.000  H
  H87      1.0000 0.40290  0.86660  0.93550  Biso   1.000  H
  H88      1.0000 0.75470  0.81940  0.15770  Biso   1.000  H
  H89      1.0000 0.25370  0.18050  0.86100  Biso   1.000  H
  H90      1.0000 0.87150  0.75590  0.47380  Biso   1.000  H
  H91      1.0000 0.92850  0.86390  0.49720  Biso   1.000  H
  H92      1.0000 0.07010  0.62860  0.56850  Biso   1.000  H
  H93      1.0000 0.95600  0.56840  0.51260  Biso   1.000  H
  H94      1.0000 0.10710  0.23700  0.54750  Biso   1.000  H
  H95      1.0000 0.06890  0.13340  0.53630  Biso   1.000  H
  H96      1.0000 0.33830  0.18060  0.93530  Biso   1.000  H
  H97      1.0000 1.00000  1.00000  0.62300  Biso   1.000  H
  H98      1.0000 1.00000  1.00000  0.41360  Biso   1.000  H
  H99      1.0000 0.37700  0.37700  0.37700  Biso   1.000  H
  H100     1.0000 0.58640  0.58640  0.58640  Biso   1.000  H
  H101     1.0000 0.62300  0.00000  0.00000  Biso   1.000  H
  H102     1.0000 0.41360  0.00000  0.00000  Biso   1.000  H
  H103     1.0000 0.00000  0.62300  0.00000  Biso   1.000  H
  H104     1.0000 0.00000  0.41360  0.00000  Biso   1.000  H
  C1       1.0000 0.89200  0.74560  0.60740  Biso   1.000  C
  C2       1.0000 0.88890  0.12080  0.56810  Biso   1.000  C
  C3       1.0000 0.91760  0.08910  0.54950  Biso   1.000  C
  C4       1.0000 0.93770  0.06670  0.45860  Biso   1.000  C
  C5       1.0000 0.86850  0.13860  0.52590  Biso   1.000  C
  C6       1.0000 0.09260  0.91780  0.54020  Biso   1.000  C
  C7       1.0000 0.91380  0.08910  0.49730  Biso   1.000  C
  C8       1.0000 0.83730  0.17370  0.52040  Biso   1.000  C
  C9       1.0000 0.06400  0.93510  0.57770  Biso   1.000  C
  C10      1.0000 0.63630  0.03940  0.49390  Biso   1.000  C
  C11      1.0000 0.58030  0.95570  0.48800  Biso   1.000  C
  C12      1.0000 0.58730  0.93690  0.43780  Biso   1.000  C
  C13      1.0000 0.67690  0.09910  0.49940  Biso   1.000  C
  C14      1.0000 0.18600  0.85060  0.51900  Biso   1.000  C
  C15      1.0000 0.61090  0.02010  0.52120  Biso   1.000  C
  C16      1.0000 0.57602  0.88260  0.38782  Biso   1.000  C
  C17      1.0000 0.12360  0.89610  0.47310  Biso   1.000  C
  C18      1.0000 0.08760  0.91830  0.48870  Biso   1.000  C
  C19      1.0000 0.14780  0.87970  0.51430  Biso   1.000  C
  C20      1.0000 0.91230  0.85400  0.62130  Biso   1.000  C
  C21      1.0000 0.87830  0.79140  0.61330  Biso   1.000  C
  C22      1.0000 0.84480  0.69840  0.60140  Biso   1.000  C
  C23      1.0000 0.80280  0.71540  0.60340  Biso   1.000  C
  C24      1.0000 0.74140  0.68390  0.59910  Biso   1.000  C
  C25      1.0000 0.13820  0.28460  0.39260  Biso   1.000  C
  C26      1.0000 0.55270  0.32080  0.43190  Biso   1.000  C
  C27      1.0000 0.53960  0.36810  0.45050  Biso   1.000  C
  C28      1.0000 0.60810  0.47910  0.54140  Biso   1.000  C
  C29      1.0000 0.61270  0.34260  0.47410  Biso   1.000  C
  C30      1.0000 0.37760  0.55240  0.45980  Biso   1.000  C
  C31      1.0000 0.59180  0.41650  0.50270  Biso   1.000  C
  C32      1.0000 0.65330  0.31690  0.47960  Biso   1.000  C
  C33      1.0000 0.35740  0.48630  0.42230  Biso   1.000  C
  C34      1.0000 0.54550  0.14240  0.50610  Biso   1.000  C
  C35      1.0000 0.46770  0.09230  0.51200  Biso   1.000  C
  C36      1.0000 0.49910  0.14950  0.56220  Biso   1.000  C
  C37      1.0000 0.59970  0.17750  0.50060  Biso   1.000  C
  C38      1.0000 0.33160  0.66700  0.48100  Biso   1.000  C
  C39      1.0000 0.49890  0.08970  0.47880  Biso   1.000  C
  C40      1.0000 0.49478  0.18820  0.61218  Biso   1.000  C
  C41      1.0000 0.42300  0.65050  0.52690  Biso   1.000  C
  C42      1.0000 0.42960  0.59890  0.51130  Biso   1.000  C
  C43      1.0000 0.36540  0.63350  0.48570  Biso   1.000  C
  C44      1.0000 0.23270  0.29100  0.37870  Biso   1.000  C
  C45      1.0000 0.17810  0.26500  0.38670  Biso   1.000  C
  C46      1.0000 0.09700  0.24340  0.39860  Biso   1.000  C
  C47      1.0000 0.11200  0.19940  0.39660  Biso   1.000  C
  C48      1.0000 0.08480  0.14230  0.40090  Biso   1.000  C
  C49      1.0000 0.86180  0.25440  0.14640  Biso   1.000  C
  C50      1.0000 0.44730  0.87920  0.76810  Biso   1.000  C
  C51      1.0000 0.46040  0.91090  0.82850  Biso   1.000  C
  C52      1.0000 0.39190  0.93330  0.87100  Biso   1.000  C
  C53      1.0000 0.38730  0.86140  0.72990  Biso   1.000  C
  C54      1.0000 0.62240  0.08220  0.17480  Biso   1.000  C
  C55      1.0000 0.40820  0.91090  0.82470  Biso   1.000  C
  C56      1.0000 0.34670  0.82630  0.66360  Biso   1.000  C
  C57      1.0000 0.64260  0.06490  0.12890  Biso   1.000  C
  C58      1.0000 0.45450  0.96060  0.59690  Biso   1.000  C
  C59      1.0000 0.53230  0.04430  0.62460  Biso   1.000  C
  C60      1.0000 0.50090  0.06310  0.65040  Biso   1.000  C
  C61      1.0000 0.40030  0.90090  0.57780  Biso   1.000  C
  C62      1.0000 0.66840  0.14940  0.33540  Biso   1.000  C
  C63      1.0000 0.50110  0.97990  0.59080  Biso   1.000  C
  C64      1.0000 0.50522  0.11740  0.69342  Biso   1.000  C
  C65      1.0000 0.57700  0.10390  0.22750  Biso   1.000  C
  C66      1.0000 0.57040  0.08170  0.16930  Biso   1.000  C
  C67      1.0000 0.63460  0.12030  0.26810  Biso   1.000  C
  C68      1.0000 0.76730  0.14600  0.05830  Biso   1.000  C
  C69      1.0000 0.82190  0.20860  0.08690  Biso   1.000  C
  C70      1.0000 0.90300  0.30160  0.14640  Biso   1.000  C
  C71      1.0000 0.88800  0.28460  0.08740  Biso   1.000  C
  C72      1.0000 0.91520  0.31610  0.05750  Biso   1.000  C
  C73      1.0000 0.10800  0.71540  0.85360  Biso   1.000  C
  C74      1.0000 0.11110  0.67920  0.23190  Biso   1.000  C
  C75      1.0000 0.08240  0.63190  0.17150  Biso   1.000  C
  C76      1.0000 0.06230  0.52090  0.12900  Biso   1.000  C
  C77      1.0000 0.13150  0.65740  0.27010  Biso   1.000  C
  C78      1.0000 0.90740  0.44760  0.82520  Biso   1.000  C
  C79      1.0000 0.08620  0.58350  0.17530  Biso   1.000  C
  C80      1.0000 0.16270  0.68310  0.33640  Biso   1.000  C
  C81      1.0000 0.93600  0.51370  0.87110  Biso   1.000  C
  C82      1.0000 0.36370  0.85760  0.40310  Biso   1.000  C
  C83      1.0000 0.41970  0.90770  0.37540  Biso   1.000  C
  C84      1.0000 0.41270  0.85050  0.34960  Biso   1.000  C
  C85      1.0000 0.32310  0.82250  0.42220  Biso   1.000  C
  C86      1.0000 0.81400  0.33300  0.66460  Biso   1.000  C
  C87      1.0000 0.38910  0.91030  0.40920  Biso   1.000  C
  C88      1.0000 0.42398  0.81180  0.30658  Biso   1.000  C
  C89      1.0000 0.87640  0.34950  0.77250  Biso   1.000  C
  C90      1.0000 0.91240  0.40110  0.83070  Biso   1.000  C
  C91      1.0000 0.85220  0.36650  0.73190  Biso   1.000  C
  C92      1.0000 0.08770  0.70900  0.94170  Biso   1.000  C
  C93      1.0000 0.12170  0.73500  0.91310  Biso   1.000  C
  C94      1.0000 0.15520  0.75660  0.85360  Biso   1.000  C
  C95      1.0000 0.19720  0.80060  0.91260  Biso   1.000  C
  C96      1.0000 0.25860  0.85770  0.94250  Biso   1.000  C
  C97      1.0000 0.14640  0.86180  0.25440  Biso   1.000  C
  C98      1.0000 0.76810  0.44730  0.87920  Biso   1.000  C
  C99      1.0000 0.82850  0.46040  0.91090  Biso   1.000  C
  C100     1.0000 0.87100  0.39190  0.93330  Biso   1.000  C
  C101     1.0000 0.72990  0.38730  0.86140  Biso   1.000  C
  C102     1.0000 0.17480  0.62240  0.08220  Biso   1.000  C
  C103     1.0000 0.82470  0.40820  0.91090  Biso   1.000  C
  C104     1.0000 0.66360  0.34670  0.82630  Biso   1.000  C
  C105     1.0000 0.12890  0.64260  0.06490  Biso   1.000  C
  C106     1.0000 0.59690  0.45450  0.96060  Biso   1.000  C
  C107     1.0000 0.62460  0.53230  0.04430  Biso   1.000  C
  C108     1.0000 0.65040  0.50090  0.06310  Biso   1.000  C
  C109     1.0000 0.57780  0.40030  0.90090  Biso   1.000  C
  C110     1.0000 0.33540  0.66840  0.14940  Biso   1.000  C
  C111     1.0000 0.59080  0.50110  0.97990  Biso   1.000  C
  C112     1.0000 0.69342  0.50522  0.11740  Biso   1.000  C
  C113     1.0000 0.22750  0.57700  0.10390  Biso   1.000  C
  C114     1.0000 0.16930  0.57040  0.08170  Biso   1.000  C
  C115     1.0000 0.26810  0.63460  0.12030  Biso   1.000  C
  C116     1.0000 0.05830  0.76730  0.14600  Biso   1.000  C
  C117     1.0000 0.08690  0.82190  0.20860  Biso   1.000  C
  C118     1.0000 0.14640  0.90300  0.30160  Biso   1.000  C
  C119     1.0000 0.08740  0.88800  0.28460  Biso   1.000  C
  C120     1.0000 0.05750  0.91520  0.31610  Biso   1.000  C
  C121     1.0000 0.85360  0.10800  0.71540  Biso   1.000  C
  C122     1.0000 0.23190  0.11110  0.67920  Biso   1.000  C
  C123     1.0000 0.17150  0.08240  0.63190  Biso   1.000  C
  C124     1.0000 0.12900  0.06230  0.52090  Biso   1.000  C
  C125     1.0000 0.27010  0.13150  0.65740  Biso   1.000  C
  C126     1.0000 0.82520  0.90740  0.44760  Biso   1.000  C
  C127     1.0000 0.17530  0.08620  0.58350  Biso   1.000  C
  C128     1.0000 0.33640  0.16270  0.68310  Biso   1.000  C
  C129     1.0000 0.87110  0.93600  0.51370  Biso   1.000  C
  C130     1.0000 0.40310  0.36370  0.85760  Biso   1.000  C
  C131     1.0000 0.37540  0.41970  0.90770  Biso   1.000  C
  C132     1.0000 0.34960  0.41270  0.85050  Biso   1.000  C
  C133     1.0000 0.42220  0.32310  0.82250  Biso   1.000  C
  C134     1.0000 0.66460  0.81400  0.33300  Biso   1.000  C
  C135     1.0000 0.40920  0.38910  0.91030  Biso   1.000  C
  C136     1.0000 0.30658  0.42398  0.81180  Biso   1.000  C
  C137     1.0000 0.77250  0.87640  0.34950  Biso   1.000  C
  C138     1.0000 0.83070  0.91240  0.40110  Biso   1.000  C
  C139     1.0000 0.73190  0.85220  0.36650  Biso   1.000  C
  C140     1.0000 0.94170  0.08770  0.70900  Biso   1.000  C
  C141     1.0000 0.91310  0.12170  0.73500  Biso   1.000  C
  C142     1.0000 0.85360  0.15520  0.75660  Biso   1.000  C
  C143     1.0000 0.91260  0.19720  0.80060  Biso   1.000  C
  C144     1.0000 0.94250  0.25860  0.85770  Biso   1.000  C
  C145     1.0000 0.60740  0.89200  0.74560  Biso   1.000  C
  C146     1.0000 0.56810  0.88890  0.12080  Biso   1.000  C
  C147     1.0000 0.54950  0.91760  0.08910  Biso   1.000  C
  C148     1.0000 0.45860  0.93770  0.06670  Biso   1.000  C
  C149     1.0000 0.52590  0.86850  0.13860  Biso   1.000  C
  C150     1.0000 0.54020  0.09260  0.91780  Biso   1.000  C
  C151     1.0000 0.49730  0.91380  0.08910  Biso   1.000  C
  C152     1.0000 0.52040  0.83730  0.17370  Biso   1.000  C
  C153     1.0000 0.57770  0.06400  0.93510  Biso   1.000  C
  C154     1.0000 0.49390  0.63630  0.03940  Biso   1.000  C
  C155     1.0000 0.48800  0.58030  0.95570  Biso   1.000  C
  C156     1.0000 0.43780  0.58730  0.93690  Biso   1.000  C
  C157     1.0000 0.49940  0.67690  0.09910  Biso   1.000  C
  C158     1.0000 0.51900  0.18600  0.85060  Biso   1.000  C
  C159     1.0000 0.52120  0.61090  0.02010  Biso   1.000  C
  C160     1.0000 0.38782  0.57602  0.88260  Biso   1.000  C
  C161     1.0000 0.47310  0.12360  0.89610  Biso   1.000  C
  C162     1.0000 0.48870  0.08760  0.91830  Biso   1.000  C
  C163     1.0000 0.51430  0.14780  0.87970  Biso   1.000  C
  C164     1.0000 0.62130  0.91230  0.85400  Biso   1.000  C
  C165     1.0000 0.61330  0.87830  0.79140  Biso   1.000  C
  C166     1.0000 0.60140  0.84480  0.69840  Biso   1.000  C
  C167     1.0000 0.60340  0.80280  0.71540  Biso   1.000  C
  C168     1.0000 0.59910  0.74140  0.68390  Biso   1.000  C
  C169     1.0000 0.39260  0.13820  0.28460  Biso   1.000  C
  C170     1.0000 0.43190  0.55270  0.32080  Biso   1.000  C
  C171     1.0000 0.45050  0.53960  0.36810  Biso   1.000  C
  C172     1.0000 0.54140  0.60810  0.47910  Biso   1.000  C
  C173     1.0000 0.47410  0.61270  0.34260  Biso   1.000  C
  C174     1.0000 0.45980  0.37760  0.55240  Biso   1.000  C
  C175     1.0000 0.50270  0.59180  0.41650  Biso   1.000  C
  C176     1.0000 0.47960  0.65330  0.31690  Biso   1.000  C
  C177     1.0000 0.42230  0.35740  0.48630  Biso   1.000  C
  C178     1.0000 0.50610  0.54550  0.14240  Biso   1.000  C
  C179     1.0000 0.51200  0.46770  0.09230  Biso   1.000  C
  C180     1.0000 0.56220  0.49910  0.14950  Biso   1.000  C
  C181     1.0000 0.50060  0.59970  0.17750  Biso   1.000  C
  C182     1.0000 0.48100  0.33160  0.66700  Biso   1.000  C
  C183     1.0000 0.47880  0.49890  0.08970  Biso   1.000  C
  C184     1.0000 0.61218  0.49478  0.18820  Biso   1.000  C
  C185     1.0000 0.52690  0.42300  0.65050  Biso   1.000  C
  C186     1.0000 0.51130  0.42960  0.59890  Biso   1.000  C
  C187     1.0000 0.48570  0.36540  0.63350  Biso   1.000  C
  C188     1.0000 0.37870  0.23270  0.29100  Biso   1.000  C
  C189     1.0000 0.38670  0.17810  0.26500  Biso   1.000  C
  C190     1.0000 0.39860  0.09700  0.24340  Biso   1.000  C
  C191     1.0000 0.39660  0.11200  0.19940  Biso   1.000  C
  C192     1.0000 0.40090  0.08480  0.14230  Biso   1.000  C
  C193     1.0000 0.28460  0.39260  0.13820  Biso   1.000  C
  C194     1.0000 0.32080  0.43190  0.55270  Biso   1.000  C
  C195     1.0000 0.36810  0.45050  0.53960  Biso   1.000  C
  C196     1.0000 0.47910  0.54140  0.60810  Biso   1.000  C
  C197     1.0000 0.34260  0.47410  0.61270  Biso   1.000  C
  C198     1.0000 0.55240  0.45980  0.37760  Biso   1.000  C
  C199     1.0000 0.41650  0.50270  0.59180  Biso   1.000  C
  C200     1.0000 0.31690  0.47960  0.65330  Biso   1.000  C
  C201     1.0000 0.48630  0.42230  0.35740  Biso   1.000  C
  C202     1.0000 0.14240  0.50610  0.54550  Biso   1.000  C
  C203     1.0000 0.09230  0.51200  0.46770  Biso   1.000  C
  C204     1.0000 0.14950  0.56220  0.49910  Biso   1.000  C
  C205     1.0000 0.17750  0.50060  0.59970  Biso   1.000  C
  C206     1.0000 0.66700  0.48100  0.33160  Biso   1.000  C
  C207     1.0000 0.08970  0.47880  0.49890  Biso   1.000  C
  C208     1.0000 0.18820  0.61218  0.49478  Biso   1.000  C
  C209     1.0000 0.65050  0.52690  0.42300  Biso   1.000  C
  C210     1.0000 0.59890  0.51130  0.42960  Biso   1.000  C
  C211     1.0000 0.63350  0.48570  0.36540  Biso   1.000  C
  C212     1.0000 0.29100  0.37870  0.23270  Biso   1.000  C
  C213     1.0000 0.26500  0.38670  0.17810  Biso   1.000  C
  C214     1.0000 0.24340  0.39860  0.09700  Biso   1.000  C
  C215     1.0000 0.19940  0.39660  0.11200  Biso   1.000  C
  C216     1.0000 0.14230  0.40090  0.08480  Biso   1.000  C
  C217     1.0000 0.74560  0.60740  0.89200  Biso   1.000  C
  C218     1.0000 0.12080  0.56810  0.88890  Biso   1.000  C
  C219     1.0000 0.08910  0.54950  0.91760  Biso   1.000  C
  C220     1.0000 0.06670  0.45860  0.93770  Biso   1.000  C
  C221     1.0000 0.13860  0.52590  0.86850  Biso   1.000  C
  C222     1.0000 0.91780  0.54020  0.09260  Biso   1.000  C
  C223     1.0000 0.08910  0.49730  0.91380  Biso   1.000  C
  C224     1.0000 0.17370  0.52040  0.83730  Biso   1.000  C
  C225     1.0000 0.93510  0.57770  0.06400  Biso   1.000  C
  C226     1.0000 0.03940  0.49390  0.63630  Biso   1.000  C
  C227     1.0000 0.95570  0.48800  0.58030  Biso   1.000  C
  C228     1.0000 0.93690  0.43780  0.58730  Biso   1.000  C
  C229     1.0000 0.09910  0.49940  0.67690  Biso   1.000  C
  C230     1.0000 0.85060  0.51900  0.18600  Biso   1.000  C
  C231     1.0000 0.02010  0.52120  0.61090  Biso   1.000  C
  C232     1.0000 0.88260  0.38782  0.57602  Biso   1.000  C
  C233     1.0000 0.89610  0.47310  0.12360  Biso   1.000  C
  C234     1.0000 0.91830  0.48870  0.08760  Biso   1.000  C
  C235     1.0000 0.87970  0.51430  0.14780  Biso   1.000  C
  C236     1.0000 0.85400  0.62130  0.91230  Biso   1.000  C
  C237     1.0000 0.79140  0.61330  0.87830  Biso   1.000  C
  C238     1.0000 0.69840  0.60140  0.84480  Biso   1.000  C
  C239     1.0000 0.71540  0.60340  0.80280  Biso   1.000  C
  C240     1.0000 0.68390  0.59910  0.74140  Biso   1.000  C
  C241     1.0000 0.71540  0.85360  0.10800  Biso   1.000  C
  C242     1.0000 0.67920  0.23190  0.11110  Biso   1.000  C
  C243     1.0000 0.63190  0.17150  0.08240  Biso   1.000  C
  C244     1.0000 0.52090  0.12900  0.06230  Biso   1.000  C
  C245     1.0000 0.65740  0.27010  0.13150  Biso   1.000  C
  C246     1.0000 0.44760  0.82520  0.90740  Biso   1.000  C
  C247     1.0000 0.58350  0.17530  0.08620  Biso   1.000  C
  C248     1.0000 0.68310  0.33640  0.16270  Biso   1.000  C
  C249     1.0000 0.51370  0.87110  0.93600  Biso   1.000  C
  C250     1.0000 0.85760  0.40310  0.36370  Biso   1.000  C
  C251     1.0000 0.90770  0.37540  0.41970  Biso   1.000  C
  C252     1.0000 0.85050  0.34960  0.41270  Biso   1.000  C
  C253     1.0000 0.82250  0.42220  0.32310  Biso   1.000  C
  C254     1.0000 0.33300  0.66460  0.81400  Biso   1.000  C
  C255     1.0000 0.91030  0.40920  0.38910  Biso   1.000  C
  C256     1.0000 0.81180  0.30658  0.42398  Biso   1.000  C
  C257     1.0000 0.34950  0.77250  0.87640  Biso   1.000  C
  C258     1.0000 0.40110  0.83070  0.91240  Biso   1.000  C
  C259     1.0000 0.36650  0.73190  0.85220  Biso   1.000  C
  C260     1.0000 0.70900  0.94170  0.08770  Biso   1.000  C
  C261     1.0000 0.73500  0.91310  0.12170  Biso   1.000  C
  C262     1.0000 0.75660  0.85360  0.15520  Biso   1.000  C
  C263     1.0000 0.80060  0.91260  0.19720  Biso   1.000  C
  C264     1.0000 0.85770  0.94250  0.25860  Biso   1.000  C
  C265     1.0000 0.25440  0.14640  0.86180  Biso   1.000  C
  C266     1.0000 0.87920  0.76810  0.44730  Biso   1.000  C
  C267     1.0000 0.91090  0.82850  0.46040  Biso   1.000  C
  C268     1.0000 0.93330  0.87100  0.39190  Biso   1.000  C
  C269     1.0000 0.86140  0.72990  0.38730  Biso   1.000  C
  C270     1.0000 0.08220  0.17480  0.62240  Biso   1.000  C
  C271     1.0000 0.91090  0.82470  0.40820  Biso   1.000  C
  C272     1.0000 0.82630  0.66360  0.34670  Biso   1.000  C
  C273     1.0000 0.06490  0.12890  0.64260  Biso   1.000  C
  C274     1.0000 0.96060  0.59690  0.45450  Biso   1.000  C
  C275     1.0000 0.04430  0.62460  0.53230  Biso   1.000  C
  C276     1.0000 0.06310  0.65040  0.50090  Biso   1.000  C
  C277     1.0000 0.90090  0.57780  0.40030  Biso   1.000  C
  C278     1.0000 0.14940  0.33540  0.66840  Biso   1.000  C
  C279     1.0000 0.97990  0.59080  0.50110  Biso   1.000  C
  C280     1.0000 0.11740  0.69342  0.50522  Biso   1.000  C
  C281     1.0000 0.10390  0.22750  0.57700  Biso   1.000  C
  C282     1.0000 0.08170  0.16930  0.57040  Biso   1.000  C
  C283     1.0000 0.12030  0.26810  0.63460  Biso   1.000  C
  C284     1.0000 0.14600  0.05830  0.76730  Biso   1.000  C
  C285     1.0000 0.20860  0.08690  0.82190  Biso   1.000  C
  C286     1.0000 0.30160  0.14640  0.90300  Biso   1.000  C
  C287     1.0000 0.28460  0.08740  0.88800  Biso   1.000  C
  C288     1.0000 0.31610  0.05750  0.91520  Biso   1.000  C
  O1       1.0000 0.95810  0.86540  0.62030  Biso   1.000  O
  O2       1.0000 0.88750  0.88240  0.63070  Biso   1.000  O
  O3       1.0000 0.82497  0.19124  0.56153  Biso   1.000  O
  O4       1.0000 0.93206  0.07908  0.41772  Biso   1.000  O
  O5       1.0000 0.20248  0.83991  0.56059  Biso   1.000  O
  O6       1.0000 0.07148  0.92254  0.62004  Biso   1.000  O
  O7       1.0000 0.96325  0.03722  0.46971  Biso   1.000  O
  O8       1.0000 0.03593  0.96045  0.56562  Biso   1.000  O
  O9       1.0000 0.82106  0.17697  0.47289  Biso   1.000  O
  O10      1.0000 0.88575  0.12073  0.48278  Biso   1.000  O
  O11      1.0000 0.19821  0.84047  0.47676  Biso   1.000  O
  O12      1.0000 0.68943  0.10111  0.46208  Biso   1.000  O
  O13      1.0000 0.69824  0.14669  0.55283  Biso   1.000  O
  O14      1.0000 0.62389  0.99076  0.44117  Biso   1.000  O
  O15      1.0000 0.58893  0.88466  0.35051  Biso   1.000  O
  O16      1.0000 0.12815  0.89224  0.55773  Biso   1.000  O
  O17      1.0000 0.55073  0.83499  0.39280  Biso   1.000  O
  O18      1.0000 0.82370  0.77180  0.61070  Biso   1.000  O
  O19      1.0000 0.71570  0.71270  0.60260  Biso   1.000  O
  O20      1.0000 0.72850  0.63420  0.59390  Biso   1.000  O
  O21      1.0000 0.02010  0.95250  0.74520  Biso   1.000  O
  O22      1.0000 0.24510  0.33780  0.37970  Biso   1.000  O
  O23      1.0000 0.25170  0.25680  0.36930  Biso   1.000  O
  O24      1.0000 0.62971  0.26344  0.43847  Biso   1.000  O
  O25      1.0000 0.66136  0.51434  0.58228  Biso   1.000  O
  O26      1.0000 0.27932  0.64189  0.43941  Biso   1.000  O
  O27      1.0000 0.30250  0.45144  0.37996  Biso   1.000  O
  O28      1.0000 0.56751  0.49354  0.53029  Biso   1.000  O
  O29      1.0000 0.39483  0.47031  0.43438  Biso   1.000  O
  O30      1.0000 0.70408  0.34817  0.52711  Biso   1.000  O
  O31      1.0000 0.63795  0.40297  0.51722  Biso   1.000  O
  O32      1.0000 0.36371  0.72145  0.52324  Biso   1.000  O
  O33      1.0000 0.63903  0.22735  0.53792  Biso   1.000  O
  O34      1.0000 0.59386  0.14541  0.44717  Biso   1.000  O
  O35      1.0000 0.54959  0.18272  0.55883  Biso   1.000  O
  O36      1.0000 0.53415  0.23842  0.64949  Biso   1.000  O
  O37      1.0000 0.33451  0.57042  0.44227  Biso   1.000  O
  O38      1.0000 0.44219  0.15793  0.60720  Biso   1.000  O
  O39      1.0000 0.16110  0.21300  0.38930  Biso   1.000  O
  O40      1.0000 0.11010  0.11310  0.39740  Biso   1.000  O
  O41      1.0000 0.04030  0.13460  0.40610  Biso   1.000  O
  O42      1.0000 0.20730  0.27490  0.25480  Biso   1.000  O
  O43      1.0000 0.75490  0.13460  0.09270  Biso   1.000  O
  O44      1.0000 0.74830  0.11760  0.00510  Biso   1.000  O
  O45      1.0000 0.37029  0.80876  0.63373  Biso   1.000  O
  O46      1.0000 0.33864  0.92092  0.85298  Biso   1.000  O
  O47      1.0000 0.72068  0.16009  0.36257  Biso   1.000  O
  O48      1.0000 0.69750  0.07746  0.14894  Biso   1.000  O
  O49      1.0000 0.43249  0.96278  0.92603  Biso   1.000  O
  O50      1.0000 0.60517  0.03955  0.07548  Biso   1.000  O
  O51      1.0000 0.29592  0.82303  0.64409  Biso   1.000  O
  O52      1.0000 0.36205  0.87927  0.76502  Biso   1.000  O
  O53      1.0000 0.63629  0.15953  0.35774  Biso   1.000  O
  O54      1.0000 0.36097  0.89889  0.58832  Biso   1.000  O
  O55      1.0000 0.40614  0.85331  0.55155  Biso   1.000  O
  O56      1.0000 0.45041  0.00924  0.63313  Biso   1.000  O
  O57      1.0000 0.46585  0.11534  0.70427  Biso   1.000  O
  O58      1.0000 0.66549  0.10776  0.23591  Biso   1.000  O
  O59      1.0000 0.55781  0.16501  0.71574  Biso   1.000  O
  O60      1.0000 0.83890  0.22820  0.05190  Biso   1.000  O
  O61      1.0000 0.88990  0.28730  0.00300  Biso   1.000  O
  O62      1.0000 0.95970  0.36580  0.09430  Biso   1.000  O
  O63      1.0000 0.79270  0.04750  0.06760  Biso   1.000  O
  O64      1.0000 0.04190  0.66220  0.90730  Biso   1.000  O
  O65      1.0000 0.11250  0.74320  0.99490  Biso   1.000  O
  O66      1.0000 0.17503  0.73656  0.36627  Biso   1.000  O
  O67      1.0000 0.06794  0.48566  0.14702  Biso   1.000  O
  O68      1.0000 0.79752  0.35811  0.63743  Biso   1.000  O
  O69      1.0000 0.92852  0.54856  0.85106  Biso   1.000  O
  O70      1.0000 0.03675  0.50646  0.07397  Biso   1.000  O
  O71      1.0000 0.96407  0.52969  0.92452  Biso   1.000  O
  O72      1.0000 0.17894  0.65183  0.35591  Biso   1.000  O
  O73      1.0000 0.11425  0.59703  0.23498  Biso   1.000  O
  O74      1.0000 0.80179  0.27855  0.64226  Biso   1.000  O
  O75      1.0000 0.31057  0.77265  0.41168  Biso   1.000  O
  O76      1.0000 0.30176  0.85459  0.44845  Biso   1.000  O
  O77      1.0000 0.37611  0.81728  0.36687  Biso   1.000  O
  O78      1.0000 0.41107  0.76158  0.29573  Biso   1.000  O
  O79      1.0000 0.87185  0.42958  0.76409  Biso   1.000  O
  O80      1.0000 0.44927  0.84207  0.28426  Biso   1.000  O
  O81      1.0000 0.17630  0.78700  0.94810  Biso   1.000  O
  O82      1.0000 0.28430  0.88690  0.99700  Biso   1.000  O
  O83      1.0000 0.27150  0.86540  0.90570  Biso   1.000  O
  O84      1.0000 0.97990  0.72510  0.93240  Biso   1.000  O
  O85      1.0000 0.09270  0.75490  0.13460  Biso   1.000  O
  O86      1.0000 0.00510  0.74830  0.11760  Biso   1.000  O
  O87      1.0000 0.63373  0.37029  0.80876  Biso   1.000  O
  O88      1.0000 0.85298  0.33864  0.92092  Biso   1.000  O
  O89      1.0000 0.36257  0.72068  0.16009  Biso   1.000  O
  O90      1.0000 0.14894  0.69750  0.07746  Biso   1.000  O
  O91      1.0000 0.92603  0.43249  0.96278  Biso   1.000  O
  O92      1.0000 0.07548  0.60517  0.03955  Biso   1.000  O
  O93      1.0000 0.64409  0.29592  0.82303  Biso   1.000  O
  O94      1.0000 0.76502  0.36205  0.87927  Biso   1.000  O
  O95      1.0000 0.35774  0.63629  0.15953  Biso   1.000  O
  O96      1.0000 0.58832  0.36097  0.89889  Biso   1.000  O
  O97      1.0000 0.55155  0.40614  0.85331  Biso   1.000  O
  O98      1.0000 0.63313  0.45041  0.00924  Biso   1.000  O
  O99      1.0000 0.70427  0.46585  0.11534  Biso   1.000  O
  O100     1.0000 0.23591  0.66549  0.10776  Biso   1.000  O
  O101     1.0000 0.71574  0.55781  0.16501  Biso   1.000  O
  O102     1.0000 0.05190  0.83890  0.22820  Biso   1.000  O
  O103     1.0000 0.00300  0.88990  0.28730  Biso   1.000  O
  O104     1.0000 0.09430  0.95970  0.36580  Biso   1.000  O
  O105     1.0000 0.06760  0.79270  0.04750  Biso   1.000  O
  O106     1.0000 0.90730  0.04190  0.66220  Biso   1.000  O
  O107     1.0000 0.99490  0.11250  0.74320  Biso   1.000  O
  O108     1.0000 0.36627  0.17503  0.73656  Biso   1.000  O
  O109     1.0000 0.14702  0.06794  0.48566  Biso   1.000  O
  O110     1.0000 0.63743  0.79752  0.35811  Biso   1.000  O
  O111     1.0000 0.85106  0.92852  0.54856  Biso   1.000  O
  O112     1.0000 0.07397  0.03675  0.50646  Biso   1.000  O
  O113     1.0000 0.92452  0.96407  0.52969  Biso   1.000  O
  O114     1.0000 0.35591  0.17894  0.65183  Biso   1.000  O
  O115     1.0000 0.23498  0.11425  0.59703  Biso   1.000  O
  O116     1.0000 0.64226  0.80179  0.27855  Biso   1.000  O
  O117     1.0000 0.41168  0.31057  0.77265  Biso   1.000  O
  O118     1.0000 0.44845  0.30176  0.85459  Biso   1.000  O
  O119     1.0000 0.36687  0.37611  0.81728  Biso   1.000  O
  O120     1.0000 0.29573  0.41107  0.76158  Biso   1.000  O
  O121     1.0000 0.76409  0.87185  0.42958  Biso   1.000  O
  O122     1.0000 0.28426  0.44927  0.84207  Biso   1.000  O
  O123     1.0000 0.94810  0.17630  0.78700  Biso   1.000  O
  O124     1.0000 0.99700  0.28430  0.88690  Biso   1.000  O
  O125     1.0000 0.90570  0.27150  0.86540  Biso   1.000  O
  O126     1.0000 0.93240  0.97990  0.72510  Biso   1.000  O
  O127     1.0000 0.62030  0.95810  0.86540  Biso   1.000  O
  O128     1.0000 0.63070  0.88750  0.88240  Biso   1.000  O
  O129     1.0000 0.56153  0.82497  0.19124  Biso   1.000  O
  O130     1.0000 0.41772  0.93206  0.07908  Biso   1.000  O
  O131     1.0000 0.56059  0.20248  0.83991  Biso   1.000  O
  O132     1.0000 0.62004  0.07148  0.92254  Biso   1.000  O
  O133     1.0000 0.46971  0.96325  0.03722  Biso   1.000  O
  O134     1.0000 0.56562  0.03593  0.96045  Biso   1.000  O
  O135     1.0000 0.47289  0.82106  0.17697  Biso   1.000  O
  O136     1.0000 0.48278  0.88575  0.12073  Biso   1.000  O
  O137     1.0000 0.47676  0.19821  0.84047  Biso   1.000  O
  O138     1.0000 0.46208  0.68943  0.10111  Biso   1.000  O
  O139     1.0000 0.55283  0.69824  0.14669  Biso   1.000  O
  O140     1.0000 0.44117  0.62389  0.99076  Biso   1.000  O
  O141     1.0000 0.35051  0.58893  0.88466  Biso   1.000  O
  O142     1.0000 0.55773  0.12815  0.89224  Biso   1.000  O
  O143     1.0000 0.39280  0.55073  0.83499  Biso   1.000  O
  O144     1.0000 0.61070  0.82370  0.77180  Biso   1.000  O
  O145     1.0000 0.60260  0.71570  0.71270  Biso   1.000  O
  O146     1.0000 0.59390  0.72850  0.63420  Biso   1.000  O
  O147     1.0000 0.74520  0.02010  0.95250  Biso   1.000  O
  O148     1.0000 0.37970  0.24510  0.33780  Biso   1.000  O
  O149     1.0000 0.36930  0.25170  0.25680  Biso   1.000  O
  O150     1.0000 0.43847  0.62971  0.26344  Biso   1.000  O
  O151     1.0000 0.58228  0.66136  0.51434  Biso   1.000  O
  O152     1.0000 0.43941  0.27932  0.64189  Biso   1.000  O
  O153     1.0000 0.37996  0.30250  0.45144  Biso   1.000  O
  O154     1.0000 0.53029  0.56751  0.49354  Biso   1.000  O
  O155     1.0000 0.43438  0.39483  0.47031  Biso   1.000  O
  O156     1.0000 0.52711  0.70408  0.34817  Biso   1.000  O
  O157     1.0000 0.51722  0.63795  0.40297  Biso   1.000  O
  O158     1.0000 0.52324  0.36371  0.72145  Biso   1.000  O
  O159     1.0000 0.53792  0.63903  0.22735  Biso   1.000  O
  O160     1.0000 0.44717  0.59386  0.14541  Biso   1.000  O
  O161     1.0000 0.55883  0.54959  0.18272  Biso   1.000  O
  O162     1.0000 0.64949  0.53415  0.23842  Biso   1.000  O
  O163     1.0000 0.44227  0.33451  0.57042  Biso   1.000  O
  O164     1.0000 0.60720  0.44219  0.15793  Biso   1.000  O
  O165     1.0000 0.38930  0.16110  0.21300  Biso   1.000  O
  O166     1.0000 0.39740  0.11010  0.11310  Biso   1.000  O
  O167     1.0000 0.40610  0.04030  0.13460  Biso   1.000  O
  O168     1.0000 0.25480  0.20730  0.27490  Biso   1.000  O
  O169     1.0000 0.33780  0.37970  0.24510  Biso   1.000  O
  O170     1.0000 0.25680  0.36930  0.25170  Biso   1.000  O
  O171     1.0000 0.26344  0.43847  0.62971  Biso   1.000  O
  O172     1.0000 0.51434  0.58228  0.66136  Biso   1.000  O
  O173     1.0000 0.64189  0.43941  0.27932  Biso   1.000  O
  O174     1.0000 0.45144  0.37996  0.30250  Biso   1.000  O
  O175     1.0000 0.49354  0.53029  0.56751  Biso   1.000  O
  O176     1.0000 0.47031  0.43438  0.39483  Biso   1.000  O
  O177     1.0000 0.34817  0.52711  0.70408  Biso   1.000  O
  O178     1.0000 0.40297  0.51722  0.63795  Biso   1.000  O
  O179     1.0000 0.72145  0.52324  0.36371  Biso   1.000  O
  O180     1.0000 0.22735  0.53792  0.63903  Biso   1.000  O
  O181     1.0000 0.14541  0.44717  0.59386  Biso   1.000  O
  O182     1.0000 0.18272  0.55883  0.54959  Biso   1.000  O
  O183     1.0000 0.23842  0.64949  0.53415  Biso   1.000  O
  O184     1.0000 0.57042  0.44227  0.33451  Biso   1.000  O
  O185     1.0000 0.15793  0.60720  0.44219  Biso   1.000  O
  O186     1.0000 0.21300  0.38930  0.16110  Biso   1.000  O
  O187     1.0000 0.11310  0.39740  0.11010  Biso   1.000  O
  O188     1.0000 0.13460  0.40610  0.04030  Biso   1.000  O
  O189     1.0000 0.27490  0.25480  0.20730  Biso   1.000  O
  O190     1.0000 0.86540  0.62030  0.95810  Biso   1.000  O
  O191     1.0000 0.88240  0.63070  0.88750  Biso   1.000  O
  O192     1.0000 0.19124  0.56153  0.82497  Biso   1.000  O
  O193     1.0000 0.07908  0.41772  0.93206  Biso   1.000  O
  O194     1.0000 0.83991  0.56059  0.20248  Biso   1.000  O
  O195     1.0000 0.92254  0.62004  0.07148  Biso   1.000  O
  O196     1.0000 0.03722  0.46971  0.96325  Biso   1.000  O
  O197     1.0000 0.96045  0.56562  0.03593  Biso   1.000  O
  O198     1.0000 0.17697  0.47289  0.82106  Biso   1.000  O
  O199     1.0000 0.12073  0.48278  0.88575  Biso   1.000  O
  O200     1.0000 0.84047  0.47676  0.19821  Biso   1.000  O
  O201     1.0000 0.10111  0.46208  0.68943  Biso   1.000  O
  O202     1.0000 0.14669  0.55283  0.69824  Biso   1.000  O
  O203     1.0000 0.99076  0.44117  0.62389  Biso   1.000  O
  O204     1.0000 0.88466  0.35051  0.58893  Biso   1.000  O
  O205     1.0000 0.89224  0.55773  0.12815  Biso   1.000  O
  O206     1.0000 0.83499  0.39280  0.55073  Biso   1.000  O
  O207     1.0000 0.77180  0.61070  0.82370  Biso   1.000  O
  O208     1.0000 0.71270  0.60260  0.71570  Biso   1.000  O
  O209     1.0000 0.63420  0.59390  0.72850  Biso   1.000  O
  O210     1.0000 0.95250  0.74520  0.02010  Biso   1.000  O
  O211     1.0000 0.66220  0.90730  0.04190  Biso   1.000  O
  O212     1.0000 0.74320  0.99490  0.11250  Biso   1.000  O
  O213     1.0000 0.73656  0.36627  0.17503  Biso   1.000  O
  O214     1.0000 0.48566  0.14702  0.06794  Biso   1.000  O
  O215     1.0000 0.35811  0.63743  0.79752  Biso   1.000  O
  O216     1.0000 0.54856  0.85106  0.92852  Biso   1.000  O
  O217     1.0000 0.50646  0.07397  0.03675  Biso   1.000  O
  O218     1.0000 0.52969  0.92452  0.96407  Biso   1.000  O
  O219     1.0000 0.65183  0.35591  0.17894  Biso   1.000  O
  O220     1.0000 0.59703  0.23498  0.11425  Biso   1.000  O
  O221     1.0000 0.27855  0.64226  0.80179  Biso   1.000  O
  O222     1.0000 0.77265  0.41168  0.31057  Biso   1.000  O
  O223     1.0000 0.85459  0.44845  0.30176  Biso   1.000  O
  O224     1.0000 0.81728  0.36687  0.37611  Biso   1.000  O
  O225     1.0000 0.76158  0.29573  0.41107  Biso   1.000  O
  O226     1.0000 0.42958  0.76409  0.87185  Biso   1.000  O
  O227     1.0000 0.84207  0.28426  0.44927  Biso   1.000  O
  O228     1.0000 0.78700  0.94810  0.17630  Biso   1.000  O
  O229     1.0000 0.88690  0.99700  0.28430  Biso   1.000  O
  O230     1.0000 0.86540  0.90570  0.27150  Biso   1.000  O
  O231     1.0000 0.72510  0.93240  0.97990  Biso   1.000  O
  O232     1.0000 0.13460  0.09270  0.75490  Biso   1.000  O
  O233     1.0000 0.11760  0.00510  0.74830  Biso   1.000  O
  O234     1.0000 0.80876  0.63373  0.37029  Biso   1.000  O
  O235     1.0000 0.92092  0.85298  0.33864  Biso   1.000  O
  O236     1.0000 0.16009  0.36257  0.72068  Biso   1.000  O
  O237     1.0000 0.07746  0.14894  0.69750  Biso   1.000  O
  O238     1.0000 0.96278  0.92603  0.43249  Biso   1.000  O
  O239     1.0000 0.03955  0.07548  0.60517  Biso   1.000  O
  O240     1.0000 0.82303  0.64409  0.29592  Biso   1.000  O
  O241     1.0000 0.87927  0.76502  0.36205  Biso   1.000  O
  O242     1.0000 0.15953  0.35774  0.63629  Biso   1.000  O
  O243     1.0000 0.89889  0.58832  0.36097  Biso   1.000  O
  O244     1.0000 0.85331  0.55155  0.40614  Biso   1.000  O
  O245     1.0000 0.00924  0.63313  0.45041  Biso   1.000  O
  O246     1.0000 0.11534  0.70427  0.46585  Biso   1.000  O
  O247     1.0000 0.10776  0.23591  0.66549  Biso   1.000  O
  O248     1.0000 0.16501  0.71574  0.55781  Biso   1.000  O
  O249     1.0000 0.22820  0.05190  0.83890  Biso   1.000  O
  O250     1.0000 0.28730  0.00300  0.88990  Biso   1.000  O
  O251     1.0000 0.36580  0.09430  0.95970  Biso   1.000  O
  O252     1.0000 0.04750  0.06760  0.79270  Biso   1.000  O
  O253     1.0000 0.00000  0.00000  0.65958  Biso   1.000  O
  O254     1.0000 0.00000  0.00000  0.37710  Biso   1.000  O
  O255     1.0000 0.34042  0.34042  0.34042  Biso   1.000  O
  O256     1.0000 0.62290  0.62290  0.62290  Biso   1.000  O
  O257     1.0000 0.65958  0.00000  0.00000  Biso   1.000  O
  O258     1.0000 0.37710  0.00000  0.00000  Biso   1.000  O
  O259     1.0000 0.00000  0.65958  0.00000  Biso   1.000  O
  O260     1.0000 0.00000  0.37710  0.00000  Biso   1.000  O
  O261     1.0000 0.74343  0.24343  0.50000  Biso   1.000  O
  O262     1.0000 0.25657  0.75657  0.50000  Biso   1.000  O
  O263     1.0000 0.50000  0.25657  0.75657  Biso   1.000  O
  O264     1.0000 0.50000  0.74343  0.24343  Biso   1.000  O
  O265     1.0000 0.24343  0.50000  0.74343  Biso   1.000  O
  O266     1.0000 0.75657  0.50000  0.25657  Biso   1.000  O
