data_image0
_cell_length_a       23.51
_cell_length_b       23.51
_cell_length_c       23.51
_cell_angle_alpha    109.471
_cell_angle_beta     109.471
_cell_angle_gamma    109.471

_symmetry_space_group_name_H-M    P 1
_symmetry_int_tables_number       1

loop_
  _symmetry_equiv_pos_as_xyz
  'x, y, z'

loop_
  _atom_site_label
  _atom_site_occupancy
  _atom_site_fract_x
  _atom_site_fract_y
  _atom_site_fract_z
  _atom_site_thermal_displace_type
  _atom_site_B_iso_or_equiv
  _atom_site_type_symbol
  Ag1      1.0000 0.01608  0.59604  0.05174  Biso   1.000  Ag
  Ag2      1.0000 0.63581  0.64420  0.05111  Biso   1.000  Ag
  Ag3      1.0000 0.04430  0.96434  0.44826  Biso   1.000  Ag
  Ag4      1.0000 0.09309  0.58470  0.44889  Biso   1.000  Ag
  Ag5      1.0000 0.45570  0.90396  0.92004  Biso   1.000  Ag
  Ag6      1.0000 0.40691  0.85580  0.49161  Biso   1.000  Ag
  Ag7      1.0000 0.48392  0.53566  0.57996  Biso   1.000  Ag
  Ag8      1.0000 0.86419  0.91530  0.00839  Biso   1.000  Ag
  Ag9      1.0000 0.42004  0.45570  0.40396  Biso   1.000  Ag
  Ag10     1.0000 0.99161  0.40691  0.35580  Biso   1.000  Ag
  Ag11     1.0000 0.07996  0.48392  0.03566  Biso   1.000  Ag
  Ag12     1.0000 0.50839  0.86419  0.41530  Biso   1.000  Ag
  Ag13     1.0000 0.55174  0.01608  0.09604  Biso   1.000  Ag
  Ag14     1.0000 0.55111  0.63581  0.14420  Biso   1.000  Ag
  Ag15     1.0000 0.94826  0.04430  0.46434  Biso   1.000  Ag
  Ag16     1.0000 0.94889  0.09309  0.08470  Biso   1.000  Ag
  Ag17     1.0000 0.96434  0.94826  0.54430  Biso   1.000  Ag
  Ag18     1.0000 0.58470  0.94889  0.59309  Biso   1.000  Ag
  Ag19     1.0000 0.59604  0.55174  0.51608  Biso   1.000  Ag
  Ag20     1.0000 0.64420  0.55111  0.13581  Biso   1.000  Ag
  Ag21     1.0000 0.53566  0.07996  0.98392  Biso   1.000  Ag
  Ag22     1.0000 0.91530  0.50839  0.36419  Biso   1.000  Ag
  Ag23     1.0000 0.90396  0.42004  0.95570  Biso   1.000  Ag
  Ag24     1.0000 0.85580  0.99161  0.90691  Biso   1.000  Ag
  H1       1.0000 0.88800  0.68100  0.09660  Biso   1.000  H
  H2       1.0000 0.91520  0.68550  0.04410  Biso   1.000  H
  H3       1.0000 0.96140  0.68730  0.11210  Biso   1.000  H
  H4       1.0000 0.70920  0.40650  0.95150  Biso   1.000  H
  H5       1.0000 0.76250  0.37860  0.96070  Biso   1.000  H
  H6       1.0000 0.72660  0.38010  0.89150  Biso   1.000  H
  H7       1.0000 0.69330  0.62240  0.94930  Biso   1.000  H
  H8       1.0000 0.75350  0.60780  0.94570  Biso   1.000  H
  H9       1.0000 0.77200  0.67700  0.00840  Biso   1.000  H
  H10      1.0000 0.70840  0.45120  0.08740  Biso   1.000  H
  H11      1.0000 0.77590  0.51980  0.15310  Biso   1.000  H
  H12      1.0000 0.78070  0.47530  0.08920  Biso   1.000  H
  H13      1.0000 0.08440  0.79140  0.40340  Biso   1.000  H
  H14      1.0000 0.14140  0.87110  0.45590  Biso   1.000  H
  H15      1.0000 0.07520  0.84930  0.38790  Biso   1.000  H
  H16      1.0000 0.95500  0.75770  0.54850  Biso   1.000  H
  H17      1.0000 0.91790  0.80180  0.53930  Biso   1.000  H
  H18      1.0000 0.98860  0.83510  0.60850  Biso   1.000  H
  H19      1.0000 0.17310  0.74400  0.55070  Biso   1.000  H
  H20      1.0000 0.16210  0.80780  0.55430  Biso   1.000  H
  H21      1.0000 0.16860  0.76360  0.49160  Biso   1.000  H
  H22      1.0000 0.86380  0.62100  0.41260  Biso   1.000  H
  H23      1.0000 0.86670  0.62280  0.34690  Biso   1.000  H
  H24      1.0000 0.88610  0.69150  0.41080  Biso   1.000  H
  H25      1.0000 0.41560  0.81900  0.70700  Biso   1.000  H
  H26      1.0000 0.35860  0.81450  0.72970  Biso   1.000  H
  H27      1.0000 0.42480  0.81270  0.77410  Biso   1.000  H
  H28      1.0000 0.54500  0.09350  0.80270  Biso   1.000  H
  H29      1.0000 0.58210  0.12140  0.88390  Biso   1.000  H
  H30      1.0000 0.51140  0.11990  0.84650  Biso   1.000  H
  H31      1.0000 0.32690  0.87760  0.57090  Biso   1.000  H
  H32      1.0000 0.33790  0.89220  0.64570  Biso   1.000  H
  H33      1.0000 0.33140  0.82300  0.59500  Biso   1.000  H
  H34      1.0000 0.63620  0.04880  0.75720  Biso   1.000  H
  H35      1.0000 0.63330  0.98020  0.75610  Biso   1.000  H
  H36      1.0000 0.61390  0.02470  0.80540  Biso   1.000  H
  H37      1.0000 0.61200  0.70860  0.79300  Biso   1.000  H
  H38      1.0000 0.58480  0.62890  0.77030  Biso   1.000  H
  H39      1.0000 0.53860  0.65070  0.72590  Biso   1.000  H
  H40      1.0000 0.79080  0.74230  0.69730  Biso   1.000  H
  H41      1.0000 0.73750  0.69820  0.61610  Biso   1.000  H
  H42      1.0000 0.77340  0.66490  0.65350  Biso   1.000  H
  H43      1.0000 0.80670  0.75600  0.92910  Biso   1.000  H
  H44      1.0000 0.74650  0.69220  0.85430  Biso   1.000  H
  H45      1.0000 0.72800  0.73640  0.90500  Biso   1.000  H
  H46      1.0000 0.79160  0.87900  0.74280  Biso   1.000  H
  H47      1.0000 0.72410  0.87720  0.74390  Biso   1.000  H
  H48      1.0000 0.71930  0.80850  0.69460  Biso   1.000  H
  H49      1.0000 0.20700  0.41560  0.31900  Biso   1.000  H
  H50      1.0000 0.22970  0.35860  0.31450  Biso   1.000  H
  H51      1.0000 0.27410  0.42480  0.31270  Biso   1.000  H
  H52      1.0000 0.30270  0.54500  0.59350  Biso   1.000  H
  H53      1.0000 0.38390  0.58210  0.62140  Biso   1.000  H
  H54      1.0000 0.34650  0.51140  0.61990  Biso   1.000  H
  H55      1.0000 0.07090  0.32690  0.37760  Biso   1.000  H
  H56      1.0000 0.14570  0.33790  0.39220  Biso   1.000  H
  H57      1.0000 0.09500  0.33140  0.32300  Biso   1.000  H
  H58      1.0000 0.25720  0.63620  0.54880  Biso   1.000  H
  H59      1.0000 0.25610  0.63330  0.48020  Biso   1.000  H
  H60      1.0000 0.30540  0.61390  0.52470  Biso   1.000  H
  H61      1.0000 0.29300  0.61200  0.20860  Biso   1.000  H
  H62      1.0000 0.27030  0.58480  0.12890  Biso   1.000  H
  H63      1.0000 0.22590  0.53860  0.15070  Biso   1.000  H
  H64      1.0000 0.19730  0.79080  0.24230  Biso   1.000  H
  H65      1.0000 0.11610  0.73750  0.19820  Biso   1.000  H
  H66      1.0000 0.15350  0.77340  0.16490  Biso   1.000  H
  H67      1.0000 0.42910  0.80670  0.25600  Biso   1.000  H
  H68      1.0000 0.35430  0.74650  0.19220  Biso   1.000  H
  H69      1.0000 0.40500  0.72800  0.23640  Biso   1.000  H
  H70      1.0000 0.24280  0.79160  0.37900  Biso   1.000  H
  H71      1.0000 0.24390  0.72410  0.37720  Biso   1.000  H
  H72      1.0000 0.19460  0.71930  0.30850  Biso   1.000  H
  H73      1.0000 0.59660  0.88800  0.18100  Biso   1.000  H
  H74      1.0000 0.54410  0.91520  0.18550  Biso   1.000  H
  H75      1.0000 0.61210  0.96140  0.18730  Biso   1.000  H
  H76      1.0000 0.45150  0.70920  0.90650  Biso   1.000  H
  H77      1.0000 0.46070  0.76250  0.87860  Biso   1.000  H
  H78      1.0000 0.39150  0.72660  0.88010  Biso   1.000  H
  H79      1.0000 0.44930  0.69330  0.12240  Biso   1.000  H
  H80      1.0000 0.44570  0.75350  0.10780  Biso   1.000  H
  H81      1.0000 0.50840  0.77200  0.17700  Biso   1.000  H
  H82      1.0000 0.58740  0.70840  0.95120  Biso   1.000  H
  H83      1.0000 0.65310  0.77590  0.01980  Biso   1.000  H
  H84      1.0000 0.58920  0.78070  0.97530  Biso   1.000  H
  H85      1.0000 0.90340  0.08440  0.29140  Biso   1.000  H
  H86      1.0000 0.95590  0.14140  0.37110  Biso   1.000  H
  H87      1.0000 0.88790  0.07520  0.34930  Biso   1.000  H
  H88      1.0000 0.04850  0.95500  0.25770  Biso   1.000  H
  H89      1.0000 0.03930  0.91790  0.30180  Biso   1.000  H
  H90      1.0000 0.10850  0.98860  0.33510  Biso   1.000  H
  H91      1.0000 0.05070  0.17310  0.24400  Biso   1.000  H
  H92      1.0000 0.05430  0.16210  0.30780  Biso   1.000  H
  H93      1.0000 0.99160  0.16860  0.26360  Biso   1.000  H
  H94      1.0000 0.91260  0.86380  0.12100  Biso   1.000  H
  H95      1.0000 0.84690  0.86670  0.12280  Biso   1.000  H
  H96      1.0000 0.91080  0.88610  0.19150  Biso   1.000  H
  H97      1.0000 0.79140  0.90340  0.58440  Biso   1.000  H
  H98      1.0000 0.87110  0.95590  0.64140  Biso   1.000  H
  H99      1.0000 0.84930  0.88790  0.57520  Biso   1.000  H
  H100     1.0000 0.75770  0.04850  0.45500  Biso   1.000  H
  H101     1.0000 0.80180  0.03930  0.41790  Biso   1.000  H
  H102     1.0000 0.83510  0.10850  0.48860  Biso   1.000  H
  H103     1.0000 0.74400  0.05070  0.67310  Biso   1.000  H
  H104     1.0000 0.80780  0.05430  0.66210  Biso   1.000  H
  H105     1.0000 0.76360  0.99160  0.66860  Biso   1.000  H
  H106     1.0000 0.62100  0.91260  0.36380  Biso   1.000  H
  H107     1.0000 0.62280  0.84690  0.36670  Biso   1.000  H
  H108     1.0000 0.69150  0.91080  0.38610  Biso   1.000  H
  H109     1.0000 0.68100  0.59660  0.38800  Biso   1.000  H
  H110     1.0000 0.68550  0.54410  0.41520  Biso   1.000  H
  H111     1.0000 0.68730  0.61210  0.46140  Biso   1.000  H
  H112     1.0000 0.40650  0.45150  0.20920  Biso   1.000  H
  H113     1.0000 0.37860  0.46070  0.26250  Biso   1.000  H
  H114     1.0000 0.38010  0.39150  0.22660  Biso   1.000  H
  H115     1.0000 0.62240  0.44930  0.19330  Biso   1.000  H
  H116     1.0000 0.60780  0.44570  0.25350  Biso   1.000  H
  H117     1.0000 0.67700  0.50840  0.27200  Biso   1.000  H
  H118     1.0000 0.45120  0.58740  0.20840  Biso   1.000  H
  H119     1.0000 0.51980  0.65310  0.27590  Biso   1.000  H
  H120     1.0000 0.47530  0.58920  0.28070  Biso   1.000  H
  H121     1.0000 0.70860  0.29300  0.11200  Biso   1.000  H
  H122     1.0000 0.62890  0.27030  0.08480  Biso   1.000  H
  H123     1.0000 0.65070  0.22590  0.03860  Biso   1.000  H
  H124     1.0000 0.74230  0.19730  0.29080  Biso   1.000  H
  H125     1.0000 0.69820  0.11610  0.23750  Biso   1.000  H
  H126     1.0000 0.66490  0.15350  0.27340  Biso   1.000  H
  H127     1.0000 0.75600  0.42910  0.30670  Biso   1.000  H
  H128     1.0000 0.69220  0.35430  0.24650  Biso   1.000  H
  H129     1.0000 0.73640  0.40500  0.22800  Biso   1.000  H
  H130     1.0000 0.87900  0.24280  0.29160  Biso   1.000  H
  H131     1.0000 0.87720  0.24390  0.22410  Biso   1.000  H
  H132     1.0000 0.80850  0.19460  0.21930  Biso   1.000  H
  H133     1.0000 0.81900  0.20700  0.91560  Biso   1.000  H
  H134     1.0000 0.81450  0.22970  0.85860  Biso   1.000  H
  H135     1.0000 0.81270  0.27410  0.92480  Biso   1.000  H
  H136     1.0000 0.09350  0.30270  0.04500  Biso   1.000  H
  H137     1.0000 0.12140  0.38390  0.08210  Biso   1.000  H
  H138     1.0000 0.11990  0.34650  0.01140  Biso   1.000  H
  H139     1.0000 0.87760  0.07090  0.82690  Biso   1.000  H
  H140     1.0000 0.89220  0.14570  0.83790  Biso   1.000  H
  H141     1.0000 0.82300  0.09500  0.83140  Biso   1.000  H
  H142     1.0000 0.04880  0.25720  0.13620  Biso   1.000  H
  H143     1.0000 0.98020  0.25610  0.13330  Biso   1.000  H
  H144     1.0000 0.02470  0.30540  0.11390  Biso   1.000  H
  C1       1.0000 0.91420  0.66780  0.07580  Biso   1.000  C
  C2       1.0000 0.88020  0.59020  0.03660  Biso   1.000  C
  C3       1.0000 0.81150  0.53960  0.01290  Biso   1.000  C
  C4       1.0000 0.80640  0.47910  0.97490  Biso   1.000  C
  C5       1.0000 0.74540  0.40390  0.94150  Biso   1.000  C
  C6       1.0000 0.73810  0.62780  0.97650  Biso   1.000  C
  C7       1.0000 0.73130  0.59140  0.01730  Biso   1.000  C
  C8       1.0000 0.75980  0.55250  0.03130  Biso   1.000  C
  C9       1.0000 0.73690  0.53230  0.07080  Biso   1.000  C
  C10      1.0000 0.75170  0.49110  0.10280  Biso   1.000  C
  C11      1.0000 0.09200  0.83840  0.42420  Biso   1.000  C
  C12      1.0000 0.05360  0.84360  0.46340  Biso   1.000  C
  C13      1.0000 0.02670  0.79860  0.48710  Biso   1.000  C
  C14      1.0000 0.00420  0.83150  0.52510  Biso   1.000  C
  C15      1.0000 0.96240  0.80390  0.55850  Biso   1.000  C
  C16      1.0000 0.15130  0.76160  0.52350  Biso   1.000  C
  C17      1.0000 0.07410  0.71400  0.48270  Biso   1.000  C
  C18      1.0000 0.02120  0.72850  0.46870  Biso   1.000  C
  C19      1.0000 0.96150  0.66610  0.42920  Biso   1.000  C
  C20      1.0000 0.88830  0.64890  0.39720  Biso   1.000  C
  C21      1.0000 0.40800  0.83220  0.74640  Biso   1.000  C
  C22      1.0000 0.44640  0.90980  0.79000  Biso   1.000  C
  C23      1.0000 0.47330  0.96040  0.77190  Biso   1.000  C
  C24      1.0000 0.49580  0.02090  0.82730  Biso   1.000  C
  C25      1.0000 0.53760  0.09610  0.84150  Biso   1.000  C
  C26      1.0000 0.34870  0.87220  0.61030  Biso   1.000  C
  C27      1.0000 0.42590  0.90860  0.63990  Biso   1.000  C
  C28      1.0000 0.47880  0.94750  0.70730  Biso   1.000  C
  C29      1.0000 0.53850  0.96770  0.70460  Biso   1.000  C
  C30      1.0000 0.61170  0.00890  0.76060  Biso   1.000  C
  C31      1.0000 0.58580  0.66160  0.75360  Biso   1.000  C
  C32      1.0000 0.61980  0.65640  0.71000  Biso   1.000  C
  C33      1.0000 0.68850  0.70140  0.72810  Biso   1.000  C
  C34      1.0000 0.69360  0.66850  0.67270  Biso   1.000  C
  C35      1.0000 0.75460  0.69610  0.65850  Biso   1.000  C
  C36      1.0000 0.76190  0.73840  0.88970  Biso   1.000  C
  C37      1.0000 0.76870  0.78600  0.86010  Biso   1.000  C
  C38      1.0000 0.74020  0.77150  0.79270  Biso   1.000  C
  C39      1.0000 0.76310  0.83390  0.79540  Biso   1.000  C
  C40      1.0000 0.74830  0.85110  0.73940  Biso   1.000  C
  C41      1.0000 0.24640  0.40800  0.33220  Biso   1.000  C
  C42      1.0000 0.29000  0.44640  0.40980  Biso   1.000  C
  C43      1.0000 0.27190  0.47330  0.46040  Biso   1.000  C
  C44      1.0000 0.32730  0.49580  0.52090  Biso   1.000  C
  C45      1.0000 0.34150  0.53760  0.59610  Biso   1.000  C
  C46      1.0000 0.11030  0.34870  0.37220  Biso   1.000  C
  C47      1.0000 0.13990  0.42590  0.40860  Biso   1.000  C
  C48      1.0000 0.20730  0.47880  0.44750  Biso   1.000  C
  C49      1.0000 0.20460  0.53850  0.46770  Biso   1.000  C
  C50      1.0000 0.26060  0.61170  0.50890  Biso   1.000  C
  C51      1.0000 0.25360  0.58580  0.16160  Biso   1.000  C
  C52      1.0000 0.21000  0.61980  0.15640  Biso   1.000  C
  C53      1.0000 0.22810  0.68850  0.20140  Biso   1.000  C
  C54      1.0000 0.17270  0.69360  0.16850  Biso   1.000  C
  C55      1.0000 0.15850  0.75460  0.19610  Biso   1.000  C
  C56      1.0000 0.38970  0.76190  0.23840  Biso   1.000  C
  C57      1.0000 0.36010  0.76870  0.28600  Biso   1.000  C
  C58      1.0000 0.29270  0.74020  0.27150  Biso   1.000  C
  C59      1.0000 0.29540  0.76310  0.33390  Biso   1.000  C
  C60      1.0000 0.23940  0.74830  0.35110  Biso   1.000  C
  C61      1.0000 0.57580  0.91420  0.16780  Biso   1.000  C
  C62      1.0000 0.53660  0.88020  0.09020  Biso   1.000  C
  C63      1.0000 0.51290  0.81150  0.03960  Biso   1.000  C
  C64      1.0000 0.47490  0.80640  0.97910  Biso   1.000  C
  C65      1.0000 0.44150  0.74540  0.90390  Biso   1.000  C
  C66      1.0000 0.47650  0.73810  0.12780  Biso   1.000  C
  C67      1.0000 0.51730  0.73130  0.09140  Biso   1.000  C
  C68      1.0000 0.53130  0.75980  0.05250  Biso   1.000  C
  C69      1.0000 0.57080  0.73690  0.03230  Biso   1.000  C
  C70      1.0000 0.60280  0.75170  0.99110  Biso   1.000  C
  C71      1.0000 0.92420  0.09200  0.33840  Biso   1.000  C
  C72      1.0000 0.96340  0.05360  0.34360  Biso   1.000  C
  C73      1.0000 0.98710  0.02670  0.29860  Biso   1.000  C
  C74      1.0000 0.02510  0.00420  0.33150  Biso   1.000  C
  C75      1.0000 0.05850  0.96240  0.30390  Biso   1.000  C
  C76      1.0000 0.02350  0.15130  0.26160  Biso   1.000  C
  C77      1.0000 0.98270  0.07410  0.21400  Biso   1.000  C
  C78      1.0000 0.96870  0.02120  0.22850  Biso   1.000  C
  C79      1.0000 0.92920  0.96150  0.16610  Biso   1.000  C
  C80      1.0000 0.89720  0.88830  0.14890  Biso   1.000  C
  C81      1.0000 0.83840  0.92420  0.59200  Biso   1.000  C
  C82      1.0000 0.84360  0.96340  0.55360  Biso   1.000  C
  C83      1.0000 0.79860  0.98710  0.52670  Biso   1.000  C
  C84      1.0000 0.83150  0.02510  0.50420  Biso   1.000  C
  C85      1.0000 0.80390  0.05850  0.46240  Biso   1.000  C
  C86      1.0000 0.76160  0.02350  0.65130  Biso   1.000  C
  C87      1.0000 0.71400  0.98270  0.57410  Biso   1.000  C
  C88      1.0000 0.72850  0.96870  0.52120  Biso   1.000  C
  C89      1.0000 0.66610  0.92920  0.46150  Biso   1.000  C
  C90      1.0000 0.64890  0.89720  0.38830  Biso   1.000  C
  C91      1.0000 0.66780  0.57580  0.41420  Biso   1.000  C
  C92      1.0000 0.59020  0.53660  0.38020  Biso   1.000  C
  C93      1.0000 0.53960  0.51290  0.31150  Biso   1.000  C
  C94      1.0000 0.47910  0.47490  0.30640  Biso   1.000  C
  C95      1.0000 0.40390  0.44150  0.24540  Biso   1.000  C
  C96      1.0000 0.62780  0.47650  0.23810  Biso   1.000  C
  C97      1.0000 0.59140  0.51730  0.23130  Biso   1.000  C
  C98      1.0000 0.55250  0.53130  0.25980  Biso   1.000  C
  C99      1.0000 0.53230  0.57080  0.23690  Biso   1.000  C
  C100     1.0000 0.49110  0.60280  0.25170  Biso   1.000  C
  C101     1.0000 0.66160  0.25360  0.08580  Biso   1.000  C
  C102     1.0000 0.65640  0.21000  0.11980  Biso   1.000  C
  C103     1.0000 0.70140  0.22810  0.18850  Biso   1.000  C
  C104     1.0000 0.66850  0.17270  0.19360  Biso   1.000  C
  C105     1.0000 0.69610  0.15850  0.25460  Biso   1.000  C
  C106     1.0000 0.73840  0.38970  0.26190  Biso   1.000  C
  C107     1.0000 0.78600  0.36010  0.26870  Biso   1.000  C
  C108     1.0000 0.77150  0.29270  0.24020  Biso   1.000  C
  C109     1.0000 0.83390  0.29540  0.26310  Biso   1.000  C
  C110     1.0000 0.85110  0.23940  0.24830  Biso   1.000  C
  C111     1.0000 0.83220  0.24640  0.90800  Biso   1.000  C
  C112     1.0000 0.90980  0.29000  0.94640  Biso   1.000  C
  C113     1.0000 0.96040  0.27190  0.97330  Biso   1.000  C
  C114     1.0000 0.02090  0.32730  0.99580  Biso   1.000  C
  C115     1.0000 0.09610  0.34150  0.03760  Biso   1.000  C
  C116     1.0000 0.87220  0.11030  0.84870  Biso   1.000  C
  C117     1.0000 0.90860  0.13990  0.92590  Biso   1.000  C
  C118     1.0000 0.94750  0.20730  0.97880  Biso   1.000  C
  C119     1.0000 0.96770  0.20460  0.03850  Biso   1.000  C
  C120     1.0000 0.00890  0.26060  0.11170  Biso   1.000  C
  N1       1.0000 0.91160  0.55750  0.01190  Biso   1.000  N
  N2       1.0000 0.86590  0.48650  0.97480  Biso   1.000  N
  N3       1.0000 0.69410  0.59640  0.05010  Biso   1.000  N
  N4       1.0000 0.69760  0.55790  0.08290  Biso   1.000  N
  N5       1.0000 0.04560  0.89970  0.48810  Biso   1.000  N
  N6       1.0000 0.01170  0.89110  0.52520  Biso   1.000  N
  N7       1.0000 0.04630  0.64400  0.44990  Biso   1.000  N
  N8       1.0000 0.97500  0.61470  0.41710  Biso   1.000  N
  N9       1.0000 0.45440  0.94250  0.85410  Biso   1.000  N
  N10      1.0000 0.48830  0.01350  0.87940  Biso   1.000  N
  N11      1.0000 0.45370  0.90360  0.59770  Biso   1.000  N
  N12      1.0000 0.52500  0.94210  0.63970  Biso   1.000  N
  N13      1.0000 0.58840  0.60030  0.64590  Biso   1.000  N
  N14      1.0000 0.63410  0.60890  0.62060  Biso   1.000  N
  N15      1.0000 0.80590  0.85600  0.90230  Biso   1.000  N
  N16      1.0000 0.80240  0.88530  0.86030  Biso   1.000  N
  N17      1.0000 0.35410  0.45440  0.44250  Biso   1.000  N
  N18      1.0000 0.37940  0.48830  0.51350  Biso   1.000  N
  N19      1.0000 0.09770  0.45370  0.40360  Biso   1.000  N
  N20      1.0000 0.13970  0.52500  0.44210  Biso   1.000  N
  N21      1.0000 0.14590  0.58840  0.10030  Biso   1.000  N
  N22      1.0000 0.12060  0.63410  0.10890  Biso   1.000  N
  N23      1.0000 0.40230  0.80590  0.35600  Biso   1.000  N
  N24      1.0000 0.36030  0.80240  0.38530  Biso   1.000  N
  N25      1.0000 0.51190  0.91160  0.05750  Biso   1.000  N
  N26      1.0000 0.47480  0.86590  0.98650  Biso   1.000  N
  N27      1.0000 0.55010  0.69410  0.09640  Biso   1.000  N
  N28      1.0000 0.58290  0.69760  0.05790  Biso   1.000  N
  N29      1.0000 0.98810  0.04560  0.39970  Biso   1.000  N
  N30      1.0000 0.02520  0.01170  0.39110  Biso   1.000  N
  N31      1.0000 0.94990  0.04630  0.14400  Biso   1.000  N
  N32      1.0000 0.91710  0.97500  0.11470  Biso   1.000  N
  N33      1.0000 0.89970  0.98810  0.54560  Biso   1.000  N
  N34      1.0000 0.89110  0.02520  0.51170  Biso   1.000  N
  N35      1.0000 0.64400  0.94990  0.54630  Biso   1.000  N
  N36      1.0000 0.61470  0.91710  0.47500  Biso   1.000  N
  N37      1.0000 0.55750  0.51190  0.41160  Biso   1.000  N
  N38      1.0000 0.48650  0.47480  0.36590  Biso   1.000  N
  N39      1.0000 0.59640  0.55010  0.19410  Biso   1.000  N
  N40      1.0000 0.55790  0.58290  0.19760  Biso   1.000  N
  N41      1.0000 0.60030  0.14590  0.08840  Biso   1.000  N
  N42      1.0000 0.60890  0.12060  0.13410  Biso   1.000  N
  N43      1.0000 0.85600  0.40230  0.30590  Biso   1.000  N
  N44      1.0000 0.88530  0.36030  0.30240  Biso   1.000  N
  N45      1.0000 0.94250  0.35410  0.95440  Biso   1.000  N
  N46      1.0000 0.01350  0.37940  0.98830  Biso   1.000  N
  N47      1.0000 0.90360  0.09770  0.95370  Biso   1.000  N
  N48      1.0000 0.94210  0.13970  0.02500  Biso   1.000  N
  Ag25     1.0000 0.46434  0.54430  0.94826  Biso   1.000  Ag
  Ag26     1.0000 0.08470  0.59309  0.94889  Biso   1.000  Ag
  Ag27     1.0000 0.09604  0.51608  0.55174  Biso   1.000  Ag
  Ag28     1.0000 0.14420  0.13581  0.55111  Biso   1.000  Ag
  Ag29     1.0000 0.03566  0.98392  0.07996  Biso   1.000  Ag
  Ag30     1.0000 0.41530  0.36419  0.50839  Biso   1.000  Ag
  Ag31     1.0000 0.40396  0.95570  0.42004  Biso   1.000  Ag
  Ag32     1.0000 0.35580  0.90691  0.99161  Biso   1.000  Ag
  Ag33     1.0000 0.51608  0.05174  0.59604  Biso   1.000  Ag
  Ag34     1.0000 0.13581  0.05111  0.64420  Biso   1.000  Ag
  Ag35     1.0000 0.54430  0.44826  0.96434  Biso   1.000  Ag
  Ag36     1.0000 0.59309  0.44889  0.58470  Biso   1.000  Ag
  Ag37     1.0000 0.95570  0.92004  0.90396  Biso   1.000  Ag
  Ag38     1.0000 0.90691  0.49161  0.85580  Biso   1.000  Ag
  Ag39     1.0000 0.98392  0.57996  0.53566  Biso   1.000  Ag
  Ag40     1.0000 0.36419  0.00839  0.91530  Biso   1.000  Ag
  Ag41     1.0000 0.92004  0.40396  0.45570  Biso   1.000  Ag
  Ag42     1.0000 0.49161  0.35580  0.40691  Biso   1.000  Ag
  Ag43     1.0000 0.57996  0.03566  0.48392  Biso   1.000  Ag
  Ag44     1.0000 0.00839  0.41530  0.86419  Biso   1.000  Ag
  Ag45     1.0000 0.05174  0.09604  0.01608  Biso   1.000  Ag
  Ag46     1.0000 0.05111  0.14420  0.63581  Biso   1.000  Ag
  Ag47     1.0000 0.44826  0.46434  0.04430  Biso   1.000  Ag
  Ag48     1.0000 0.44889  0.08470  0.09309  Biso   1.000  Ag
  H145     1.0000 0.29140  0.58440  0.90340  Biso   1.000  H
  H146     1.0000 0.37110  0.64140  0.95590  Biso   1.000  H
  H147     1.0000 0.34930  0.57520  0.88790  Biso   1.000  H
  H148     1.0000 0.25770  0.45500  0.04850  Biso   1.000  H
  H149     1.0000 0.30180  0.41790  0.03930  Biso   1.000  H
  H150     1.0000 0.33510  0.48860  0.10850  Biso   1.000  H
  H151     1.0000 0.24400  0.67310  0.05070  Biso   1.000  H
  H152     1.0000 0.30780  0.66210  0.05430  Biso   1.000  H
  H153     1.0000 0.26360  0.66860  0.99160  Biso   1.000  H
  H154     1.0000 0.12100  0.36380  0.91260  Biso   1.000  H
  H155     1.0000 0.12280  0.36670  0.84690  Biso   1.000  H
  H156     1.0000 0.19150  0.38610  0.91080  Biso   1.000  H
  H157     1.0000 0.18100  0.38800  0.59660  Biso   1.000  H
  H158     1.0000 0.18550  0.41520  0.54410  Biso   1.000  H
  H159     1.0000 0.18730  0.46140  0.61210  Biso   1.000  H
  H160     1.0000 0.90650  0.20920  0.45150  Biso   1.000  H
  H161     1.0000 0.87860  0.26250  0.46070  Biso   1.000  H
  H162     1.0000 0.88010  0.22660  0.39150  Biso   1.000  H
  H163     1.0000 0.12240  0.19330  0.44930  Biso   1.000  H
  H164     1.0000 0.10780  0.25350  0.44570  Biso   1.000  H
  H165     1.0000 0.17700  0.27200  0.50840  Biso   1.000  H
  H166     1.0000 0.95120  0.20840  0.58740  Biso   1.000  H
  H167     1.0000 0.01980  0.27590  0.65310  Biso   1.000  H
  H168     1.0000 0.97530  0.28070  0.58920  Biso   1.000  H
  H169     1.0000 0.20860  0.11200  0.29300  Biso   1.000  H
  H170     1.0000 0.12890  0.08480  0.27030  Biso   1.000  H
  H171     1.0000 0.15070  0.03860  0.22590  Biso   1.000  H
  H172     1.0000 0.24230  0.29080  0.19730  Biso   1.000  H
  H173     1.0000 0.19820  0.23750  0.11610  Biso   1.000  H
  H174     1.0000 0.16490  0.27340  0.15350  Biso   1.000  H
  H175     1.0000 0.25600  0.30670  0.42910  Biso   1.000  H
  H176     1.0000 0.19220  0.24650  0.35430  Biso   1.000  H
  H177     1.0000 0.23640  0.22800  0.40500  Biso   1.000  H
  H178     1.0000 0.37900  0.29160  0.24280  Biso   1.000  H
  H179     1.0000 0.37720  0.22410  0.24390  Biso   1.000  H
  H180     1.0000 0.30850  0.21930  0.19460  Biso   1.000  H
  H181     1.0000 0.31900  0.91560  0.20700  Biso   1.000  H
  H182     1.0000 0.31450  0.85860  0.22970  Biso   1.000  H
  H183     1.0000 0.31270  0.92480  0.27410  Biso   1.000  H
  H184     1.0000 0.59350  0.04500  0.30270  Biso   1.000  H
  H185     1.0000 0.62140  0.08210  0.38390  Biso   1.000  H
  H186     1.0000 0.61990  0.01140  0.34650  Biso   1.000  H
  H187     1.0000 0.37760  0.82690  0.07090  Biso   1.000  H
  H188     1.0000 0.39220  0.83790  0.14570  Biso   1.000  H
  H189     1.0000 0.32300  0.83140  0.09500  Biso   1.000  H
  H190     1.0000 0.54880  0.13620  0.25720  Biso   1.000  H
  H191     1.0000 0.48020  0.13330  0.25610  Biso   1.000  H
  H192     1.0000 0.52470  0.11390  0.30540  Biso   1.000  H
  H193     1.0000 0.38800  0.09660  0.68100  Biso   1.000  H
  H194     1.0000 0.41520  0.04410  0.68550  Biso   1.000  H
  H195     1.0000 0.46140  0.11210  0.68730  Biso   1.000  H
  H196     1.0000 0.20920  0.95150  0.40650  Biso   1.000  H
  H197     1.0000 0.26250  0.96070  0.37860  Biso   1.000  H
  H198     1.0000 0.22660  0.89150  0.38010  Biso   1.000  H
  H199     1.0000 0.19330  0.94930  0.62240  Biso   1.000  H
  H200     1.0000 0.25350  0.94570  0.60780  Biso   1.000  H
  H201     1.0000 0.27200  0.00840  0.67700  Biso   1.000  H
  H202     1.0000 0.20840  0.08740  0.45120  Biso   1.000  H
  H203     1.0000 0.27590  0.15310  0.51980  Biso   1.000  H
  H204     1.0000 0.28070  0.08920  0.47530  Biso   1.000  H
  H205     1.0000 0.58440  0.40340  0.79140  Biso   1.000  H
  H206     1.0000 0.64140  0.45590  0.87110  Biso   1.000  H
  H207     1.0000 0.57520  0.38790  0.84930  Biso   1.000  H
  H208     1.0000 0.45500  0.54850  0.75770  Biso   1.000  H
  H209     1.0000 0.41790  0.53930  0.80180  Biso   1.000  H
  H210     1.0000 0.48860  0.60850  0.83510  Biso   1.000  H
  H211     1.0000 0.67310  0.55070  0.74400  Biso   1.000  H
  H212     1.0000 0.66210  0.55430  0.80780  Biso   1.000  H
  H213     1.0000 0.66860  0.49160  0.76360  Biso   1.000  H
  H214     1.0000 0.36380  0.41260  0.62100  Biso   1.000  H
  H215     1.0000 0.36670  0.34690  0.62280  Biso   1.000  H
  H216     1.0000 0.38610  0.41080  0.69150  Biso   1.000  H
  H217     1.0000 0.91560  0.70700  0.81900  Biso   1.000  H
  H218     1.0000 0.85860  0.72970  0.81450  Biso   1.000  H
  H219     1.0000 0.92480  0.77410  0.81270  Biso   1.000  H
  H220     1.0000 0.04500  0.80270  0.09350  Biso   1.000  H
  H221     1.0000 0.08210  0.88390  0.12140  Biso   1.000  H
  H222     1.0000 0.01140  0.84650  0.11990  Biso   1.000  H
  H223     1.0000 0.82690  0.57090  0.87760  Biso   1.000  H
  H224     1.0000 0.83790  0.64570  0.89220  Biso   1.000  H
  H225     1.0000 0.83140  0.59500  0.82300  Biso   1.000  H
  H226     1.0000 0.13620  0.75720  0.04880  Biso   1.000  H
  H227     1.0000 0.13330  0.75610  0.98020  Biso   1.000  H
  H228     1.0000 0.11390  0.80540  0.02470  Biso   1.000  H
  H229     1.0000 0.11200  0.79300  0.70860  Biso   1.000  H
  H230     1.0000 0.08480  0.77030  0.62890  Biso   1.000  H
  H231     1.0000 0.03860  0.72590  0.65070  Biso   1.000  H
  H232     1.0000 0.29080  0.69730  0.74230  Biso   1.000  H
  H233     1.0000 0.23750  0.61610  0.69820  Biso   1.000  H
  H234     1.0000 0.27340  0.65350  0.66490  Biso   1.000  H
  H235     1.0000 0.30670  0.92910  0.75600  Biso   1.000  H
  H236     1.0000 0.24650  0.85430  0.69220  Biso   1.000  H
  H237     1.0000 0.22800  0.90500  0.73640  Biso   1.000  H
  H238     1.0000 0.29160  0.74280  0.87900  Biso   1.000  H
  H239     1.0000 0.22410  0.74390  0.87720  Biso   1.000  H
  H240     1.0000 0.21930  0.69460  0.80850  Biso   1.000  H
  H241     1.0000 0.70700  0.31900  0.41560  Biso   1.000  H
  H242     1.0000 0.72970  0.31450  0.35860  Biso   1.000  H
  H243     1.0000 0.77410  0.31270  0.42480  Biso   1.000  H
  H244     1.0000 0.80270  0.59350  0.54500  Biso   1.000  H
  H245     1.0000 0.88390  0.62140  0.58210  Biso   1.000  H
  H246     1.0000 0.84650  0.61990  0.51140  Biso   1.000  H
  H247     1.0000 0.57090  0.37760  0.32690  Biso   1.000  H
  H248     1.0000 0.64570  0.39220  0.33790  Biso   1.000  H
  H249     1.0000 0.59500  0.32300  0.33140  Biso   1.000  H
  H250     1.0000 0.75720  0.54880  0.63620  Biso   1.000  H
  H251     1.0000 0.75610  0.48020  0.63330  Biso   1.000  H
  H252     1.0000 0.80540  0.52470  0.61390  Biso   1.000  H
  H253     1.0000 0.79300  0.20860  0.61200  Biso   1.000  H
  H254     1.0000 0.77030  0.12890  0.58480  Biso   1.000  H
  H255     1.0000 0.72590  0.15070  0.53860  Biso   1.000  H
  H256     1.0000 0.69730  0.24230  0.79080  Biso   1.000  H
  H257     1.0000 0.61610  0.19820  0.73750  Biso   1.000  H
  H258     1.0000 0.65350  0.16490  0.77340  Biso   1.000  H
  H259     1.0000 0.92910  0.25600  0.80670  Biso   1.000  H
  H260     1.0000 0.85430  0.19220  0.74650  Biso   1.000  H
  H261     1.0000 0.90500  0.23640  0.72800  Biso   1.000  H
  H262     1.0000 0.74280  0.37900  0.79160  Biso   1.000  H
  H263     1.0000 0.74390  0.37720  0.72410  Biso   1.000  H
  H264     1.0000 0.69460  0.30850  0.71930  Biso   1.000  H
  H265     1.0000 0.09660  0.18100  0.88800  Biso   1.000  H
  H266     1.0000 0.04410  0.18550  0.91520  Biso   1.000  H
  H267     1.0000 0.11210  0.18730  0.96140  Biso   1.000  H
  H268     1.0000 0.95150  0.90650  0.70920  Biso   1.000  H
  H269     1.0000 0.96070  0.87860  0.76250  Biso   1.000  H
  H270     1.0000 0.89150  0.88010  0.72660  Biso   1.000  H
  H271     1.0000 0.94930  0.12240  0.69330  Biso   1.000  H
  H272     1.0000 0.94570  0.10780  0.75350  Biso   1.000  H
  H273     1.0000 0.00840  0.17700  0.77200  Biso   1.000  H
  H274     1.0000 0.08740  0.95120  0.70840  Biso   1.000  H
  H275     1.0000 0.15310  0.01980  0.77590  Biso   1.000  H
  H276     1.0000 0.08920  0.97530  0.78070  Biso   1.000  H
  H277     1.0000 0.40340  0.29140  0.08440  Biso   1.000  H
  H278     1.0000 0.45590  0.37110  0.14140  Biso   1.000  H
  H279     1.0000 0.38790  0.34930  0.07520  Biso   1.000  H
  H280     1.0000 0.54850  0.25770  0.95500  Biso   1.000  H
  H281     1.0000 0.53930  0.30180  0.91790  Biso   1.000  H
  H282     1.0000 0.60850  0.33510  0.98860  Biso   1.000  H
  H283     1.0000 0.55070  0.24400  0.17310  Biso   1.000  H
  H284     1.0000 0.55430  0.30780  0.16210  Biso   1.000  H
  H285     1.0000 0.49160  0.26360  0.16860  Biso   1.000  H
  H286     1.0000 0.41260  0.12100  0.86380  Biso   1.000  H
  H287     1.0000 0.34690  0.12280  0.86670  Biso   1.000  H
  H288     1.0000 0.41080  0.19150  0.88610  Biso   1.000  H
  C121     1.0000 0.33840  0.59200  0.92420  Biso   1.000  C
  C122     1.0000 0.34360  0.55360  0.96340  Biso   1.000  C
  C123     1.0000 0.29860  0.52670  0.98710  Biso   1.000  C
  C124     1.0000 0.33150  0.50420  0.02510  Biso   1.000  C
  C125     1.0000 0.30390  0.46240  0.05850  Biso   1.000  C
  C126     1.0000 0.26160  0.65130  0.02350  Biso   1.000  C
  C127     1.0000 0.21400  0.57410  0.98270  Biso   1.000  C
  C128     1.0000 0.22850  0.52120  0.96870  Biso   1.000  C
  C129     1.0000 0.16610  0.46150  0.92920  Biso   1.000  C
  C130     1.0000 0.14890  0.38830  0.89720  Biso   1.000  C
  C131     1.0000 0.16780  0.41420  0.57580  Biso   1.000  C
  C132     1.0000 0.09020  0.38020  0.53660  Biso   1.000  C
  C133     1.0000 0.03960  0.31150  0.51290  Biso   1.000  C
  C134     1.0000 0.97910  0.30640  0.47490  Biso   1.000  C
  C135     1.0000 0.90390  0.24540  0.44150  Biso   1.000  C
  C136     1.0000 0.12780  0.23810  0.47650  Biso   1.000  C
  C137     1.0000 0.09140  0.23130  0.51730  Biso   1.000  C
  C138     1.0000 0.05250  0.25980  0.53130  Biso   1.000  C
  C139     1.0000 0.03230  0.23690  0.57080  Biso   1.000  C
  C140     1.0000 0.99110  0.25170  0.60280  Biso   1.000  C
  C141     1.0000 0.16160  0.08580  0.25360  Biso   1.000  C
  C142     1.0000 0.15640  0.11980  0.21000  Biso   1.000  C
  C143     1.0000 0.20140  0.18850  0.22810  Biso   1.000  C
  C144     1.0000 0.16850  0.19360  0.17270  Biso   1.000  C
  C145     1.0000 0.19610  0.25460  0.15850  Biso   1.000  C
  C146     1.0000 0.23840  0.26190  0.38970  Biso   1.000  C
  C147     1.0000 0.28600  0.26870  0.36010  Biso   1.000  C
  C148     1.0000 0.27150  0.24020  0.29270  Biso   1.000  C
  C149     1.0000 0.33390  0.26310  0.29540  Biso   1.000  C
  C150     1.0000 0.35110  0.24830  0.23940  Biso   1.000  C
  C151     1.0000 0.33220  0.90800  0.24640  Biso   1.000  C
  C152     1.0000 0.40980  0.94640  0.29000  Biso   1.000  C
  C153     1.0000 0.46040  0.97330  0.27190  Biso   1.000  C
  C154     1.0000 0.52090  0.99580  0.32730  Biso   1.000  C
  C155     1.0000 0.59610  0.03760  0.34150  Biso   1.000  C
  C156     1.0000 0.37220  0.84870  0.11030  Biso   1.000  C
  C157     1.0000 0.40860  0.92590  0.13990  Biso   1.000  C
  C158     1.0000 0.44750  0.97880  0.20730  Biso   1.000  C
  C159     1.0000 0.46770  0.03850  0.20460  Biso   1.000  C
  C160     1.0000 0.50890  0.11170  0.26060  Biso   1.000  C
  C161     1.0000 0.41420  0.07580  0.66780  Biso   1.000  C
  C162     1.0000 0.38020  0.03660  0.59020  Biso   1.000  C
  C163     1.0000 0.31150  0.01290  0.53960  Biso   1.000  C
  C164     1.0000 0.30640  0.97490  0.47910  Biso   1.000  C
  C165     1.0000 0.24540  0.94150  0.40390  Biso   1.000  C
  C166     1.0000 0.23810  0.97650  0.62780  Biso   1.000  C
  C167     1.0000 0.23130  0.01730  0.59140  Biso   1.000  C
  C168     1.0000 0.25980  0.03130  0.55250  Biso   1.000  C
  C169     1.0000 0.23690  0.07080  0.53230  Biso   1.000  C
  C170     1.0000 0.25170  0.10280  0.49110  Biso   1.000  C
  C171     1.0000 0.59200  0.42420  0.83840  Biso   1.000  C
  C172     1.0000 0.55360  0.46340  0.84360  Biso   1.000  C
  C173     1.0000 0.52670  0.48710  0.79860  Biso   1.000  C
  C174     1.0000 0.50420  0.52510  0.83150  Biso   1.000  C
  C175     1.0000 0.46240  0.55850  0.80390  Biso   1.000  C
  C176     1.0000 0.65130  0.52350  0.76160  Biso   1.000  C
  C177     1.0000 0.57410  0.48270  0.71400  Biso   1.000  C
  C178     1.0000 0.52120  0.46870  0.72850  Biso   1.000  C
  C179     1.0000 0.46150  0.42920  0.66610  Biso   1.000  C
  C180     1.0000 0.38830  0.39720  0.64890  Biso   1.000  C
  C181     1.0000 0.90800  0.74640  0.83220  Biso   1.000  C
  C182     1.0000 0.94640  0.79000  0.90980  Biso   1.000  C
  C183     1.0000 0.97330  0.77190  0.96040  Biso   1.000  C
  C184     1.0000 0.99580  0.82730  0.02090  Biso   1.000  C
  C185     1.0000 0.03760  0.84150  0.09610  Biso   1.000  C
  C186     1.0000 0.84870  0.61030  0.87220  Biso   1.000  C
  C187     1.0000 0.92590  0.63990  0.90860  Biso   1.000  C
  C188     1.0000 0.97880  0.70730  0.94750  Biso   1.000  C
  C189     1.0000 0.03850  0.70460  0.96770  Biso   1.000  C
  C190     1.0000 0.11170  0.76060  0.00890  Biso   1.000  C
  C191     1.0000 0.08580  0.75360  0.66160  Biso   1.000  C
  C192     1.0000 0.11980  0.71000  0.65640  Biso   1.000  C
  C193     1.0000 0.18850  0.72810  0.70140  Biso   1.000  C
  C194     1.0000 0.19360  0.67270  0.66850  Biso   1.000  C
  C195     1.0000 0.25460  0.65850  0.69610  Biso   1.000  C
  C196     1.0000 0.26190  0.88970  0.73840  Biso   1.000  C
  C197     1.0000 0.26870  0.86010  0.78600  Biso   1.000  C
  C198     1.0000 0.24020  0.79270  0.77150  Biso   1.000  C
  C199     1.0000 0.26310  0.79540  0.83390  Biso   1.000  C
  C200     1.0000 0.24830  0.73940  0.85110  Biso   1.000  C
  C201     1.0000 0.74640  0.33220  0.40800  Biso   1.000  C
  C202     1.0000 0.79000  0.40980  0.44640  Biso   1.000  C
  C203     1.0000 0.77190  0.46040  0.47330  Biso   1.000  C
  C204     1.0000 0.82730  0.52090  0.49580  Biso   1.000  C
  C205     1.0000 0.84150  0.59610  0.53760  Biso   1.000  C
  C206     1.0000 0.61030  0.37220  0.34870  Biso   1.000  C
  C207     1.0000 0.63990  0.40860  0.42590  Biso   1.000  C
  C208     1.0000 0.70730  0.44750  0.47880  Biso   1.000  C
  C209     1.0000 0.70460  0.46770  0.53850  Biso   1.000  C
  C210     1.0000 0.76060  0.50890  0.61170  Biso   1.000  C
  C211     1.0000 0.75360  0.16160  0.58580  Biso   1.000  C
  C212     1.0000 0.71000  0.15640  0.61980  Biso   1.000  C
  C213     1.0000 0.72810  0.20140  0.68850  Biso   1.000  C
  C214     1.0000 0.67270  0.16850  0.69360  Biso   1.000  C
  C215     1.0000 0.65850  0.19610  0.75460  Biso   1.000  C
  C216     1.0000 0.88970  0.23840  0.76190  Biso   1.000  C
  C217     1.0000 0.86010  0.28600  0.76870  Biso   1.000  C
  C218     1.0000 0.79270  0.27150  0.74020  Biso   1.000  C
  C219     1.0000 0.79540  0.33390  0.76310  Biso   1.000  C
  C220     1.0000 0.73940  0.35110  0.74830  Biso   1.000  C
  C221     1.0000 0.07580  0.16780  0.91420  Biso   1.000  C
  C222     1.0000 0.03660  0.09020  0.88020  Biso   1.000  C
  C223     1.0000 0.01290  0.03960  0.81150  Biso   1.000  C
  C224     1.0000 0.97490  0.97910  0.80640  Biso   1.000  C
  C225     1.0000 0.94150  0.90390  0.74540  Biso   1.000  C
  C226     1.0000 0.97650  0.12780  0.73810  Biso   1.000  C
  C227     1.0000 0.01730  0.09140  0.73130  Biso   1.000  C
  C228     1.0000 0.03130  0.05250  0.75980  Biso   1.000  C
  C229     1.0000 0.07080  0.03230  0.73690  Biso   1.000  C
  C230     1.0000 0.10280  0.99110  0.75170  Biso   1.000  C
  C231     1.0000 0.42420  0.33840  0.09200  Biso   1.000  C
  C232     1.0000 0.46340  0.34360  0.05360  Biso   1.000  C
  C233     1.0000 0.48710  0.29860  0.02670  Biso   1.000  C
  C234     1.0000 0.52510  0.33150  0.00420  Biso   1.000  C
  C235     1.0000 0.55850  0.30390  0.96240  Biso   1.000  C
  C236     1.0000 0.52350  0.26160  0.15130  Biso   1.000  C
  C237     1.0000 0.48270  0.21400  0.07410  Biso   1.000  C
  C238     1.0000 0.46870  0.22850  0.02120  Biso   1.000  C
  C239     1.0000 0.42920  0.16610  0.96150  Biso   1.000  C
  C240     1.0000 0.39720  0.14890  0.88830  Biso   1.000  C
  N49      1.0000 0.39970  0.54560  0.98810  Biso   1.000  N
  N50      1.0000 0.39110  0.51170  0.02520  Biso   1.000  N
  N51      1.0000 0.14400  0.54630  0.94990  Biso   1.000  N
  N52      1.0000 0.11470  0.47500  0.91710  Biso   1.000  N
  N53      1.0000 0.05750  0.41160  0.51190  Biso   1.000  N
  N54      1.0000 0.98650  0.36590  0.47480  Biso   1.000  N
  N55      1.0000 0.09640  0.19410  0.55010  Biso   1.000  N
  N56      1.0000 0.05790  0.19760  0.58290  Biso   1.000  N
  N57      1.0000 0.10030  0.08840  0.14590  Biso   1.000  N
  N58      1.0000 0.10890  0.13410  0.12060  Biso   1.000  N
  N59      1.0000 0.35600  0.30590  0.40230  Biso   1.000  N
  N60      1.0000 0.38530  0.30240  0.36030  Biso   1.000  N
  N61      1.0000 0.44250  0.95440  0.35410  Biso   1.000  N
  N62      1.0000 0.51350  0.98830  0.37940  Biso   1.000  N
  N63      1.0000 0.40360  0.95370  0.09770  Biso   1.000  N
  N64      1.0000 0.44210  0.02500  0.13970  Biso   1.000  N
  N65      1.0000 0.41160  0.01190  0.55750  Biso   1.000  N
  N66      1.0000 0.36590  0.97480  0.48650  Biso   1.000  N
  N67      1.0000 0.19410  0.05010  0.59640  Biso   1.000  N
  N68      1.0000 0.19760  0.08290  0.55790  Biso   1.000  N
  N69      1.0000 0.54560  0.48810  0.89970  Biso   1.000  N
  N70      1.0000 0.51170  0.52520  0.89110  Biso   1.000  N
  N71      1.0000 0.54630  0.44990  0.64400  Biso   1.000  N
  N72      1.0000 0.47500  0.41710  0.61470  Biso   1.000  N
  N73      1.0000 0.95440  0.85410  0.94250  Biso   1.000  N
  N74      1.0000 0.98830  0.87940  0.01350  Biso   1.000  N
  N75      1.0000 0.95370  0.59770  0.90360  Biso   1.000  N
  N76      1.0000 0.02500  0.63970  0.94210  Biso   1.000  N
  N77      1.0000 0.08840  0.64590  0.60030  Biso   1.000  N
  N78      1.0000 0.13410  0.62060  0.60890  Biso   1.000  N
  N79      1.0000 0.30590  0.90230  0.85600  Biso   1.000  N
  N80      1.0000 0.30240  0.86030  0.88530  Biso   1.000  N
  N81      1.0000 0.85410  0.44250  0.45440  Biso   1.000  N
  N82      1.0000 0.87940  0.51350  0.48830  Biso   1.000  N
  N83      1.0000 0.59770  0.40360  0.45370  Biso   1.000  N
  N84      1.0000 0.63970  0.44210  0.52500  Biso   1.000  N
  N85      1.0000 0.64590  0.10030  0.58840  Biso   1.000  N
  N86      1.0000 0.62060  0.10890  0.63410  Biso   1.000  N
  N87      1.0000 0.90230  0.35600  0.80590  Biso   1.000  N
  N88      1.0000 0.86030  0.38530  0.80240  Biso   1.000  N
  N89      1.0000 0.01190  0.05750  0.91160  Biso   1.000  N
  N90      1.0000 0.97480  0.98650  0.86590  Biso   1.000  N
  N91      1.0000 0.05010  0.09640  0.69410  Biso   1.000  N
  N92      1.0000 0.08290  0.05790  0.69760  Biso   1.000  N
  N93      1.0000 0.48810  0.39970  0.04560  Biso   1.000  N
  N94      1.0000 0.52520  0.39110  0.01170  Biso   1.000  N
  N95      1.0000 0.44990  0.14400  0.04630  Biso   1.000  N
  N96      1.0000 0.41710  0.11470  0.97500  Biso   1.000  N
