data_image0
_cell_length_a       35.2627
_cell_length_b       35.2627
_cell_length_c       35.2627
_cell_angle_alpha    60
_cell_angle_beta     60
_cell_angle_gamma    60

_symmetry_space_group_name_H-M    P 1
_symmetry_int_tables_number       1

loop_
  _symmetry_equiv_pos_as_xyz
  'x, y, z'

loop_
  _atom_site_label
  _atom_site_occupancy
  _atom_site_fract_x
  _atom_site_fract_y
  _atom_site_fract_z
  _atom_site_thermal_displace_type
  _atom_site_B_iso_or_equiv
  _atom_site_type_symbol
  Ag1      1.0000 0.06907  0.88306  0.31498  Biso   1.000  Ag
  Ag2      1.0000 0.00831  0.81699  0.43491  Biso   1.000  Ag
  Ag3      1.0000 0.38306  0.56907  0.73289  Biso   1.000  Ag
  Ag4      1.0000 0.31699  0.50831  0.73979  Biso   1.000  Ag
  Ag5      1.0000 0.81498  0.73289  0.56907  Biso   1.000  Ag
  Ag6      1.0000 0.93491  0.73979  0.50831  Biso   1.000  Ag
  Ag7      1.0000 0.23289  0.31498  0.88306  Biso   1.000  Ag
  Ag8      1.0000 0.23979  0.43491  0.81699  Biso   1.000  Ag
  Ag9      1.0000 0.06907  0.31498  0.73289  Biso   1.000  Ag
  Ag10     1.0000 0.00831  0.43491  0.73979  Biso   1.000  Ag
  Ag11     1.0000 0.38306  0.73289  0.31498  Biso   1.000  Ag
  Ag12     1.0000 0.31699  0.73979  0.43491  Biso   1.000  Ag
  Ag13     1.0000 0.81498  0.56907  0.88306  Biso   1.000  Ag
  Ag14     1.0000 0.93491  0.50831  0.81699  Biso   1.000  Ag
  Ag15     1.0000 0.23289  0.88306  0.56907  Biso   1.000  Ag
  Ag16     1.0000 0.23979  0.81699  0.50831  Biso   1.000  Ag
  Ag17     1.0000 0.06907  0.73289  0.88306  Biso   1.000  Ag
  Ag18     1.0000 0.00831  0.73979  0.81699  Biso   1.000  Ag
  Ag19     1.0000 0.38306  0.31498  0.56907  Biso   1.000  Ag
  Ag20     1.0000 0.31699  0.43491  0.50831  Biso   1.000  Ag
  Ag21     1.0000 0.81498  0.88306  0.73289  Biso   1.000  Ag
  Ag22     1.0000 0.93491  0.81699  0.73979  Biso   1.000  Ag
  Ag23     1.0000 0.23289  0.56907  0.31498  Biso   1.000  Ag
  Ag24     1.0000 0.23979  0.50831  0.43491  Biso   1.000  Ag
  Ag25     1.0000 0.11694  0.93093  0.18502  Biso   1.000  Ag
  Ag26     1.0000 0.18301  0.99169  0.06509  Biso   1.000  Ag
  Ag27     1.0000 0.43093  0.61694  0.76711  Biso   1.000  Ag
  Ag28     1.0000 0.49169  0.68301  0.76021  Biso   1.000  Ag
  Ag29     1.0000 0.26711  0.18502  0.93093  Biso   1.000  Ag
  Ag30     1.0000 0.26021  0.06509  0.99169  Biso   1.000  Ag
  Ag31     1.0000 0.68502  0.76711  0.61694  Biso   1.000  Ag
  Ag32     1.0000 0.56509  0.76021  0.68301  Biso   1.000  Ag
  Ag33     1.0000 0.68502  0.93093  0.76711  Biso   1.000  Ag
  Ag34     1.0000 0.56509  0.99169  0.76021  Biso   1.000  Ag
  Ag35     1.0000 0.26711  0.61694  0.18502  Biso   1.000  Ag
  Ag36     1.0000 0.26021  0.68301  0.06509  Biso   1.000  Ag
  Ag37     1.0000 0.43093  0.18502  0.61694  Biso   1.000  Ag
  Ag38     1.0000 0.49169  0.06509  0.68301  Biso   1.000  Ag
  Ag39     1.0000 0.11694  0.76711  0.93093  Biso   1.000  Ag
  Ag40     1.0000 0.18301  0.76021  0.99169  Biso   1.000  Ag
  Ag41     1.0000 0.26711  0.93093  0.61694  Biso   1.000  Ag
  Ag42     1.0000 0.26021  0.99169  0.68301  Biso   1.000  Ag
  Ag43     1.0000 0.68502  0.61694  0.93093  Biso   1.000  Ag
  Ag44     1.0000 0.56509  0.68301  0.99169  Biso   1.000  Ag
  Ag45     1.0000 0.11694  0.18502  0.76711  Biso   1.000  Ag
  Ag46     1.0000 0.18301  0.06509  0.76021  Biso   1.000  Ag
  Ag47     1.0000 0.43093  0.76711  0.18502  Biso   1.000  Ag
  Ag48     1.0000 0.49169  0.76021  0.06509  Biso   1.000  Ag
  Ag49     1.0000 0.93093  0.11694  0.68502  Biso   1.000  Ag
  Ag50     1.0000 0.99169  0.18301  0.56509  Biso   1.000  Ag
  Ag51     1.0000 0.61694  0.43093  0.26711  Biso   1.000  Ag
  Ag52     1.0000 0.68301  0.49169  0.26021  Biso   1.000  Ag
  Ag53     1.0000 0.18502  0.26711  0.43093  Biso   1.000  Ag
  Ag54     1.0000 0.06509  0.26021  0.49169  Biso   1.000  Ag
  Ag55     1.0000 0.76711  0.68502  0.11694  Biso   1.000  Ag
  Ag56     1.0000 0.76021  0.56509  0.18301  Biso   1.000  Ag
  Ag57     1.0000 0.93093  0.68502  0.26711  Biso   1.000  Ag
  Ag58     1.0000 0.99169  0.56509  0.26021  Biso   1.000  Ag
  Ag59     1.0000 0.61694  0.26711  0.68502  Biso   1.000  Ag
  Ag60     1.0000 0.68301  0.26021  0.56509  Biso   1.000  Ag
  Ag61     1.0000 0.18502  0.43093  0.11694  Biso   1.000  Ag
  Ag62     1.0000 0.06509  0.49169  0.18301  Biso   1.000  Ag
  Ag63     1.0000 0.76711  0.11694  0.43093  Biso   1.000  Ag
  Ag64     1.0000 0.76021  0.18301  0.49169  Biso   1.000  Ag
  Ag65     1.0000 0.93093  0.26711  0.11694  Biso   1.000  Ag
  Ag66     1.0000 0.99169  0.26021  0.18301  Biso   1.000  Ag
  Ag67     1.0000 0.61694  0.68502  0.43093  Biso   1.000  Ag
  Ag68     1.0000 0.68301  0.56509  0.49169  Biso   1.000  Ag
  Ag69     1.0000 0.18502  0.11694  0.26711  Biso   1.000  Ag
  Ag70     1.0000 0.06509  0.18301  0.26021  Biso   1.000  Ag
  Ag71     1.0000 0.76711  0.43093  0.68502  Biso   1.000  Ag
  Ag72     1.0000 0.76021  0.49169  0.56509  Biso   1.000  Ag
  Ag73     1.0000 0.88306  0.06907  0.81498  Biso   1.000  Ag
  Ag74     1.0000 0.81699  0.00831  0.93491  Biso   1.000  Ag
  Ag75     1.0000 0.56907  0.38306  0.23289  Biso   1.000  Ag
  Ag76     1.0000 0.50831  0.31699  0.23979  Biso   1.000  Ag
  Ag77     1.0000 0.73289  0.81498  0.06907  Biso   1.000  Ag
  Ag78     1.0000 0.73979  0.93491  0.00831  Biso   1.000  Ag
  Ag79     1.0000 0.31498  0.23289  0.38306  Biso   1.000  Ag
  Ag80     1.0000 0.43491  0.23979  0.31699  Biso   1.000  Ag
  Ag81     1.0000 0.31498  0.06907  0.23289  Biso   1.000  Ag
  Ag82     1.0000 0.43491  0.00831  0.23979  Biso   1.000  Ag
  Ag83     1.0000 0.73289  0.38306  0.81498  Biso   1.000  Ag
  Ag84     1.0000 0.73979  0.31699  0.93491  Biso   1.000  Ag
  Ag85     1.0000 0.56907  0.81498  0.38306  Biso   1.000  Ag
  Ag86     1.0000 0.50831  0.93491  0.31699  Biso   1.000  Ag
  Ag87     1.0000 0.88306  0.23289  0.06907  Biso   1.000  Ag
  Ag88     1.0000 0.81699  0.23979  0.00831  Biso   1.000  Ag
  Ag89     1.0000 0.73289  0.06907  0.38306  Biso   1.000  Ag
  Ag90     1.0000 0.73979  0.00831  0.31699  Biso   1.000  Ag
  Ag91     1.0000 0.31498  0.38306  0.06907  Biso   1.000  Ag
  Ag92     1.0000 0.43491  0.31699  0.00831  Biso   1.000  Ag
  Ag93     1.0000 0.88306  0.81498  0.23289  Biso   1.000  Ag
  Ag94     1.0000 0.81699  0.93491  0.23979  Biso   1.000  Ag
  Ag95     1.0000 0.56907  0.23289  0.81498  Biso   1.000  Ag
  Ag96     1.0000 0.50831  0.23979  0.93491  Biso   1.000  Ag
  H1       1.0000 0.15760  0.86420  0.34320  Biso   1.000  H
  H2       1.0000 0.10300  0.78800  0.47140  Biso   1.000  H
  H3       1.0000 0.96160  0.98300  0.32080  Biso   1.000  H
  H4       1.0000 0.90230  0.90430  0.44390  Biso   1.000  H
  H5       1.0000 0.15050  0.85730  0.46170  Biso   1.000  H
  H6       1.0000 0.23440  0.77040  0.39240  Biso   1.000  H
  H7       1.0000 0.87490  0.02310  0.42330  Biso   1.000  H
  H8       1.0000 0.84480  0.98940  0.35200  Biso   1.000  H
  H9       1.0000 0.36420  0.65760  0.63500  Biso   1.000  H
  H10      1.0000 0.28800  0.60300  0.63760  Biso   1.000  H
  H11      1.0000 0.48300  0.46160  0.73460  Biso   1.000  H
  H12      1.0000 0.40430  0.40230  0.74950  Biso   1.000  H
  H13      1.0000 0.35730  0.65050  0.53050  Biso   1.000  H
  H14      1.0000 0.27040  0.73440  0.60280  Biso   1.000  H
  H15      1.0000 0.52310  0.37490  0.67870  Biso   1.000  H
  H16      1.0000 0.48940  0.34480  0.81380  Biso   1.000  H
  H17      1.0000 0.84320  0.63500  0.65760  Biso   1.000  H
  H18      1.0000 0.97140  0.63760  0.60300  Biso   1.000  H
  H19      1.0000 0.82080  0.73460  0.46160  Biso   1.000  H
  H20      1.0000 0.94390  0.74950  0.40230  Biso   1.000  H
  H21      1.0000 0.96170  0.53050  0.65050  Biso   1.000  H
  H22      1.0000 0.89240  0.60280  0.73440  Biso   1.000  H
  H23      1.0000 0.92330  0.67870  0.37490  Biso   1.000  H
  H24      1.0000 0.85200  0.81380  0.34480  Biso   1.000  H
  H25      1.0000 0.13500  0.34320  0.86420  Biso   1.000  H
  H26      1.0000 0.13760  0.47140  0.78800  Biso   1.000  H
  H27      1.0000 0.23460  0.32080  0.98300  Biso   1.000  H
  H28      1.0000 0.24950  0.44390  0.90430  Biso   1.000  H
  H29      1.0000 0.03050  0.46170  0.85730  Biso   1.000  H
  H30      1.0000 0.10280  0.39240  0.77040  Biso   1.000  H
  H31      1.0000 0.17870  0.42330  0.02310  Biso   1.000  H
  H32      1.0000 0.31380  0.35200  0.98940  Biso   1.000  H
  H33      1.0000 0.15760  0.34320  0.63500  Biso   1.000  H
  H34      1.0000 0.10300  0.47140  0.63760  Biso   1.000  H
  H35      1.0000 0.96160  0.32080  0.73460  Biso   1.000  H
  H36      1.0000 0.90230  0.44390  0.74950  Biso   1.000  H
  H37      1.0000 0.15050  0.46170  0.53050  Biso   1.000  H
  H38      1.0000 0.23440  0.39240  0.60280  Biso   1.000  H
  H39      1.0000 0.87490  0.42330  0.67870  Biso   1.000  H
  H40      1.0000 0.84480  0.35200  0.81380  Biso   1.000  H
  H41      1.0000 0.36420  0.63500  0.34320  Biso   1.000  H
  H42      1.0000 0.28800  0.63760  0.47140  Biso   1.000  H
  H43      1.0000 0.48300  0.73460  0.32080  Biso   1.000  H
  H44      1.0000 0.40430  0.74950  0.44390  Biso   1.000  H
  H45      1.0000 0.35730  0.53050  0.46170  Biso   1.000  H
  H46      1.0000 0.27040  0.60280  0.39240  Biso   1.000  H
  H47      1.0000 0.52310  0.67870  0.42330  Biso   1.000  H
  H48      1.0000 0.48940  0.81380  0.35200  Biso   1.000  H
  H49      1.0000 0.84320  0.65760  0.86420  Biso   1.000  H
  H50      1.0000 0.97140  0.60300  0.78800  Biso   1.000  H
  H51      1.0000 0.82080  0.46160  0.98300  Biso   1.000  H
  H52      1.0000 0.94390  0.40230  0.90430  Biso   1.000  H
  H53      1.0000 0.96170  0.65050  0.85730  Biso   1.000  H
  H54      1.0000 0.89240  0.73440  0.77040  Biso   1.000  H
  H55      1.0000 0.92330  0.37490  0.02310  Biso   1.000  H
  H56      1.0000 0.85200  0.34480  0.98940  Biso   1.000  H
  H57      1.0000 0.13500  0.86420  0.65760  Biso   1.000  H
  H58      1.0000 0.13760  0.78800  0.60300  Biso   1.000  H
  H59      1.0000 0.23460  0.98300  0.46160  Biso   1.000  H
  H60      1.0000 0.24950  0.90430  0.40230  Biso   1.000  H
  H61      1.0000 0.03050  0.85730  0.65050  Biso   1.000  H
  H62      1.0000 0.10280  0.77040  0.73440  Biso   1.000  H
  H63      1.0000 0.17870  0.02310  0.37490  Biso   1.000  H
  H64      1.0000 0.31380  0.98940  0.34480  Biso   1.000  H
  H65      1.0000 0.15760  0.63500  0.86420  Biso   1.000  H
  H66      1.0000 0.10300  0.63760  0.78800  Biso   1.000  H
  H67      1.0000 0.96160  0.73460  0.98300  Biso   1.000  H
  H68      1.0000 0.90230  0.74950  0.90430  Biso   1.000  H
  H69      1.0000 0.15050  0.53050  0.85730  Biso   1.000  H
  H70      1.0000 0.23440  0.60280  0.77040  Biso   1.000  H
  H71      1.0000 0.87490  0.67870  0.02310  Biso   1.000  H
  H72      1.0000 0.84480  0.81380  0.98940  Biso   1.000  H
  H73      1.0000 0.36420  0.34320  0.65760  Biso   1.000  H
  H74      1.0000 0.28800  0.47140  0.60300  Biso   1.000  H
  H75      1.0000 0.48300  0.32080  0.46160  Biso   1.000  H
  H76      1.0000 0.40430  0.44390  0.40230  Biso   1.000  H
  H77      1.0000 0.35730  0.46170  0.65050  Biso   1.000  H
  H78      1.0000 0.27040  0.39240  0.73440  Biso   1.000  H
  H79      1.0000 0.52310  0.42330  0.37490  Biso   1.000  H
  H80      1.0000 0.48940  0.35200  0.34480  Biso   1.000  H
  H81      1.0000 0.84320  0.86420  0.63500  Biso   1.000  H
  H82      1.0000 0.97140  0.78800  0.63760  Biso   1.000  H
  H83      1.0000 0.82080  0.98300  0.73460  Biso   1.000  H
  H84      1.0000 0.94390  0.90430  0.74950  Biso   1.000  H
  H85      1.0000 0.96170  0.85730  0.53050  Biso   1.000  H
  H86      1.0000 0.89240  0.77040  0.60280  Biso   1.000  H
  H87      1.0000 0.92330  0.02310  0.67870  Biso   1.000  H
  H88      1.0000 0.85200  0.98940  0.81380  Biso   1.000  H
  H89      1.0000 0.13500  0.65760  0.34320  Biso   1.000  H
  H90      1.0000 0.13760  0.60300  0.47140  Biso   1.000  H
  H91      1.0000 0.23460  0.46160  0.32080  Biso   1.000  H
  H92      1.0000 0.24950  0.40230  0.44390  Biso   1.000  H
  H93      1.0000 0.03050  0.65050  0.46170  Biso   1.000  H
  H94      1.0000 0.10280  0.73440  0.39240  Biso   1.000  H
  H95      1.0000 0.17870  0.37490  0.42330  Biso   1.000  H
  H96      1.0000 0.31380  0.34480  0.35200  Biso   1.000  H
  H97      1.0000 0.13580  0.84240  0.15680  Biso   1.000  H
  H98      1.0000 0.21200  0.89700  0.02860  Biso   1.000  H
  H99      1.0000 0.01700  0.03840  0.17920  Biso   1.000  H
  H100     1.0000 0.09570  0.09770  0.05610  Biso   1.000  H
  H101     1.0000 0.14270  0.84950  0.03830  Biso   1.000  H
  H102     1.0000 0.22960  0.76560  0.10760  Biso   1.000  H
  H103     1.0000 0.97690  0.12510  0.07670  Biso   1.000  H
  H104     1.0000 0.01060  0.15520  0.14800  Biso   1.000  H
  H105     1.0000 0.34240  0.63580  0.86500  Biso   1.000  H
  H106     1.0000 0.39700  0.71200  0.86240  Biso   1.000  H
  H107     1.0000 0.53840  0.51700  0.76540  Biso   1.000  H
  H108     1.0000 0.59770  0.59570  0.75050  Biso   1.000  H
  H109     1.0000 0.34950  0.64270  0.96950  Biso   1.000  H
  H110     1.0000 0.26560  0.72960  0.89720  Biso   1.000  H
  H111     1.0000 0.62510  0.47690  0.82130  Biso   1.000  H
  H112     1.0000 0.65520  0.51060  0.68620  Biso   1.000  H
  H113     1.0000 0.36500  0.15680  0.84240  Biso   1.000  H
  H114     1.0000 0.36240  0.02860  0.89700  Biso   1.000  H
  H115     1.0000 0.26540  0.17920  0.03840  Biso   1.000  H
  H116     1.0000 0.25050  0.05610  0.09770  Biso   1.000  H
  H117     1.0000 0.46950  0.03830  0.84950  Biso   1.000  H
  H118     1.0000 0.39720  0.10760  0.76560  Biso   1.000  H
  H119     1.0000 0.32130  0.07670  0.12510  Biso   1.000  H
  H120     1.0000 0.18620  0.14800  0.15520  Biso   1.000  H
  H121     1.0000 0.65680  0.86500  0.63580  Biso   1.000  H
  H122     1.0000 0.52860  0.86240  0.71200  Biso   1.000  H
  H123     1.0000 0.67920  0.76540  0.51700  Biso   1.000  H
  H124     1.0000 0.55610  0.75050  0.59570  Biso   1.000  H
  H125     1.0000 0.53830  0.96950  0.64270  Biso   1.000  H
  H126     1.0000 0.60760  0.89720  0.72960  Biso   1.000  H
  H127     1.0000 0.57670  0.82130  0.47690  Biso   1.000  H
  H128     1.0000 0.64800  0.68620  0.51060  Biso   1.000  H
  H129     1.0000 0.65680  0.84240  0.86500  Biso   1.000  H
  H130     1.0000 0.52860  0.89700  0.86240  Biso   1.000  H
  H131     1.0000 0.67920  0.03840  0.76540  Biso   1.000  H
  H132     1.0000 0.55610  0.09770  0.75050  Biso   1.000  H
  H133     1.0000 0.53830  0.84950  0.96950  Biso   1.000  H
  H134     1.0000 0.60760  0.76560  0.89720  Biso   1.000  H
  H135     1.0000 0.57670  0.12510  0.82130  Biso   1.000  H
  H136     1.0000 0.64800  0.15520  0.68620  Biso   1.000  H
  H137     1.0000 0.36500  0.63580  0.15680  Biso   1.000  H
  H138     1.0000 0.36240  0.71200  0.02860  Biso   1.000  H
  H139     1.0000 0.26540  0.51700  0.17920  Biso   1.000  H
  H140     1.0000 0.25050  0.59570  0.05610  Biso   1.000  H
  H141     1.0000 0.46950  0.64270  0.03830  Biso   1.000  H
  H142     1.0000 0.39720  0.72960  0.10760  Biso   1.000  H
  H143     1.0000 0.32130  0.47690  0.07670  Biso   1.000  H
  H144     1.0000 0.18620  0.51060  0.14800  Biso   1.000  H
  H145     1.0000 0.34240  0.15680  0.63580  Biso   1.000  H
  H146     1.0000 0.39700  0.02860  0.71200  Biso   1.000  H
  H147     1.0000 0.53840  0.17920  0.51700  Biso   1.000  H
  H148     1.0000 0.59770  0.05610  0.59570  Biso   1.000  H
  H149     1.0000 0.34950  0.03830  0.64270  Biso   1.000  H
  H150     1.0000 0.26560  0.10760  0.72960  Biso   1.000  H
  H151     1.0000 0.62510  0.07670  0.47690  Biso   1.000  H
  H152     1.0000 0.65520  0.14800  0.51060  Biso   1.000  H
  H153     1.0000 0.13580  0.86500  0.84240  Biso   1.000  H
  H154     1.0000 0.21200  0.86240  0.89700  Biso   1.000  H
  H155     1.0000 0.01700  0.76540  0.03840  Biso   1.000  H
  H156     1.0000 0.09570  0.75050  0.09770  Biso   1.000  H
  H157     1.0000 0.14270  0.96950  0.84950  Biso   1.000  H
  H158     1.0000 0.22960  0.89720  0.76560  Biso   1.000  H
  H159     1.0000 0.97690  0.82130  0.12510  Biso   1.000  H
  H160     1.0000 0.01060  0.68620  0.15520  Biso   1.000  H
  H161     1.0000 0.36500  0.84240  0.63580  Biso   1.000  H
  H162     1.0000 0.36240  0.89700  0.71200  Biso   1.000  H
  H163     1.0000 0.26540  0.03840  0.51700  Biso   1.000  H
  H164     1.0000 0.25050  0.09770  0.59570  Biso   1.000  H
  H165     1.0000 0.46950  0.84950  0.64270  Biso   1.000  H
  H166     1.0000 0.39720  0.76560  0.72960  Biso   1.000  H
  H167     1.0000 0.32130  0.12510  0.47690  Biso   1.000  H
  H168     1.0000 0.18620  0.15520  0.51060  Biso   1.000  H
  H169     1.0000 0.65680  0.63580  0.84240  Biso   1.000  H
  H170     1.0000 0.52860  0.71200  0.89700  Biso   1.000  H
  H171     1.0000 0.67920  0.51700  0.03840  Biso   1.000  H
  H172     1.0000 0.55610  0.59570  0.09770  Biso   1.000  H
  H173     1.0000 0.53830  0.64270  0.84950  Biso   1.000  H
  H174     1.0000 0.60760  0.72960  0.76560  Biso   1.000  H
  H175     1.0000 0.57670  0.47690  0.12510  Biso   1.000  H
  H176     1.0000 0.64800  0.51060  0.15520  Biso   1.000  H
  H177     1.0000 0.13580  0.15680  0.86500  Biso   1.000  H
  H178     1.0000 0.21200  0.02860  0.86240  Biso   1.000  H
  H179     1.0000 0.01700  0.17920  0.76540  Biso   1.000  H
  H180     1.0000 0.09570  0.05610  0.75050  Biso   1.000  H
  H181     1.0000 0.14270  0.03830  0.96950  Biso   1.000  H
  H182     1.0000 0.22960  0.10760  0.89720  Biso   1.000  H
  H183     1.0000 0.97690  0.07670  0.82130  Biso   1.000  H
  H184     1.0000 0.01060  0.14800  0.68620  Biso   1.000  H
  H185     1.0000 0.34240  0.86500  0.15680  Biso   1.000  H
  H186     1.0000 0.39700  0.86240  0.02860  Biso   1.000  H
  H187     1.0000 0.53840  0.76540  0.17920  Biso   1.000  H
  H188     1.0000 0.59770  0.75050  0.05610  Biso   1.000  H
  H189     1.0000 0.34950  0.96950  0.03830  Biso   1.000  H
  H190     1.0000 0.26560  0.89720  0.10760  Biso   1.000  H
  H191     1.0000 0.62510  0.82130  0.07670  Biso   1.000  H
  H192     1.0000 0.65520  0.68620  0.14800  Biso   1.000  H
  H193     1.0000 0.84240  0.13580  0.65680  Biso   1.000  H
  H194     1.0000 0.89700  0.21200  0.52860  Biso   1.000  H
  H195     1.0000 0.03840  0.01700  0.67920  Biso   1.000  H
  H196     1.0000 0.09770  0.09570  0.55610  Biso   1.000  H
  H197     1.0000 0.84950  0.14270  0.53830  Biso   1.000  H
  H198     1.0000 0.76560  0.22960  0.60760  Biso   1.000  H
  H199     1.0000 0.12510  0.97690  0.57670  Biso   1.000  H
  H200     1.0000 0.15520  0.01060  0.64800  Biso   1.000  H
  H201     1.0000 0.63580  0.34240  0.36500  Biso   1.000  H
  H202     1.0000 0.71200  0.39700  0.36240  Biso   1.000  H
  H203     1.0000 0.51700  0.53840  0.26540  Biso   1.000  H
  H204     1.0000 0.59570  0.59770  0.25050  Biso   1.000  H
  H205     1.0000 0.64270  0.34950  0.46950  Biso   1.000  H
  H206     1.0000 0.72960  0.26560  0.39720  Biso   1.000  H
  H207     1.0000 0.47690  0.62510  0.32130  Biso   1.000  H
  H208     1.0000 0.51060  0.65520  0.18620  Biso   1.000  H
  H209     1.0000 0.15680  0.36500  0.34240  Biso   1.000  H
  H210     1.0000 0.02860  0.36240  0.39700  Biso   1.000  H
  H211     1.0000 0.17920  0.26540  0.53840  Biso   1.000  H
  H212     1.0000 0.05610  0.25050  0.59770  Biso   1.000  H
  H213     1.0000 0.03830  0.46950  0.34950  Biso   1.000  H
  H214     1.0000 0.10760  0.39720  0.26560  Biso   1.000  H
  H215     1.0000 0.07670  0.32130  0.62510  Biso   1.000  H
  H216     1.0000 0.14800  0.18620  0.65520  Biso   1.000  H
  H217     1.0000 0.86500  0.65680  0.13580  Biso   1.000  H
  H218     1.0000 0.86240  0.52860  0.21200  Biso   1.000  H
  H219     1.0000 0.76540  0.67920  0.01700  Biso   1.000  H
  H220     1.0000 0.75050  0.55610  0.09570  Biso   1.000  H
  H221     1.0000 0.96950  0.53830  0.14270  Biso   1.000  H
  H222     1.0000 0.89720  0.60760  0.22960  Biso   1.000  H
  H223     1.0000 0.82130  0.57670  0.97690  Biso   1.000  H
  H224     1.0000 0.68620  0.64800  0.01060  Biso   1.000  H
  H225     1.0000 0.84240  0.65680  0.36500  Biso   1.000  H
  H226     1.0000 0.89700  0.52860  0.36240  Biso   1.000  H
  H227     1.0000 0.03840  0.67920  0.26540  Biso   1.000  H
  H228     1.0000 0.09770  0.55610  0.25050  Biso   1.000  H
  H229     1.0000 0.84950  0.53830  0.46950  Biso   1.000  H
  H230     1.0000 0.76560  0.60760  0.39720  Biso   1.000  H
  H231     1.0000 0.12510  0.57670  0.32130  Biso   1.000  H
  H232     1.0000 0.15520  0.64800  0.18620  Biso   1.000  H
  H233     1.0000 0.63580  0.36500  0.65680  Biso   1.000  H
  H234     1.0000 0.71200  0.36240  0.52860  Biso   1.000  H
  H235     1.0000 0.51700  0.26540  0.67920  Biso   1.000  H
  H236     1.0000 0.59570  0.25050  0.55610  Biso   1.000  H
  H237     1.0000 0.64270  0.46950  0.53830  Biso   1.000  H
  H238     1.0000 0.72960  0.39720  0.60760  Biso   1.000  H
  H239     1.0000 0.47690  0.32130  0.57670  Biso   1.000  H
  H240     1.0000 0.51060  0.18620  0.64800  Biso   1.000  H
  H241     1.0000 0.15680  0.34240  0.13580  Biso   1.000  H
  H242     1.0000 0.02860  0.39700  0.21200  Biso   1.000  H
  H243     1.0000 0.17920  0.53840  0.01700  Biso   1.000  H
  H244     1.0000 0.05610  0.59770  0.09570  Biso   1.000  H
  H245     1.0000 0.03830  0.34950  0.14270  Biso   1.000  H
  H246     1.0000 0.10760  0.26560  0.22960  Biso   1.000  H
  H247     1.0000 0.07670  0.62510  0.97690  Biso   1.000  H
  H248     1.0000 0.14800  0.65520  0.01060  Biso   1.000  H
  H249     1.0000 0.86500  0.13580  0.34240  Biso   1.000  H
  H250     1.0000 0.86240  0.21200  0.39700  Biso   1.000  H
  H251     1.0000 0.76540  0.01700  0.53840  Biso   1.000  H
  H252     1.0000 0.75050  0.09570  0.59770  Biso   1.000  H
  H253     1.0000 0.96950  0.14270  0.34950  Biso   1.000  H
  H254     1.0000 0.89720  0.22960  0.26560  Biso   1.000  H
  H255     1.0000 0.82130  0.97690  0.62510  Biso   1.000  H
  H256     1.0000 0.68620  0.01060  0.65520  Biso   1.000  H
  H257     1.0000 0.84240  0.36500  0.13580  Biso   1.000  H
  H258     1.0000 0.89700  0.36240  0.21200  Biso   1.000  H
  H259     1.0000 0.03840  0.26540  0.01700  Biso   1.000  H
  H260     1.0000 0.09770  0.25050  0.09570  Biso   1.000  H
  H261     1.0000 0.84950  0.46950  0.14270  Biso   1.000  H
  H262     1.0000 0.76560  0.39720  0.22960  Biso   1.000  H
  H263     1.0000 0.12510  0.32130  0.97690  Biso   1.000  H
  H264     1.0000 0.15520  0.18620  0.01060  Biso   1.000  H
  H265     1.0000 0.63580  0.65680  0.34240  Biso   1.000  H
  H266     1.0000 0.71200  0.52860  0.39700  Biso   1.000  H
  H267     1.0000 0.51700  0.67920  0.53840  Biso   1.000  H
  H268     1.0000 0.59570  0.55610  0.59770  Biso   1.000  H
  H269     1.0000 0.64270  0.53830  0.34950  Biso   1.000  H
  H270     1.0000 0.72960  0.60760  0.26560  Biso   1.000  H
  H271     1.0000 0.47690  0.57670  0.62510  Biso   1.000  H
  H272     1.0000 0.51060  0.64800  0.65520  Biso   1.000  H
  H273     1.0000 0.15680  0.13580  0.36500  Biso   1.000  H
  H274     1.0000 0.02860  0.21200  0.36240  Biso   1.000  H
  H275     1.0000 0.17920  0.01700  0.26540  Biso   1.000  H
  H276     1.0000 0.05610  0.09570  0.25050  Biso   1.000  H
  H277     1.0000 0.03830  0.14270  0.46950  Biso   1.000  H
  H278     1.0000 0.10760  0.22960  0.39720  Biso   1.000  H
  H279     1.0000 0.07670  0.97690  0.32130  Biso   1.000  H
  H280     1.0000 0.14800  0.01060  0.18620  Biso   1.000  H
  H281     1.0000 0.86500  0.34240  0.65680  Biso   1.000  H
  H282     1.0000 0.86240  0.39700  0.52860  Biso   1.000  H
  H283     1.0000 0.76540  0.53840  0.67920  Biso   1.000  H
  H284     1.0000 0.75050  0.59770  0.55610  Biso   1.000  H
  H285     1.0000 0.96950  0.34950  0.53830  Biso   1.000  H
  H286     1.0000 0.89720  0.26560  0.60760  Biso   1.000  H
  H287     1.0000 0.82130  0.62510  0.57670  Biso   1.000  H
  H288     1.0000 0.68620  0.65520  0.64800  Biso   1.000  H
  H289     1.0000 0.86420  0.15760  0.84320  Biso   1.000  H
  H290     1.0000 0.78800  0.10300  0.97140  Biso   1.000  H
  H291     1.0000 0.98300  0.96160  0.82080  Biso   1.000  H
  H292     1.0000 0.90430  0.90230  0.94390  Biso   1.000  H
  H293     1.0000 0.85730  0.15050  0.96170  Biso   1.000  H
  H294     1.0000 0.77040  0.23440  0.89240  Biso   1.000  H
  H295     1.0000 0.02310  0.87490  0.92330  Biso   1.000  H
  H296     1.0000 0.98940  0.84480  0.85200  Biso   1.000  H
  H297     1.0000 0.65760  0.36420  0.13500  Biso   1.000  H
  H298     1.0000 0.60300  0.28800  0.13760  Biso   1.000  H
  H299     1.0000 0.46160  0.48300  0.23460  Biso   1.000  H
  H300     1.0000 0.40230  0.40430  0.24950  Biso   1.000  H
  H301     1.0000 0.65050  0.35730  0.03050  Biso   1.000  H
  H302     1.0000 0.73440  0.27040  0.10280  Biso   1.000  H
  H303     1.0000 0.37490  0.52310  0.17870  Biso   1.000  H
  H304     1.0000 0.34480  0.48940  0.31380  Biso   1.000  H
  H305     1.0000 0.63500  0.84320  0.15760  Biso   1.000  H
  H306     1.0000 0.63760  0.97140  0.10300  Biso   1.000  H
  H307     1.0000 0.73460  0.82080  0.96160  Biso   1.000  H
  H308     1.0000 0.74950  0.94390  0.90230  Biso   1.000  H
  H309     1.0000 0.53050  0.96170  0.15050  Biso   1.000  H
  H310     1.0000 0.60280  0.89240  0.23440  Biso   1.000  H
  H311     1.0000 0.67870  0.92330  0.87490  Biso   1.000  H
  H312     1.0000 0.81380  0.85200  0.84480  Biso   1.000  H
  H313     1.0000 0.34320  0.13500  0.36420  Biso   1.000  H
  H314     1.0000 0.47140  0.13760  0.28800  Biso   1.000  H
  H315     1.0000 0.32080  0.23460  0.48300  Biso   1.000  H
  H316     1.0000 0.44390  0.24950  0.40430  Biso   1.000  H
  H317     1.0000 0.46170  0.03050  0.35730  Biso   1.000  H
  H318     1.0000 0.39240  0.10280  0.27040  Biso   1.000  H
  H319     1.0000 0.42330  0.17870  0.52310  Biso   1.000  H
  H320     1.0000 0.35200  0.31380  0.48940  Biso   1.000  H
  H321     1.0000 0.34320  0.15760  0.13500  Biso   1.000  H
  H322     1.0000 0.47140  0.10300  0.13760  Biso   1.000  H
  H323     1.0000 0.32080  0.96160  0.23460  Biso   1.000  H
  H324     1.0000 0.44390  0.90230  0.24950  Biso   1.000  H
  H325     1.0000 0.46170  0.15050  0.03050  Biso   1.000  H
  H326     1.0000 0.39240  0.23440  0.10280  Biso   1.000  H
  H327     1.0000 0.42330  0.87490  0.17870  Biso   1.000  H
  H328     1.0000 0.35200  0.84480  0.31380  Biso   1.000  H
  H329     1.0000 0.63500  0.36420  0.84320  Biso   1.000  H
  H330     1.0000 0.63760  0.28800  0.97140  Biso   1.000  H
  H331     1.0000 0.73460  0.48300  0.82080  Biso   1.000  H
  H332     1.0000 0.74950  0.40430  0.94390  Biso   1.000  H
  H333     1.0000 0.53050  0.35730  0.96170  Biso   1.000  H
  H334     1.0000 0.60280  0.27040  0.89240  Biso   1.000  H
  H335     1.0000 0.67870  0.52310  0.92330  Biso   1.000  H
  H336     1.0000 0.81380  0.48940  0.85200  Biso   1.000  H
  H337     1.0000 0.65760  0.84320  0.36420  Biso   1.000  H
  H338     1.0000 0.60300  0.97140  0.28800  Biso   1.000  H
  H339     1.0000 0.46160  0.82080  0.48300  Biso   1.000  H
  H340     1.0000 0.40230  0.94390  0.40430  Biso   1.000  H
  H341     1.0000 0.65050  0.96170  0.35730  Biso   1.000  H
  H342     1.0000 0.73440  0.89240  0.27040  Biso   1.000  H
  H343     1.0000 0.37490  0.92330  0.52310  Biso   1.000  H
  H344     1.0000 0.34480  0.85200  0.48940  Biso   1.000  H
  H345     1.0000 0.86420  0.13500  0.15760  Biso   1.000  H
  H346     1.0000 0.78800  0.13760  0.10300  Biso   1.000  H
  H347     1.0000 0.98300  0.23460  0.96160  Biso   1.000  H
  H348     1.0000 0.90430  0.24950  0.90230  Biso   1.000  H
  H349     1.0000 0.85730  0.03050  0.15050  Biso   1.000  H
  H350     1.0000 0.77040  0.10280  0.23440  Biso   1.000  H
  H351     1.0000 0.02310  0.17870  0.87490  Biso   1.000  H
  H352     1.0000 0.98940  0.31380  0.84480  Biso   1.000  H
  H353     1.0000 0.63500  0.15760  0.36420  Biso   1.000  H
  H354     1.0000 0.63760  0.10300  0.28800  Biso   1.000  H
  H355     1.0000 0.73460  0.96160  0.48300  Biso   1.000  H
  H356     1.0000 0.74950  0.90230  0.40430  Biso   1.000  H
  H357     1.0000 0.53050  0.15050  0.35730  Biso   1.000  H
  H358     1.0000 0.60280  0.23440  0.27040  Biso   1.000  H
  H359     1.0000 0.67870  0.87490  0.52310  Biso   1.000  H
  H360     1.0000 0.81380  0.84480  0.48940  Biso   1.000  H
  H361     1.0000 0.34320  0.36420  0.15760  Biso   1.000  H
  H362     1.0000 0.47140  0.28800  0.10300  Biso   1.000  H
  H363     1.0000 0.32080  0.48300  0.96160  Biso   1.000  H
  H364     1.0000 0.44390  0.40430  0.90230  Biso   1.000  H
  H365     1.0000 0.46170  0.35730  0.15050  Biso   1.000  H
  H366     1.0000 0.39240  0.27040  0.23440  Biso   1.000  H
  H367     1.0000 0.42330  0.52310  0.87490  Biso   1.000  H
  H368     1.0000 0.35200  0.48940  0.84480  Biso   1.000  H
  H369     1.0000 0.86420  0.84320  0.13500  Biso   1.000  H
  H370     1.0000 0.78800  0.97140  0.13760  Biso   1.000  H
  H371     1.0000 0.98300  0.82080  0.23460  Biso   1.000  H
  H372     1.0000 0.90430  0.94390  0.24950  Biso   1.000  H
  H373     1.0000 0.85730  0.96170  0.03050  Biso   1.000  H
  H374     1.0000 0.77040  0.89240  0.10280  Biso   1.000  H
  H375     1.0000 0.02310  0.92330  0.17870  Biso   1.000  H
  H376     1.0000 0.98940  0.85200  0.31380  Biso   1.000  H
  H377     1.0000 0.65760  0.13500  0.84320  Biso   1.000  H
  H378     1.0000 0.60300  0.13760  0.97140  Biso   1.000  H
  H379     1.0000 0.46160  0.23460  0.82080  Biso   1.000  H
  H380     1.0000 0.40230  0.24950  0.94390  Biso   1.000  H
  H381     1.0000 0.65050  0.03050  0.96170  Biso   1.000  H
  H382     1.0000 0.73440  0.10280  0.89240  Biso   1.000  H
  H383     1.0000 0.37490  0.17870  0.92330  Biso   1.000  H
  H384     1.0000 0.34480  0.31380  0.85200  Biso   1.000  H
  C1       1.0000 0.13790  0.84796  0.36978  Biso   1.000  C
  C2       1.0000 0.10782  0.80692  0.43970  Biso   1.000  C
  C3       1.0000 0.95697  0.95731  0.34845  Biso   1.000  C
  C4       1.0000 0.92474  0.91472  0.41516  Biso   1.000  C
  C5       1.0000 0.17731  0.83449  0.44943  Biso   1.000  C
  C6       1.0000 0.22214  0.78794  0.41192  Biso   1.000  C
  C7       1.0000 0.85930  0.02338  0.40764  Biso   1.000  C
  C8       1.0000 0.84262  0.00500  0.36884  Biso   1.000  C
  C9       1.0000 0.34796  0.63790  0.64436  Biso   1.000  C
  C10      1.0000 0.30692  0.60782  0.64556  Biso   1.000  C
  C11      1.0000 0.45731  0.45697  0.73727  Biso   1.000  C
  C12      1.0000 0.41472  0.42474  0.74538  Biso   1.000  C
  C13      1.0000 0.33449  0.67731  0.53877  Biso   1.000  C
  C14      1.0000 0.28794  0.72214  0.57800  Biso   1.000  C
  C15      1.0000 0.52338  0.35930  0.70968  Biso   1.000  C
  C16      1.0000 0.50500  0.34262  0.78354  Biso   1.000  C
  C17      1.0000 0.86978  0.64436  0.63790  Biso   1.000  C
  C18      1.0000 0.93970  0.64556  0.60782  Biso   1.000  C
  C19      1.0000 0.84845  0.73727  0.45697  Biso   1.000  C
  C20      1.0000 0.91516  0.74538  0.42474  Biso   1.000  C
  C21      1.0000 0.94943  0.53877  0.67731  Biso   1.000  C
  C22      1.0000 0.91192  0.57800  0.72214  Biso   1.000  C
  C23      1.0000 0.90764  0.70968  0.35930  Biso   1.000  C
  C24      1.0000 0.86884  0.78354  0.34262  Biso   1.000  C
  C25      1.0000 0.14436  0.36978  0.84796  Biso   1.000  C
  C26      1.0000 0.14556  0.43970  0.80692  Biso   1.000  C
  C27      1.0000 0.23727  0.34845  0.95731  Biso   1.000  C
  C28      1.0000 0.24538  0.41516  0.91472  Biso   1.000  C
  C29      1.0000 0.03877  0.44943  0.83449  Biso   1.000  C
  C30      1.0000 0.07800  0.41192  0.78794  Biso   1.000  C
  C31      1.0000 0.20968  0.40764  0.02338  Biso   1.000  C
  C32      1.0000 0.28354  0.36884  0.00500  Biso   1.000  C
  C33      1.0000 0.13790  0.36978  0.64436  Biso   1.000  C
  C34      1.0000 0.10782  0.43970  0.64556  Biso   1.000  C
  C35      1.0000 0.95697  0.34845  0.73727  Biso   1.000  C
  C36      1.0000 0.92474  0.41516  0.74538  Biso   1.000  C
  C37      1.0000 0.17731  0.44943  0.53877  Biso   1.000  C
  C38      1.0000 0.22214  0.41192  0.57800  Biso   1.000  C
  C39      1.0000 0.85930  0.40764  0.70968  Biso   1.000  C
  C40      1.0000 0.84262  0.36884  0.78354  Biso   1.000  C
  C41      1.0000 0.34796  0.64436  0.36978  Biso   1.000  C
  C42      1.0000 0.30692  0.64556  0.43970  Biso   1.000  C
  C43      1.0000 0.45731  0.73727  0.34845  Biso   1.000  C
  C44      1.0000 0.41472  0.74538  0.41516  Biso   1.000  C
  C45      1.0000 0.33449  0.53877  0.44943  Biso   1.000  C
  C46      1.0000 0.28794  0.57800  0.41192  Biso   1.000  C
  C47      1.0000 0.52338  0.70968  0.40764  Biso   1.000  C
  C48      1.0000 0.50500  0.78354  0.36884  Biso   1.000  C
  C49      1.0000 0.86978  0.63790  0.84796  Biso   1.000  C
  C50      1.0000 0.93970  0.60782  0.80692  Biso   1.000  C
  C51      1.0000 0.84845  0.45697  0.95731  Biso   1.000  C
  C52      1.0000 0.91516  0.42474  0.91472  Biso   1.000  C
  C53      1.0000 0.94943  0.67731  0.83449  Biso   1.000  C
  C54      1.0000 0.91192  0.72214  0.78794  Biso   1.000  C
  C55      1.0000 0.90764  0.35930  0.02338  Biso   1.000  C
  C56      1.0000 0.86884  0.34262  0.00500  Biso   1.000  C
  C57      1.0000 0.14436  0.84796  0.63790  Biso   1.000  C
  C58      1.0000 0.14556  0.80692  0.60782  Biso   1.000  C
  C59      1.0000 0.23727  0.95731  0.45697  Biso   1.000  C
  C60      1.0000 0.24538  0.91472  0.42474  Biso   1.000  C
  C61      1.0000 0.03877  0.83449  0.67731  Biso   1.000  C
  C62      1.0000 0.07800  0.78794  0.72214  Biso   1.000  C
  C63      1.0000 0.20968  0.02338  0.35930  Biso   1.000  C
  C64      1.0000 0.28354  0.00500  0.34262  Biso   1.000  C
  C65      1.0000 0.13790  0.64436  0.84796  Biso   1.000  C
  C66      1.0000 0.10782  0.64556  0.80692  Biso   1.000  C
  C67      1.0000 0.95697  0.73727  0.95731  Biso   1.000  C
  C68      1.0000 0.92474  0.74538  0.91472  Biso   1.000  C
  C69      1.0000 0.17731  0.53877  0.83449  Biso   1.000  C
  C70      1.0000 0.22214  0.57800  0.78794  Biso   1.000  C
  C71      1.0000 0.85930  0.70968  0.02338  Biso   1.000  C
  C72      1.0000 0.84262  0.78354  0.00500  Biso   1.000  C
  C73      1.0000 0.34796  0.36978  0.63790  Biso   1.000  C
  C74      1.0000 0.30692  0.43970  0.60782  Biso   1.000  C
  C75      1.0000 0.45731  0.34845  0.45697  Biso   1.000  C
  C76      1.0000 0.41472  0.41516  0.42474  Biso   1.000  C
  C77      1.0000 0.33449  0.44943  0.67731  Biso   1.000  C
  C78      1.0000 0.28794  0.41192  0.72214  Biso   1.000  C
  C79      1.0000 0.52338  0.40764  0.35930  Biso   1.000  C
  C80      1.0000 0.50500  0.36884  0.34262  Biso   1.000  C
  C81      1.0000 0.86978  0.84796  0.64436  Biso   1.000  C
  C82      1.0000 0.93970  0.80692  0.64556  Biso   1.000  C
  C83      1.0000 0.84845  0.95731  0.73727  Biso   1.000  C
  C84      1.0000 0.91516  0.91472  0.74538  Biso   1.000  C
  C85      1.0000 0.94943  0.83449  0.53877  Biso   1.000  C
  C86      1.0000 0.91192  0.78794  0.57800  Biso   1.000  C
  C87      1.0000 0.90764  0.02338  0.70968  Biso   1.000  C
  C88      1.0000 0.86884  0.00500  0.78354  Biso   1.000  C
  C89      1.0000 0.14436  0.63790  0.36978  Biso   1.000  C
  C90      1.0000 0.14556  0.60782  0.43970  Biso   1.000  C
  C91      1.0000 0.23727  0.45697  0.34845  Biso   1.000  C
  C92      1.0000 0.24538  0.42474  0.41516  Biso   1.000  C
  C93      1.0000 0.03877  0.67731  0.44943  Biso   1.000  C
  C94      1.0000 0.07800  0.72214  0.41192  Biso   1.000  C
  C95      1.0000 0.20968  0.35930  0.40764  Biso   1.000  C
  C96      1.0000 0.28354  0.34262  0.36884  Biso   1.000  C
  C97      1.0000 0.15204  0.86210  0.13022  Biso   1.000  C
  C98      1.0000 0.19308  0.89218  0.06030  Biso   1.000  C
  C99      1.0000 0.04269  0.04303  0.15155  Biso   1.000  C
  C100     1.0000 0.08528  0.07526  0.08484  Biso   1.000  C
  C101     1.0000 0.16551  0.82269  0.05057  Biso   1.000  C
  C102     1.0000 0.21206  0.77786  0.08808  Biso   1.000  C
  C103     1.0000 0.97662  0.14070  0.09236  Biso   1.000  C
  C104     1.0000 0.99500  0.15738  0.13116  Biso   1.000  C
  C105     1.0000 0.36210  0.65204  0.85564  Biso   1.000  C
  C106     1.0000 0.39218  0.69308  0.85444  Biso   1.000  C
  C107     1.0000 0.54303  0.54269  0.76273  Biso   1.000  C
  C108     1.0000 0.57526  0.58528  0.75462  Biso   1.000  C
  C109     1.0000 0.32269  0.66551  0.96123  Biso   1.000  C
  C110     1.0000 0.27786  0.71206  0.92200  Biso   1.000  C
  C111     1.0000 0.64070  0.47662  0.79032  Biso   1.000  C
  C112     1.0000 0.65738  0.49500  0.71646  Biso   1.000  C
  C113     1.0000 0.35564  0.13022  0.86210  Biso   1.000  C
  C114     1.0000 0.35444  0.06030  0.89218  Biso   1.000  C
  C115     1.0000 0.26273  0.15155  0.04303  Biso   1.000  C
  C116     1.0000 0.25462  0.08484  0.07526  Biso   1.000  C
  C117     1.0000 0.46123  0.05057  0.82269  Biso   1.000  C
  C118     1.0000 0.42200  0.08808  0.77786  Biso   1.000  C
  C119     1.0000 0.29032  0.09236  0.14070  Biso   1.000  C
  C120     1.0000 0.21646  0.13116  0.15738  Biso   1.000  C
  C121     1.0000 0.63022  0.85564  0.65204  Biso   1.000  C
  C122     1.0000 0.56030  0.85444  0.69308  Biso   1.000  C
  C123     1.0000 0.65155  0.76273  0.54269  Biso   1.000  C
  C124     1.0000 0.58484  0.75462  0.58528  Biso   1.000  C
  C125     1.0000 0.55057  0.96123  0.66551  Biso   1.000  C
  C126     1.0000 0.58808  0.92200  0.71206  Biso   1.000  C
  C127     1.0000 0.59236  0.79032  0.47662  Biso   1.000  C
  C128     1.0000 0.63116  0.71646  0.49500  Biso   1.000  C
  C129     1.0000 0.63022  0.86210  0.85564  Biso   1.000  C
  C130     1.0000 0.56030  0.89218  0.85444  Biso   1.000  C
  C131     1.0000 0.65155  0.04303  0.76273  Biso   1.000  C
  C132     1.0000 0.58484  0.07526  0.75462  Biso   1.000  C
  C133     1.0000 0.55057  0.82269  0.96123  Biso   1.000  C
  C134     1.0000 0.58808  0.77786  0.92200  Biso   1.000  C
  C135     1.0000 0.59236  0.14070  0.79032  Biso   1.000  C
  C136     1.0000 0.63116  0.15738  0.71646  Biso   1.000  C
  C137     1.0000 0.35564  0.65204  0.13022  Biso   1.000  C
  C138     1.0000 0.35444  0.69308  0.06030  Biso   1.000  C
  C139     1.0000 0.26273  0.54269  0.15155  Biso   1.000  C
  C140     1.0000 0.25462  0.58528  0.08484  Biso   1.000  C
  C141     1.0000 0.46123  0.66551  0.05057  Biso   1.000  C
  C142     1.0000 0.42200  0.71206  0.08808  Biso   1.000  C
  C143     1.0000 0.29032  0.47662  0.09236  Biso   1.000  C
  C144     1.0000 0.21646  0.49500  0.13116  Biso   1.000  C
  C145     1.0000 0.36210  0.13022  0.65204  Biso   1.000  C
  C146     1.0000 0.39218  0.06030  0.69308  Biso   1.000  C
  C147     1.0000 0.54303  0.15155  0.54269  Biso   1.000  C
  C148     1.0000 0.57526  0.08484  0.58528  Biso   1.000  C
  C149     1.0000 0.32269  0.05057  0.66551  Biso   1.000  C
  C150     1.0000 0.27786  0.08808  0.71206  Biso   1.000  C
  C151     1.0000 0.64070  0.09236  0.47662  Biso   1.000  C
  C152     1.0000 0.65738  0.13116  0.49500  Biso   1.000  C
  C153     1.0000 0.15204  0.85564  0.86210  Biso   1.000  C
  C154     1.0000 0.19308  0.85444  0.89218  Biso   1.000  C
  C155     1.0000 0.04269  0.76273  0.04303  Biso   1.000  C
  C156     1.0000 0.08528  0.75462  0.07526  Biso   1.000  C
  C157     1.0000 0.16551  0.96123  0.82269  Biso   1.000  C
  C158     1.0000 0.21206  0.92200  0.77786  Biso   1.000  C
  C159     1.0000 0.97662  0.79032  0.14070  Biso   1.000  C
  C160     1.0000 0.99500  0.71646  0.15738  Biso   1.000  C
  C161     1.0000 0.35564  0.86210  0.65204  Biso   1.000  C
  C162     1.0000 0.35444  0.89218  0.69308  Biso   1.000  C
  C163     1.0000 0.26273  0.04303  0.54269  Biso   1.000  C
  C164     1.0000 0.25462  0.07526  0.58528  Biso   1.000  C
  C165     1.0000 0.46123  0.82269  0.66551  Biso   1.000  C
  C166     1.0000 0.42200  0.77786  0.71206  Biso   1.000  C
  C167     1.0000 0.29032  0.14070  0.47662  Biso   1.000  C
  C168     1.0000 0.21646  0.15738  0.49500  Biso   1.000  C
  C169     1.0000 0.63022  0.65204  0.86210  Biso   1.000  C
  C170     1.0000 0.56030  0.69308  0.89218  Biso   1.000  C
  C171     1.0000 0.65155  0.54269  0.04303  Biso   1.000  C
  C172     1.0000 0.58484  0.58528  0.07526  Biso   1.000  C
  C173     1.0000 0.55057  0.66551  0.82269  Biso   1.000  C
  C174     1.0000 0.58808  0.71206  0.77786  Biso   1.000  C
  C175     1.0000 0.59236  0.47662  0.14070  Biso   1.000  C
  C176     1.0000 0.63116  0.49500  0.15738  Biso   1.000  C
  C177     1.0000 0.15204  0.13022  0.85564  Biso   1.000  C
  C178     1.0000 0.19308  0.06030  0.85444  Biso   1.000  C
  C179     1.0000 0.04269  0.15155  0.76273  Biso   1.000  C
  C180     1.0000 0.08528  0.08484  0.75462  Biso   1.000  C
  C181     1.0000 0.16551  0.05057  0.96123  Biso   1.000  C
  C182     1.0000 0.21206  0.08808  0.92200  Biso   1.000  C
  C183     1.0000 0.97662  0.09236  0.79032  Biso   1.000  C
  C184     1.0000 0.99500  0.13116  0.71646  Biso   1.000  C
  C185     1.0000 0.36210  0.85564  0.13022  Biso   1.000  C
  C186     1.0000 0.39218  0.85444  0.06030  Biso   1.000  C
  C187     1.0000 0.54303  0.76273  0.15155  Biso   1.000  C
  C188     1.0000 0.57526  0.75462  0.08484  Biso   1.000  C
  C189     1.0000 0.32269  0.96123  0.05057  Biso   1.000  C
  C190     1.0000 0.27786  0.92200  0.08808  Biso   1.000  C
  C191     1.0000 0.64070  0.79032  0.09236  Biso   1.000  C
  C192     1.0000 0.65738  0.71646  0.13116  Biso   1.000  C
  C193     1.0000 0.86210  0.15204  0.63022  Biso   1.000  C
  C194     1.0000 0.89218  0.19308  0.56030  Biso   1.000  C
  C195     1.0000 0.04303  0.04269  0.65155  Biso   1.000  C
  C196     1.0000 0.07526  0.08528  0.58484  Biso   1.000  C
  C197     1.0000 0.82269  0.16551  0.55057  Biso   1.000  C
  C198     1.0000 0.77786  0.21206  0.58808  Biso   1.000  C
  C199     1.0000 0.14070  0.97662  0.59236  Biso   1.000  C
  C200     1.0000 0.15738  0.99500  0.63116  Biso   1.000  C
  C201     1.0000 0.65204  0.36210  0.35564  Biso   1.000  C
  C202     1.0000 0.69308  0.39218  0.35444  Biso   1.000  C
  C203     1.0000 0.54269  0.54303  0.26273  Biso   1.000  C
  C204     1.0000 0.58528  0.57526  0.25462  Biso   1.000  C
  C205     1.0000 0.66551  0.32269  0.46123  Biso   1.000  C
  C206     1.0000 0.71206  0.27786  0.42200  Biso   1.000  C
  C207     1.0000 0.47662  0.64070  0.29032  Biso   1.000  C
  C208     1.0000 0.49500  0.65738  0.21646  Biso   1.000  C
  C209     1.0000 0.13022  0.35564  0.36210  Biso   1.000  C
  C210     1.0000 0.06030  0.35444  0.39218  Biso   1.000  C
  C211     1.0000 0.15155  0.26273  0.54303  Biso   1.000  C
  C212     1.0000 0.08484  0.25462  0.57526  Biso   1.000  C
  C213     1.0000 0.05057  0.46123  0.32269  Biso   1.000  C
  C214     1.0000 0.08808  0.42200  0.27786  Biso   1.000  C
  C215     1.0000 0.09236  0.29032  0.64070  Biso   1.000  C
  C216     1.0000 0.13116  0.21646  0.65738  Biso   1.000  C
  C217     1.0000 0.85564  0.63022  0.15204  Biso   1.000  C
  C218     1.0000 0.85444  0.56030  0.19308  Biso   1.000  C
  C219     1.0000 0.76273  0.65155  0.04269  Biso   1.000  C
  C220     1.0000 0.75462  0.58484  0.08528  Biso   1.000  C
  C221     1.0000 0.96123  0.55057  0.16551  Biso   1.000  C
  C222     1.0000 0.92200  0.58808  0.21206  Biso   1.000  C
  C223     1.0000 0.79032  0.59236  0.97662  Biso   1.000  C
  C224     1.0000 0.71646  0.63116  0.99500  Biso   1.000  C
  C225     1.0000 0.86210  0.63022  0.35564  Biso   1.000  C
  C226     1.0000 0.89218  0.56030  0.35444  Biso   1.000  C
  C227     1.0000 0.04303  0.65155  0.26273  Biso   1.000  C
  C228     1.0000 0.07526  0.58484  0.25462  Biso   1.000  C
  C229     1.0000 0.82269  0.55057  0.46123  Biso   1.000  C
  C230     1.0000 0.77786  0.58808  0.42200  Biso   1.000  C
  C231     1.0000 0.14070  0.59236  0.29032  Biso   1.000  C
  C232     1.0000 0.15738  0.63116  0.21646  Biso   1.000  C
  C233     1.0000 0.65204  0.35564  0.63022  Biso   1.000  C
  C234     1.0000 0.69308  0.35444  0.56030  Biso   1.000  C
  C235     1.0000 0.54269  0.26273  0.65155  Biso   1.000  C
  C236     1.0000 0.58528  0.25462  0.58484  Biso   1.000  C
  C237     1.0000 0.66551  0.46123  0.55057  Biso   1.000  C
  C238     1.0000 0.71206  0.42200  0.58808  Biso   1.000  C
  C239     1.0000 0.47662  0.29032  0.59236  Biso   1.000  C
  C240     1.0000 0.49500  0.21646  0.63116  Biso   1.000  C
  C241     1.0000 0.13022  0.36210  0.15204  Biso   1.000  C
  C242     1.0000 0.06030  0.39218  0.19308  Biso   1.000  C
  C243     1.0000 0.15155  0.54303  0.04269  Biso   1.000  C
  C244     1.0000 0.08484  0.57526  0.08528  Biso   1.000  C
  C245     1.0000 0.05057  0.32269  0.16551  Biso   1.000  C
  C246     1.0000 0.08808  0.27786  0.21206  Biso   1.000  C
  C247     1.0000 0.09236  0.64070  0.97662  Biso   1.000  C
  C248     1.0000 0.13116  0.65738  0.99500  Biso   1.000  C
  C249     1.0000 0.85564  0.15204  0.36210  Biso   1.000  C
  C250     1.0000 0.85444  0.19308  0.39218  Biso   1.000  C
  C251     1.0000 0.76273  0.04269  0.54303  Biso   1.000  C
  C252     1.0000 0.75462  0.08528  0.57526  Biso   1.000  C
  C253     1.0000 0.96123  0.16551  0.32269  Biso   1.000  C
  C254     1.0000 0.92200  0.21206  0.27786  Biso   1.000  C
  C255     1.0000 0.79032  0.97662  0.64070  Biso   1.000  C
  C256     1.0000 0.71646  0.99500  0.65738  Biso   1.000  C
  C257     1.0000 0.86210  0.35564  0.15204  Biso   1.000  C
  C258     1.0000 0.89218  0.35444  0.19308  Biso   1.000  C
  C259     1.0000 0.04303  0.26273  0.04269  Biso   1.000  C
  C260     1.0000 0.07526  0.25462  0.08528  Biso   1.000  C
  C261     1.0000 0.82269  0.46123  0.16551  Biso   1.000  C
  C262     1.0000 0.77786  0.42200  0.21206  Biso   1.000  C
  C263     1.0000 0.14070  0.29032  0.97662  Biso   1.000  C
  C264     1.0000 0.15738  0.21646  0.99500  Biso   1.000  C
  C265     1.0000 0.65204  0.63022  0.36210  Biso   1.000  C
  C266     1.0000 0.69308  0.56030  0.39218  Biso   1.000  C
  C267     1.0000 0.54269  0.65155  0.54303  Biso   1.000  C
  C268     1.0000 0.58528  0.58484  0.57526  Biso   1.000  C
  C269     1.0000 0.66551  0.55057  0.32269  Biso   1.000  C
  C270     1.0000 0.71206  0.58808  0.27786  Biso   1.000  C
  C271     1.0000 0.47662  0.59236  0.64070  Biso   1.000  C
  C272     1.0000 0.49500  0.63116  0.65738  Biso   1.000  C
  C273     1.0000 0.13022  0.15204  0.35564  Biso   1.000  C
  C274     1.0000 0.06030  0.19308  0.35444  Biso   1.000  C
  C275     1.0000 0.15155  0.04269  0.26273  Biso   1.000  C
  C276     1.0000 0.08484  0.08528  0.25462  Biso   1.000  C
  C277     1.0000 0.05057  0.16551  0.46123  Biso   1.000  C
  C278     1.0000 0.08808  0.21206  0.42200  Biso   1.000  C
  C279     1.0000 0.09236  0.97662  0.29032  Biso   1.000  C
  C280     1.0000 0.13116  0.99500  0.21646  Biso   1.000  C
  C281     1.0000 0.85564  0.36210  0.63022  Biso   1.000  C
  C282     1.0000 0.85444  0.39218  0.56030  Biso   1.000  C
  C283     1.0000 0.76273  0.54303  0.65155  Biso   1.000  C
  C284     1.0000 0.75462  0.57526  0.58484  Biso   1.000  C
  C285     1.0000 0.96123  0.32269  0.55057  Biso   1.000  C
  C286     1.0000 0.92200  0.27786  0.58808  Biso   1.000  C
  C287     1.0000 0.79032  0.64070  0.59236  Biso   1.000  C
  C288     1.0000 0.71646  0.65738  0.63116  Biso   1.000  C
  C289     1.0000 0.84796  0.13790  0.86978  Biso   1.000  C
  C290     1.0000 0.80692  0.10782  0.93970  Biso   1.000  C
  C291     1.0000 0.95731  0.95697  0.84845  Biso   1.000  C
  C292     1.0000 0.91472  0.92474  0.91516  Biso   1.000  C
  C293     1.0000 0.83449  0.17731  0.94943  Biso   1.000  C
  C294     1.0000 0.78794  0.22214  0.91192  Biso   1.000  C
  C295     1.0000 0.02338  0.85930  0.90764  Biso   1.000  C
  C296     1.0000 0.00500  0.84262  0.86884  Biso   1.000  C
  C297     1.0000 0.63790  0.34796  0.14436  Biso   1.000  C
  C298     1.0000 0.60782  0.30692  0.14556  Biso   1.000  C
  C299     1.0000 0.45697  0.45731  0.23727  Biso   1.000  C
  C300     1.0000 0.42474  0.41472  0.24538  Biso   1.000  C
  C301     1.0000 0.67731  0.33449  0.03877  Biso   1.000  C
  C302     1.0000 0.72214  0.28794  0.07800  Biso   1.000  C
  C303     1.0000 0.35930  0.52338  0.20968  Biso   1.000  C
  C304     1.0000 0.34262  0.50500  0.28354  Biso   1.000  C
  C305     1.0000 0.64436  0.86978  0.13790  Biso   1.000  C
  C306     1.0000 0.64556  0.93970  0.10782  Biso   1.000  C
  C307     1.0000 0.73727  0.84845  0.95697  Biso   1.000  C
  C308     1.0000 0.74538  0.91516  0.92474  Biso   1.000  C
  C309     1.0000 0.53877  0.94943  0.17731  Biso   1.000  C
  C310     1.0000 0.57800  0.91192  0.22214  Biso   1.000  C
  C311     1.0000 0.70968  0.90764  0.85930  Biso   1.000  C
  C312     1.0000 0.78354  0.86884  0.84262  Biso   1.000  C
  C313     1.0000 0.36978  0.14436  0.34796  Biso   1.000  C
  C314     1.0000 0.43970  0.14556  0.30692  Biso   1.000  C
  C315     1.0000 0.34845  0.23727  0.45731  Biso   1.000  C
  C316     1.0000 0.41516  0.24538  0.41472  Biso   1.000  C
  C317     1.0000 0.44943  0.03877  0.33449  Biso   1.000  C
  C318     1.0000 0.41192  0.07800  0.28794  Biso   1.000  C
  C319     1.0000 0.40764  0.20968  0.52338  Biso   1.000  C
  C320     1.0000 0.36884  0.28354  0.50500  Biso   1.000  C
  C321     1.0000 0.36978  0.13790  0.14436  Biso   1.000  C
  C322     1.0000 0.43970  0.10782  0.14556  Biso   1.000  C
  C323     1.0000 0.34845  0.95697  0.23727  Biso   1.000  C
  C324     1.0000 0.41516  0.92474  0.24538  Biso   1.000  C
  C325     1.0000 0.44943  0.17731  0.03877  Biso   1.000  C
  C326     1.0000 0.41192  0.22214  0.07800  Biso   1.000  C
  C327     1.0000 0.40764  0.85930  0.20968  Biso   1.000  C
  C328     1.0000 0.36884  0.84262  0.28354  Biso   1.000  C
  C329     1.0000 0.64436  0.34796  0.86978  Biso   1.000  C
  C330     1.0000 0.64556  0.30692  0.93970  Biso   1.000  C
  C331     1.0000 0.73727  0.45731  0.84845  Biso   1.000  C
  C332     1.0000 0.74538  0.41472  0.91516  Biso   1.000  C
  C333     1.0000 0.53877  0.33449  0.94943  Biso   1.000  C
  C334     1.0000 0.57800  0.28794  0.91192  Biso   1.000  C
  C335     1.0000 0.70968  0.52338  0.90764  Biso   1.000  C
  C336     1.0000 0.78354  0.50500  0.86884  Biso   1.000  C
  C337     1.0000 0.63790  0.86978  0.34796  Biso   1.000  C
  C338     1.0000 0.60782  0.93970  0.30692  Biso   1.000  C
  C339     1.0000 0.45697  0.84845  0.45731  Biso   1.000  C
  C340     1.0000 0.42474  0.91516  0.41472  Biso   1.000  C
  C341     1.0000 0.67731  0.94943  0.33449  Biso   1.000  C
  C342     1.0000 0.72214  0.91192  0.28794  Biso   1.000  C
  C343     1.0000 0.35930  0.90764  0.52338  Biso   1.000  C
  C344     1.0000 0.34262  0.86884  0.50500  Biso   1.000  C
  C345     1.0000 0.84796  0.14436  0.13790  Biso   1.000  C
  C346     1.0000 0.80692  0.14556  0.10782  Biso   1.000  C
  C347     1.0000 0.95731  0.23727  0.95697  Biso   1.000  C
  C348     1.0000 0.91472  0.24538  0.92474  Biso   1.000  C
  C349     1.0000 0.83449  0.03877  0.17731  Biso   1.000  C
  C350     1.0000 0.78794  0.07800  0.22214  Biso   1.000  C
  C351     1.0000 0.02338  0.20968  0.85930  Biso   1.000  C
  C352     1.0000 0.00500  0.28354  0.84262  Biso   1.000  C
  C353     1.0000 0.64436  0.13790  0.34796  Biso   1.000  C
  C354     1.0000 0.64556  0.10782  0.30692  Biso   1.000  C
  C355     1.0000 0.73727  0.95697  0.45731  Biso   1.000  C
  C356     1.0000 0.74538  0.92474  0.41472  Biso   1.000  C
  C357     1.0000 0.53877  0.17731  0.33449  Biso   1.000  C
  C358     1.0000 0.57800  0.22214  0.28794  Biso   1.000  C
  C359     1.0000 0.70968  0.85930  0.52338  Biso   1.000  C
  C360     1.0000 0.78354  0.84262  0.50500  Biso   1.000  C
  C361     1.0000 0.36978  0.34796  0.13790  Biso   1.000  C
  C362     1.0000 0.43970  0.30692  0.10782  Biso   1.000  C
  C363     1.0000 0.34845  0.45731  0.95697  Biso   1.000  C
  C364     1.0000 0.41516  0.41472  0.92474  Biso   1.000  C
  C365     1.0000 0.44943  0.33449  0.17731  Biso   1.000  C
  C366     1.0000 0.41192  0.28794  0.22214  Biso   1.000  C
  C367     1.0000 0.40764  0.52338  0.85930  Biso   1.000  C
  C368     1.0000 0.36884  0.50500  0.84262  Biso   1.000  C
  C369     1.0000 0.84796  0.86978  0.14436  Biso   1.000  C
  C370     1.0000 0.80692  0.93970  0.14556  Biso   1.000  C
  C371     1.0000 0.95731  0.84845  0.23727  Biso   1.000  C
  C372     1.0000 0.91472  0.91516  0.24538  Biso   1.000  C
  C373     1.0000 0.83449  0.94943  0.03877  Biso   1.000  C
  C374     1.0000 0.78794  0.91192  0.07800  Biso   1.000  C
  C375     1.0000 0.02338  0.90764  0.20968  Biso   1.000  C
  C376     1.0000 0.00500  0.86884  0.28354  Biso   1.000  C
  C377     1.0000 0.63790  0.14436  0.86978  Biso   1.000  C
  C378     1.0000 0.60782  0.14556  0.93970  Biso   1.000  C
  C379     1.0000 0.45697  0.23727  0.84845  Biso   1.000  C
  C380     1.0000 0.42474  0.24538  0.91516  Biso   1.000  C
  C381     1.0000 0.67731  0.03877  0.94943  Biso   1.000  C
  C382     1.0000 0.72214  0.07800  0.91192  Biso   1.000  C
  C383     1.0000 0.35930  0.20968  0.90764  Biso   1.000  C
  C384     1.0000 0.34262  0.28354  0.86884  Biso   1.000  C
  N1       1.0000 0.96735  0.89019  0.40071  Biso   1.000  N
  N2       1.0000 0.98874  0.91758  0.35750  Biso   1.000  N
  N3       1.0000 0.08076  0.82064  0.41650  Biso   1.000  N
  N4       1.0000 0.10217  0.84569  0.37105  Biso   1.000  N
  N5       1.0000 0.21641  0.81803  0.45597  Biso   1.000  N
  N6       1.0000 0.24582  0.78762  0.43082  Biso   1.000  N
  N7       1.0000 0.80852  0.04098  0.37890  Biso   1.000  N
  N8       1.0000 0.81869  0.05391  0.40329  Biso   1.000  N
  N9       1.0000 0.14331  0.82395  0.41165  Biso   1.000  N
  N10      1.0000 0.17894  0.81570  0.42340  Biso   1.000  N
  N11      1.0000 0.91680  0.95742  0.38330  Biso   1.000  N
  N12      1.0000 0.87502  0.99344  0.38696  Biso   1.000  N
  N13      1.0000 0.39019  0.46735  0.74175  Biso   1.000  N
  N14      1.0000 0.41758  0.48874  0.73618  Biso   1.000  N
  N15      1.0000 0.32064  0.58076  0.68210  Biso   1.000  N
  N16      1.0000 0.34569  0.60217  0.68109  Biso   1.000  N
  N17      1.0000 0.31803  0.71641  0.50959  Biso   1.000  N
  N18      1.0000 0.28762  0.74582  0.53574  Biso   1.000  N
  N19      1.0000 0.54098  0.30852  0.77160  Biso   1.000  N
  N20      1.0000 0.55391  0.31869  0.72411  Biso   1.000  N
  N21      1.0000 0.32395  0.64331  0.62109  Biso   1.000  N
  N22      1.0000 0.31570  0.67894  0.58196  Biso   1.000  N
  N23      1.0000 0.45742  0.41680  0.74248  Biso   1.000  N
  N24      1.0000 0.49344  0.37502  0.74458  Biso   1.000  N
  N25      1.0000 0.90071  0.74175  0.46735  Biso   1.000  N
  N26      1.0000 0.85750  0.73618  0.48874  Biso   1.000  N
  N27      1.0000 0.91650  0.68210  0.58076  Biso   1.000  N
  N28      1.0000 0.87105  0.68109  0.60217  Biso   1.000  N
  N29      1.0000 0.95597  0.50959  0.71641  Biso   1.000  N
  N30      1.0000 0.93082  0.53574  0.74582  Biso   1.000  N
  N31      1.0000 0.87890  0.77160  0.30852  Biso   1.000  N
  N32      1.0000 0.90329  0.72411  0.31869  Biso   1.000  N
  N33      1.0000 0.91165  0.62109  0.64331  Biso   1.000  N
  N34      1.0000 0.92340  0.58196  0.67894  Biso   1.000  N
  N35      1.0000 0.88330  0.74248  0.41680  Biso   1.000  N
  N36      1.0000 0.88696  0.74458  0.37502  Biso   1.000  N
  N37      1.0000 0.24175  0.40071  0.89019  Biso   1.000  N
  N38      1.0000 0.23618  0.35750  0.91758  Biso   1.000  N
  N39      1.0000 0.18210  0.41650  0.82064  Biso   1.000  N
  N40      1.0000 0.18109  0.37105  0.84569  Biso   1.000  N
  N41      1.0000 0.00959  0.45597  0.81803  Biso   1.000  N
  N42      1.0000 0.03574  0.43082  0.78762  Biso   1.000  N
  N43      1.0000 0.27160  0.37890  0.04098  Biso   1.000  N
  N44      1.0000 0.22411  0.40329  0.05391  Biso   1.000  N
  N45      1.0000 0.12109  0.41165  0.82395  Biso   1.000  N
  N46      1.0000 0.08196  0.42340  0.81570  Biso   1.000  N
  N47      1.0000 0.24248  0.38330  0.95742  Biso   1.000  N
  N48      1.0000 0.24458  0.38696  0.99344  Biso   1.000  N
  N49      1.0000 0.96735  0.40071  0.74175  Biso   1.000  N
  N50      1.0000 0.98874  0.35750  0.73618  Biso   1.000  N
  N51      1.0000 0.08076  0.41650  0.68210  Biso   1.000  N
  N52      1.0000 0.10217  0.37105  0.68109  Biso   1.000  N
  N53      1.0000 0.21641  0.45597  0.50959  Biso   1.000  N
  N54      1.0000 0.24582  0.43082  0.53574  Biso   1.000  N
  N55      1.0000 0.80852  0.37890  0.77160  Biso   1.000  N
  N56      1.0000 0.81869  0.40329  0.72411  Biso   1.000  N
  N57      1.0000 0.14331  0.41165  0.62109  Biso   1.000  N
  N58      1.0000 0.17894  0.42340  0.58196  Biso   1.000  N
  N59      1.0000 0.91680  0.38330  0.74248  Biso   1.000  N
  N60      1.0000 0.87502  0.38696  0.74458  Biso   1.000  N
  N61      1.0000 0.39019  0.74175  0.40071  Biso   1.000  N
  N62      1.0000 0.41758  0.73618  0.35750  Biso   1.000  N
  N63      1.0000 0.32064  0.68210  0.41650  Biso   1.000  N
  N64      1.0000 0.34569  0.68109  0.37105  Biso   1.000  N
  N65      1.0000 0.31803  0.50959  0.45597  Biso   1.000  N
  N66      1.0000 0.28762  0.53574  0.43082  Biso   1.000  N
  N67      1.0000 0.54098  0.77160  0.37890  Biso   1.000  N
  N68      1.0000 0.55391  0.72411  0.40329  Biso   1.000  N
  N69      1.0000 0.32395  0.62109  0.41165  Biso   1.000  N
  N70      1.0000 0.31570  0.58196  0.42340  Biso   1.000  N
  N71      1.0000 0.45742  0.74248  0.38330  Biso   1.000  N
  N72      1.0000 0.49344  0.74458  0.38696  Biso   1.000  N
  N73      1.0000 0.90071  0.46735  0.89019  Biso   1.000  N
  N74      1.0000 0.85750  0.48874  0.91758  Biso   1.000  N
  N75      1.0000 0.91650  0.58076  0.82064  Biso   1.000  N
  N76      1.0000 0.87105  0.60217  0.84569  Biso   1.000  N
  N77      1.0000 0.95597  0.71641  0.81803  Biso   1.000  N
  N78      1.0000 0.93082  0.74582  0.78762  Biso   1.000  N
  N79      1.0000 0.87890  0.30852  0.04098  Biso   1.000  N
  N80      1.0000 0.90329  0.31869  0.05391  Biso   1.000  N
  N81      1.0000 0.91165  0.64331  0.82395  Biso   1.000  N
  N82      1.0000 0.92340  0.67894  0.81570  Biso   1.000  N
  N83      1.0000 0.88330  0.41680  0.95742  Biso   1.000  N
  N84      1.0000 0.88696  0.37502  0.99344  Biso   1.000  N
  N85      1.0000 0.24175  0.89019  0.46735  Biso   1.000  N
  N86      1.0000 0.23618  0.91758  0.48874  Biso   1.000  N
  N87      1.0000 0.18210  0.82064  0.58076  Biso   1.000  N
  N88      1.0000 0.18109  0.84569  0.60217  Biso   1.000  N
  N89      1.0000 0.00959  0.81803  0.71641  Biso   1.000  N
  N90      1.0000 0.03574  0.78762  0.74582  Biso   1.000  N
  N91      1.0000 0.27160  0.04098  0.30852  Biso   1.000  N
  N92      1.0000 0.22411  0.05391  0.31869  Biso   1.000  N
  N93      1.0000 0.12109  0.82395  0.64331  Biso   1.000  N
  N94      1.0000 0.08196  0.81570  0.67894  Biso   1.000  N
  N95      1.0000 0.24248  0.95742  0.41680  Biso   1.000  N
  N96      1.0000 0.24458  0.99344  0.37502  Biso   1.000  N
  N97      1.0000 0.96735  0.74175  0.89019  Biso   1.000  N
  N98      1.0000 0.98874  0.73618  0.91758  Biso   1.000  N
  N99      1.0000 0.08076  0.68210  0.82064  Biso   1.000  N
  N100     1.0000 0.10217  0.68109  0.84569  Biso   1.000  N
  N101     1.0000 0.21641  0.50959  0.81803  Biso   1.000  N
  N102     1.0000 0.24582  0.53574  0.78762  Biso   1.000  N
  N103     1.0000 0.80852  0.77160  0.04098  Biso   1.000  N
  N104     1.0000 0.81869  0.72411  0.05391  Biso   1.000  N
  N105     1.0000 0.14331  0.62109  0.82395  Biso   1.000  N
  N106     1.0000 0.17894  0.58196  0.81570  Biso   1.000  N
  N107     1.0000 0.91680  0.74248  0.95742  Biso   1.000  N
  N108     1.0000 0.87502  0.74458  0.99344  Biso   1.000  N
  N109     1.0000 0.39019  0.40071  0.46735  Biso   1.000  N
  N110     1.0000 0.41758  0.35750  0.48874  Biso   1.000  N
  N111     1.0000 0.32064  0.41650  0.58076  Biso   1.000  N
  N112     1.0000 0.34569  0.37105  0.60217  Biso   1.000  N
  N113     1.0000 0.31803  0.45597  0.71641  Biso   1.000  N
  N114     1.0000 0.28762  0.43082  0.74582  Biso   1.000  N
  N115     1.0000 0.54098  0.37890  0.30852  Biso   1.000  N
  N116     1.0000 0.55391  0.40329  0.31869  Biso   1.000  N
  N117     1.0000 0.32395  0.41165  0.64331  Biso   1.000  N
  N118     1.0000 0.31570  0.42340  0.67894  Biso   1.000  N
  N119     1.0000 0.45742  0.38330  0.41680  Biso   1.000  N
  N120     1.0000 0.49344  0.38696  0.37502  Biso   1.000  N
  N121     1.0000 0.90071  0.89019  0.74175  Biso   1.000  N
  N122     1.0000 0.85750  0.91758  0.73618  Biso   1.000  N
  N123     1.0000 0.91650  0.82064  0.68210  Biso   1.000  N
  N124     1.0000 0.87105  0.84569  0.68109  Biso   1.000  N
  N125     1.0000 0.95597  0.81803  0.50959  Biso   1.000  N
  N126     1.0000 0.93082  0.78762  0.53574  Biso   1.000  N
  N127     1.0000 0.87890  0.04098  0.77160  Biso   1.000  N
  N128     1.0000 0.90329  0.05391  0.72411  Biso   1.000  N
  N129     1.0000 0.91165  0.82395  0.62109  Biso   1.000  N
  N130     1.0000 0.92340  0.81570  0.58196  Biso   1.000  N
  N131     1.0000 0.88330  0.95742  0.74248  Biso   1.000  N
  N132     1.0000 0.88696  0.99344  0.74458  Biso   1.000  N
  N133     1.0000 0.24175  0.46735  0.40071  Biso   1.000  N
  N134     1.0000 0.23618  0.48874  0.35750  Biso   1.000  N
  N135     1.0000 0.18210  0.58076  0.41650  Biso   1.000  N
  N136     1.0000 0.18109  0.60217  0.37105  Biso   1.000  N
  N137     1.0000 0.00959  0.71641  0.45597  Biso   1.000  N
  N138     1.0000 0.03574  0.74582  0.43082  Biso   1.000  N
  N139     1.0000 0.27160  0.30852  0.37890  Biso   1.000  N
  N140     1.0000 0.22411  0.31869  0.40329  Biso   1.000  N
  N141     1.0000 0.12109  0.64331  0.41165  Biso   1.000  N
  N142     1.0000 0.08196  0.67894  0.42340  Biso   1.000  N
  N143     1.0000 0.24248  0.41680  0.38330  Biso   1.000  N
  N144     1.0000 0.24458  0.37502  0.38696  Biso   1.000  N
  N145     1.0000 0.10981  0.03265  0.09929  Biso   1.000  N
  N146     1.0000 0.08242  0.01126  0.14250  Biso   1.000  N
  N147     1.0000 0.17936  0.91924  0.08350  Biso   1.000  N
  N148     1.0000 0.15431  0.89783  0.12895  Biso   1.000  N
  N149     1.0000 0.18197  0.78359  0.04403  Biso   1.000  N
  N150     1.0000 0.21238  0.75418  0.06918  Biso   1.000  N
  N151     1.0000 0.95902  0.19148  0.12110  Biso   1.000  N
  N152     1.0000 0.94609  0.18131  0.09671  Biso   1.000  N
  N153     1.0000 0.17605  0.85669  0.08835  Biso   1.000  N
  N154     1.0000 0.18430  0.82106  0.07660  Biso   1.000  N
  N155     1.0000 0.04258  0.08320  0.11670  Biso   1.000  N
  N156     1.0000 0.00656  0.12498  0.11304  Biso   1.000  N
  N157     1.0000 0.53265  0.60981  0.75825  Biso   1.000  N
  N158     1.0000 0.51126  0.58242  0.76382  Biso   1.000  N
  N159     1.0000 0.41924  0.67936  0.81790  Biso   1.000  N
  N160     1.0000 0.39783  0.65431  0.81891  Biso   1.000  N
  N161     1.0000 0.28359  0.68197  0.99041  Biso   1.000  N
  N162     1.0000 0.25418  0.71238  0.96426  Biso   1.000  N
  N163     1.0000 0.69148  0.45902  0.72840  Biso   1.000  N
  N164     1.0000 0.68131  0.44609  0.77589  Biso   1.000  N
  N165     1.0000 0.35669  0.67605  0.87891  Biso   1.000  N
  N166     1.0000 0.32106  0.68430  0.91804  Biso   1.000  N
  N167     1.0000 0.58320  0.54258  0.75752  Biso   1.000  N
  N168     1.0000 0.62498  0.50656  0.75542  Biso   1.000  N
  N169     1.0000 0.25825  0.09929  0.03265  Biso   1.000  N
  N170     1.0000 0.26382  0.14250  0.01126  Biso   1.000  N
  N171     1.0000 0.31790  0.08350  0.91924  Biso   1.000  N
  N172     1.0000 0.31891  0.12895  0.89783  Biso   1.000  N
  N173     1.0000 0.49041  0.04403  0.78359  Biso   1.000  N
  N174     1.0000 0.46426  0.06918  0.75418  Biso   1.000  N
  N175     1.0000 0.22840  0.12110  0.19148  Biso   1.000  N
  N176     1.0000 0.27589  0.09671  0.18131  Biso   1.000  N
  N177     1.0000 0.37891  0.08835  0.85669  Biso   1.000  N
  N178     1.0000 0.41804  0.07660  0.82106  Biso   1.000  N
  N179     1.0000 0.25752  0.11670  0.08320  Biso   1.000  N
  N180     1.0000 0.25542  0.11304  0.12498  Biso   1.000  N
  N181     1.0000 0.59929  0.75825  0.60981  Biso   1.000  N
  N182     1.0000 0.64250  0.76382  0.58242  Biso   1.000  N
  N183     1.0000 0.58350  0.81790  0.67936  Biso   1.000  N
  N184     1.0000 0.62895  0.81891  0.65431  Biso   1.000  N
  N185     1.0000 0.54403  0.99041  0.68197  Biso   1.000  N
  N186     1.0000 0.56918  0.96426  0.71238  Biso   1.000  N
  N187     1.0000 0.62110  0.72840  0.45902  Biso   1.000  N
  N188     1.0000 0.59671  0.77589  0.44609  Biso   1.000  N
  N189     1.0000 0.58835  0.87891  0.67605  Biso   1.000  N
  N190     1.0000 0.57660  0.91804  0.68430  Biso   1.000  N
  N191     1.0000 0.61670  0.75752  0.54258  Biso   1.000  N
  N192     1.0000 0.61304  0.75542  0.50656  Biso   1.000  N
  N193     1.0000 0.59929  0.03265  0.75825  Biso   1.000  N
  N194     1.0000 0.64250  0.01126  0.76382  Biso   1.000  N
  N195     1.0000 0.58350  0.91924  0.81790  Biso   1.000  N
  N196     1.0000 0.62895  0.89783  0.81891  Biso   1.000  N
  N197     1.0000 0.54403  0.78359  0.99041  Biso   1.000  N
  N198     1.0000 0.56918  0.75418  0.96426  Biso   1.000  N
  N199     1.0000 0.62110  0.19148  0.72840  Biso   1.000  N
  N200     1.0000 0.59671  0.18131  0.77589  Biso   1.000  N
  N201     1.0000 0.58835  0.85669  0.87891  Biso   1.000  N
  N202     1.0000 0.57660  0.82106  0.91804  Biso   1.000  N
  N203     1.0000 0.61670  0.08320  0.75752  Biso   1.000  N
  N204     1.0000 0.61304  0.12498  0.75542  Biso   1.000  N
  N205     1.0000 0.25825  0.60981  0.09929  Biso   1.000  N
  N206     1.0000 0.26382  0.58242  0.14250  Biso   1.000  N
  N207     1.0000 0.31790  0.67936  0.08350  Biso   1.000  N
  N208     1.0000 0.31891  0.65431  0.12895  Biso   1.000  N
  N209     1.0000 0.49041  0.68197  0.04403  Biso   1.000  N
  N210     1.0000 0.46426  0.71238  0.06918  Biso   1.000  N
  N211     1.0000 0.22840  0.45902  0.12110  Biso   1.000  N
  N212     1.0000 0.27589  0.44609  0.09671  Biso   1.000  N
  N213     1.0000 0.37891  0.67605  0.08835  Biso   1.000  N
  N214     1.0000 0.41804  0.68430  0.07660  Biso   1.000  N
  N215     1.0000 0.25752  0.54258  0.11670  Biso   1.000  N
  N216     1.0000 0.25542  0.50656  0.11304  Biso   1.000  N
  N217     1.0000 0.53265  0.09929  0.60981  Biso   1.000  N
  N218     1.0000 0.51126  0.14250  0.58242  Biso   1.000  N
  N219     1.0000 0.41924  0.08350  0.67936  Biso   1.000  N
  N220     1.0000 0.39783  0.12895  0.65431  Biso   1.000  N
  N221     1.0000 0.28359  0.04403  0.68197  Biso   1.000  N
  N222     1.0000 0.25418  0.06918  0.71238  Biso   1.000  N
  N223     1.0000 0.69148  0.12110  0.45902  Biso   1.000  N
  N224     1.0000 0.68131  0.09671  0.44609  Biso   1.000  N
  N225     1.0000 0.35669  0.08835  0.67605  Biso   1.000  N
  N226     1.0000 0.32106  0.07660  0.68430  Biso   1.000  N
  N227     1.0000 0.58320  0.11670  0.54258  Biso   1.000  N
  N228     1.0000 0.62498  0.11304  0.50656  Biso   1.000  N
  N229     1.0000 0.10981  0.75825  0.03265  Biso   1.000  N
  N230     1.0000 0.08242  0.76382  0.01126  Biso   1.000  N
  N231     1.0000 0.17936  0.81790  0.91924  Biso   1.000  N
  N232     1.0000 0.15431  0.81891  0.89783  Biso   1.000  N
  N233     1.0000 0.18197  0.99041  0.78359  Biso   1.000  N
  N234     1.0000 0.21238  0.96426  0.75418  Biso   1.000  N
  N235     1.0000 0.95902  0.72840  0.19148  Biso   1.000  N
  N236     1.0000 0.94609  0.77589  0.18131  Biso   1.000  N
  N237     1.0000 0.17605  0.87891  0.85669  Biso   1.000  N
  N238     1.0000 0.18430  0.91804  0.82106  Biso   1.000  N
  N239     1.0000 0.04258  0.75752  0.08320  Biso   1.000  N
  N240     1.0000 0.00656  0.75542  0.12498  Biso   1.000  N
  N241     1.0000 0.25825  0.03265  0.60981  Biso   1.000  N
  N242     1.0000 0.26382  0.01126  0.58242  Biso   1.000  N
  N243     1.0000 0.31790  0.91924  0.67936  Biso   1.000  N
  N244     1.0000 0.31891  0.89783  0.65431  Biso   1.000  N
  N245     1.0000 0.49041  0.78359  0.68197  Biso   1.000  N
  N246     1.0000 0.46426  0.75418  0.71238  Biso   1.000  N
  N247     1.0000 0.22840  0.19148  0.45902  Biso   1.000  N
  N248     1.0000 0.27589  0.18131  0.44609  Biso   1.000  N
  N249     1.0000 0.37891  0.85669  0.67605  Biso   1.000  N
  N250     1.0000 0.41804  0.82106  0.68430  Biso   1.000  N
  N251     1.0000 0.25752  0.08320  0.54258  Biso   1.000  N
  N252     1.0000 0.25542  0.12498  0.50656  Biso   1.000  N
  N253     1.0000 0.59929  0.60981  0.03265  Biso   1.000  N
  N254     1.0000 0.64250  0.58242  0.01126  Biso   1.000  N
  N255     1.0000 0.58350  0.67936  0.91924  Biso   1.000  N
  N256     1.0000 0.62895  0.65431  0.89783  Biso   1.000  N
  N257     1.0000 0.54403  0.68197  0.78359  Biso   1.000  N
  N258     1.0000 0.56918  0.71238  0.75418  Biso   1.000  N
  N259     1.0000 0.62110  0.45902  0.19148  Biso   1.000  N
  N260     1.0000 0.59671  0.44609  0.18131  Biso   1.000  N
  N261     1.0000 0.58835  0.67605  0.85669  Biso   1.000  N
  N262     1.0000 0.57660  0.68430  0.82106  Biso   1.000  N
  N263     1.0000 0.61670  0.54258  0.08320  Biso   1.000  N
  N264     1.0000 0.61304  0.50656  0.12498  Biso   1.000  N
  N265     1.0000 0.10981  0.09929  0.75825  Biso   1.000  N
  N266     1.0000 0.08242  0.14250  0.76382  Biso   1.000  N
  N267     1.0000 0.17936  0.08350  0.81790  Biso   1.000  N
  N268     1.0000 0.15431  0.12895  0.81891  Biso   1.000  N
  N269     1.0000 0.18197  0.04403  0.99041  Biso   1.000  N
  N270     1.0000 0.21238  0.06918  0.96426  Biso   1.000  N
  N271     1.0000 0.95902  0.12110  0.72840  Biso   1.000  N
  N272     1.0000 0.94609  0.09671  0.77589  Biso   1.000  N
  N273     1.0000 0.17605  0.08835  0.87891  Biso   1.000  N
  N274     1.0000 0.18430  0.07660  0.91804  Biso   1.000  N
  N275     1.0000 0.04258  0.11670  0.75752  Biso   1.000  N
  N276     1.0000 0.00656  0.11304  0.75542  Biso   1.000  N
  N277     1.0000 0.53265  0.75825  0.09929  Biso   1.000  N
  N278     1.0000 0.51126  0.76382  0.14250  Biso   1.000  N
  N279     1.0000 0.41924  0.81790  0.08350  Biso   1.000  N
  N280     1.0000 0.39783  0.81891  0.12895  Biso   1.000  N
  N281     1.0000 0.28359  0.99041  0.04403  Biso   1.000  N
  N282     1.0000 0.25418  0.96426  0.06918  Biso   1.000  N
  N283     1.0000 0.69148  0.72840  0.12110  Biso   1.000  N
  N284     1.0000 0.68131  0.77589  0.09671  Biso   1.000  N
  N285     1.0000 0.35669  0.87891  0.08835  Biso   1.000  N
  N286     1.0000 0.32106  0.91804  0.07660  Biso   1.000  N
  N287     1.0000 0.58320  0.75752  0.11670  Biso   1.000  N
  N288     1.0000 0.62498  0.75542  0.11304  Biso   1.000  N
  N289     1.0000 0.03265  0.10981  0.59929  Biso   1.000  N
  N290     1.0000 0.01126  0.08242  0.64250  Biso   1.000  N
  N291     1.0000 0.91924  0.17936  0.58350  Biso   1.000  N
  N292     1.0000 0.89783  0.15431  0.62895  Biso   1.000  N
  N293     1.0000 0.78359  0.18197  0.54403  Biso   1.000  N
  N294     1.0000 0.75418  0.21238  0.56918  Biso   1.000  N
  N295     1.0000 0.19148  0.95902  0.62110  Biso   1.000  N
  N296     1.0000 0.18131  0.94609  0.59671  Biso   1.000  N
  N297     1.0000 0.85669  0.17605  0.58835  Biso   1.000  N
  N298     1.0000 0.82106  0.18430  0.57660  Biso   1.000  N
  N299     1.0000 0.08320  0.04258  0.61670  Biso   1.000  N
  N300     1.0000 0.12498  0.00656  0.61304  Biso   1.000  N
  N301     1.0000 0.60981  0.53265  0.25825  Biso   1.000  N
  N302     1.0000 0.58242  0.51126  0.26382  Biso   1.000  N
  N303     1.0000 0.67936  0.41924  0.31790  Biso   1.000  N
  N304     1.0000 0.65431  0.39783  0.31891  Biso   1.000  N
  N305     1.0000 0.68197  0.28359  0.49041  Biso   1.000  N
  N306     1.0000 0.71238  0.25418  0.46426  Biso   1.000  N
  N307     1.0000 0.45902  0.69148  0.22840  Biso   1.000  N
  N308     1.0000 0.44609  0.68131  0.27589  Biso   1.000  N
  N309     1.0000 0.67605  0.35669  0.37891  Biso   1.000  N
  N310     1.0000 0.68430  0.32106  0.41804  Biso   1.000  N
  N311     1.0000 0.54258  0.58320  0.25752  Biso   1.000  N
  N312     1.0000 0.50656  0.62498  0.25542  Biso   1.000  N
  N313     1.0000 0.09929  0.25825  0.53265  Biso   1.000  N
  N314     1.0000 0.14250  0.26382  0.51126  Biso   1.000  N
  N315     1.0000 0.08350  0.31790  0.41924  Biso   1.000  N
  N316     1.0000 0.12895  0.31891  0.39783  Biso   1.000  N
  N317     1.0000 0.04403  0.49041  0.28359  Biso   1.000  N
  N318     1.0000 0.06918  0.46426  0.25418  Biso   1.000  N
  N319     1.0000 0.12110  0.22840  0.69148  Biso   1.000  N
  N320     1.0000 0.09671  0.27589  0.68131  Biso   1.000  N
  N321     1.0000 0.08835  0.37891  0.35669  Biso   1.000  N
  N322     1.0000 0.07660  0.41804  0.32106  Biso   1.000  N
  N323     1.0000 0.11670  0.25752  0.58320  Biso   1.000  N
  N324     1.0000 0.11304  0.25542  0.62498  Biso   1.000  N
  N325     1.0000 0.75825  0.59929  0.10981  Biso   1.000  N
  N326     1.0000 0.76382  0.64250  0.08242  Biso   1.000  N
  N327     1.0000 0.81790  0.58350  0.17936  Biso   1.000  N
  N328     1.0000 0.81891  0.62895  0.15431  Biso   1.000  N
  N329     1.0000 0.99041  0.54403  0.18197  Biso   1.000  N
  N330     1.0000 0.96426  0.56918  0.21238  Biso   1.000  N
  N331     1.0000 0.72840  0.62110  0.95902  Biso   1.000  N
  N332     1.0000 0.77589  0.59671  0.94609  Biso   1.000  N
  N333     1.0000 0.87891  0.58835  0.17605  Biso   1.000  N
  N334     1.0000 0.91804  0.57660  0.18430  Biso   1.000  N
  N335     1.0000 0.75752  0.61670  0.04258  Biso   1.000  N
  N336     1.0000 0.75542  0.61304  0.00656  Biso   1.000  N
  N337     1.0000 0.03265  0.59929  0.25825  Biso   1.000  N
  N338     1.0000 0.01126  0.64250  0.26382  Biso   1.000  N
  N339     1.0000 0.91924  0.58350  0.31790  Biso   1.000  N
  N340     1.0000 0.89783  0.62895  0.31891  Biso   1.000  N
  N341     1.0000 0.78359  0.54403  0.49041  Biso   1.000  N
  N342     1.0000 0.75418  0.56918  0.46426  Biso   1.000  N
  N343     1.0000 0.19148  0.62110  0.22840  Biso   1.000  N
  N344     1.0000 0.18131  0.59671  0.27589  Biso   1.000  N
  N345     1.0000 0.85669  0.58835  0.37891  Biso   1.000  N
  N346     1.0000 0.82106  0.57660  0.41804  Biso   1.000  N
  N347     1.0000 0.08320  0.61670  0.25752  Biso   1.000  N
  N348     1.0000 0.12498  0.61304  0.25542  Biso   1.000  N
  N349     1.0000 0.60981  0.25825  0.59929  Biso   1.000  N
  N350     1.0000 0.58242  0.26382  0.64250  Biso   1.000  N
  N351     1.0000 0.67936  0.31790  0.58350  Biso   1.000  N
  N352     1.0000 0.65431  0.31891  0.62895  Biso   1.000  N
  N353     1.0000 0.68197  0.49041  0.54403  Biso   1.000  N
  N354     1.0000 0.71238  0.46426  0.56918  Biso   1.000  N
  N355     1.0000 0.45902  0.22840  0.62110  Biso   1.000  N
  N356     1.0000 0.44609  0.27589  0.59671  Biso   1.000  N
  N357     1.0000 0.67605  0.37891  0.58835  Biso   1.000  N
  N358     1.0000 0.68430  0.41804  0.57660  Biso   1.000  N
  N359     1.0000 0.54258  0.25752  0.61670  Biso   1.000  N
  N360     1.0000 0.50656  0.25542  0.61304  Biso   1.000  N
  N361     1.0000 0.09929  0.53265  0.10981  Biso   1.000  N
  N362     1.0000 0.14250  0.51126  0.08242  Biso   1.000  N
  N363     1.0000 0.08350  0.41924  0.17936  Biso   1.000  N
  N364     1.0000 0.12895  0.39783  0.15431  Biso   1.000  N
  N365     1.0000 0.04403  0.28359  0.18197  Biso   1.000  N
  N366     1.0000 0.06918  0.25418  0.21238  Biso   1.000  N
  N367     1.0000 0.12110  0.69148  0.95902  Biso   1.000  N
  N368     1.0000 0.09671  0.68131  0.94609  Biso   1.000  N
  N369     1.0000 0.08835  0.35669  0.17605  Biso   1.000  N
  N370     1.0000 0.07660  0.32106  0.18430  Biso   1.000  N
  N371     1.0000 0.11670  0.58320  0.04258  Biso   1.000  N
  N372     1.0000 0.11304  0.62498  0.00656  Biso   1.000  N
  N373     1.0000 0.75825  0.10981  0.53265  Biso   1.000  N
  N374     1.0000 0.76382  0.08242  0.51126  Biso   1.000  N
  N375     1.0000 0.81790  0.17936  0.41924  Biso   1.000  N
  N376     1.0000 0.81891  0.15431  0.39783  Biso   1.000  N
  N377     1.0000 0.99041  0.18197  0.28359  Biso   1.000  N
  N378     1.0000 0.96426  0.21238  0.25418  Biso   1.000  N
  N379     1.0000 0.72840  0.95902  0.69148  Biso   1.000  N
  N380     1.0000 0.77589  0.94609  0.68131  Biso   1.000  N
  N381     1.0000 0.87891  0.17605  0.35669  Biso   1.000  N
  N382     1.0000 0.91804  0.18430  0.32106  Biso   1.000  N
  N383     1.0000 0.75752  0.04258  0.58320  Biso   1.000  N
  N384     1.0000 0.75542  0.00656  0.62498  Biso   1.000  N
  N385     1.0000 0.03265  0.25825  0.10981  Biso   1.000  N
  N386     1.0000 0.01126  0.26382  0.08242  Biso   1.000  N
  N387     1.0000 0.91924  0.31790  0.17936  Biso   1.000  N
  N388     1.0000 0.89783  0.31891  0.15431  Biso   1.000  N
  N389     1.0000 0.78359  0.49041  0.18197  Biso   1.000  N
  N390     1.0000 0.75418  0.46426  0.21238  Biso   1.000  N
  N391     1.0000 0.19148  0.22840  0.95902  Biso   1.000  N
  N392     1.0000 0.18131  0.27589  0.94609  Biso   1.000  N
  N393     1.0000 0.85669  0.37891  0.17605  Biso   1.000  N
  N394     1.0000 0.82106  0.41804  0.18430  Biso   1.000  N
  N395     1.0000 0.08320  0.25752  0.04258  Biso   1.000  N
  N396     1.0000 0.12498  0.25542  0.00656  Biso   1.000  N
  N397     1.0000 0.60981  0.59929  0.53265  Biso   1.000  N
  N398     1.0000 0.58242  0.64250  0.51126  Biso   1.000  N
  N399     1.0000 0.67936  0.58350  0.41924  Biso   1.000  N
  N400     1.0000 0.65431  0.62895  0.39783  Biso   1.000  N
  N401     1.0000 0.68197  0.54403  0.28359  Biso   1.000  N
  N402     1.0000 0.71238  0.56918  0.25418  Biso   1.000  N
  N403     1.0000 0.45902  0.62110  0.69148  Biso   1.000  N
  N404     1.0000 0.44609  0.59671  0.68131  Biso   1.000  N
  N405     1.0000 0.67605  0.58835  0.35669  Biso   1.000  N
  N406     1.0000 0.68430  0.57660  0.32106  Biso   1.000  N
  N407     1.0000 0.54258  0.61670  0.58320  Biso   1.000  N
  N408     1.0000 0.50656  0.61304  0.62498  Biso   1.000  N
  N409     1.0000 0.09929  0.10981  0.25825  Biso   1.000  N
  N410     1.0000 0.14250  0.08242  0.26382  Biso   1.000  N
  N411     1.0000 0.08350  0.17936  0.31790  Biso   1.000  N
  N412     1.0000 0.12895  0.15431  0.31891  Biso   1.000  N
  N413     1.0000 0.04403  0.18197  0.49041  Biso   1.000  N
  N414     1.0000 0.06918  0.21238  0.46426  Biso   1.000  N
  N415     1.0000 0.12110  0.95902  0.22840  Biso   1.000  N
  N416     1.0000 0.09671  0.94609  0.27589  Biso   1.000  N
  N417     1.0000 0.08835  0.17605  0.37891  Biso   1.000  N
  N418     1.0000 0.07660  0.18430  0.41804  Biso   1.000  N
  N419     1.0000 0.11670  0.04258  0.25752  Biso   1.000  N
  N420     1.0000 0.11304  0.00656  0.25542  Biso   1.000  N
  N421     1.0000 0.75825  0.53265  0.59929  Biso   1.000  N
  N422     1.0000 0.76382  0.51126  0.64250  Biso   1.000  N
  N423     1.0000 0.81790  0.41924  0.58350  Biso   1.000  N
  N424     1.0000 0.81891  0.39783  0.62895  Biso   1.000  N
  N425     1.0000 0.99041  0.28359  0.54403  Biso   1.000  N
  N426     1.0000 0.96426  0.25418  0.56918  Biso   1.000  N
  N427     1.0000 0.72840  0.69148  0.62110  Biso   1.000  N
  N428     1.0000 0.77589  0.68131  0.59671  Biso   1.000  N
  N429     1.0000 0.87891  0.35669  0.58835  Biso   1.000  N
  N430     1.0000 0.91804  0.32106  0.57660  Biso   1.000  N
  N431     1.0000 0.75752  0.58320  0.61670  Biso   1.000  N
  N432     1.0000 0.75542  0.62498  0.61304  Biso   1.000  N
  N433     1.0000 0.89019  0.96735  0.90071  Biso   1.000  N
  N434     1.0000 0.91758  0.98874  0.85750  Biso   1.000  N
  N435     1.0000 0.82064  0.08076  0.91650  Biso   1.000  N
  N436     1.0000 0.84569  0.10217  0.87105  Biso   1.000  N
  N437     1.0000 0.81803  0.21641  0.95597  Biso   1.000  N
  N438     1.0000 0.78762  0.24582  0.93082  Biso   1.000  N
  N439     1.0000 0.04098  0.80852  0.87890  Biso   1.000  N
  N440     1.0000 0.05391  0.81869  0.90329  Biso   1.000  N
  N441     1.0000 0.82395  0.14331  0.91165  Biso   1.000  N
  N442     1.0000 0.81570  0.17894  0.92340  Biso   1.000  N
  N443     1.0000 0.95742  0.91680  0.88330  Biso   1.000  N
  N444     1.0000 0.99344  0.87502  0.88696  Biso   1.000  N
  N445     1.0000 0.46735  0.39019  0.24175  Biso   1.000  N
  N446     1.0000 0.48874  0.41758  0.23618  Biso   1.000  N
  N447     1.0000 0.58076  0.32064  0.18210  Biso   1.000  N
  N448     1.0000 0.60217  0.34569  0.18109  Biso   1.000  N
  N449     1.0000 0.71641  0.31803  0.00959  Biso   1.000  N
  N450     1.0000 0.74582  0.28762  0.03574  Biso   1.000  N
  N451     1.0000 0.30852  0.54098  0.27160  Biso   1.000  N
  N452     1.0000 0.31869  0.55391  0.22411  Biso   1.000  N
  N453     1.0000 0.64331  0.32395  0.12109  Biso   1.000  N
  N454     1.0000 0.67894  0.31570  0.08196  Biso   1.000  N
  N455     1.0000 0.41680  0.45742  0.24248  Biso   1.000  N
  N456     1.0000 0.37502  0.49344  0.24458  Biso   1.000  N
  N457     1.0000 0.74175  0.90071  0.96735  Biso   1.000  N
  N458     1.0000 0.73618  0.85750  0.98874  Biso   1.000  N
  N459     1.0000 0.68210  0.91650  0.08076  Biso   1.000  N
  N460     1.0000 0.68109  0.87105  0.10217  Biso   1.000  N
  N461     1.0000 0.50959  0.95597  0.21641  Biso   1.000  N
  N462     1.0000 0.53574  0.93082  0.24582  Biso   1.000  N
  N463     1.0000 0.77160  0.87890  0.80852  Biso   1.000  N
  N464     1.0000 0.72411  0.90329  0.81869  Biso   1.000  N
  N465     1.0000 0.62109  0.91165  0.14331  Biso   1.000  N
  N466     1.0000 0.58196  0.92340  0.17894  Biso   1.000  N
  N467     1.0000 0.74248  0.88330  0.91680  Biso   1.000  N
  N468     1.0000 0.74458  0.88696  0.87502  Biso   1.000  N
  N469     1.0000 0.40071  0.24175  0.39019  Biso   1.000  N
  N470     1.0000 0.35750  0.23618  0.41758  Biso   1.000  N
  N471     1.0000 0.41650  0.18210  0.32064  Biso   1.000  N
  N472     1.0000 0.37105  0.18109  0.34569  Biso   1.000  N
  N473     1.0000 0.45597  0.00959  0.31803  Biso   1.000  N
  N474     1.0000 0.43082  0.03574  0.28762  Biso   1.000  N
  N475     1.0000 0.37890  0.27160  0.54098  Biso   1.000  N
  N476     1.0000 0.40329  0.22411  0.55391  Biso   1.000  N
  N477     1.0000 0.41165  0.12109  0.32395  Biso   1.000  N
  N478     1.0000 0.42340  0.08196  0.31570  Biso   1.000  N
  N479     1.0000 0.38330  0.24248  0.45742  Biso   1.000  N
  N480     1.0000 0.38696  0.24458  0.49344  Biso   1.000  N
  N481     1.0000 0.40071  0.96735  0.24175  Biso   1.000  N
  N482     1.0000 0.35750  0.98874  0.23618  Biso   1.000  N
  N483     1.0000 0.41650  0.08076  0.18210  Biso   1.000  N
  N484     1.0000 0.37105  0.10217  0.18109  Biso   1.000  N
  N485     1.0000 0.45597  0.21641  0.00959  Biso   1.000  N
  N486     1.0000 0.43082  0.24582  0.03574  Biso   1.000  N
  N487     1.0000 0.37890  0.80852  0.27160  Biso   1.000  N
  N488     1.0000 0.40329  0.81869  0.22411  Biso   1.000  N
  N489     1.0000 0.41165  0.14331  0.12109  Biso   1.000  N
  N490     1.0000 0.42340  0.17894  0.08196  Biso   1.000  N
  N491     1.0000 0.38330  0.91680  0.24248  Biso   1.000  N
  N492     1.0000 0.38696  0.87502  0.24458  Biso   1.000  N
  N493     1.0000 0.74175  0.39019  0.90071  Biso   1.000  N
  N494     1.0000 0.73618  0.41758  0.85750  Biso   1.000  N
  N495     1.0000 0.68210  0.32064  0.91650  Biso   1.000  N
  N496     1.0000 0.68109  0.34569  0.87105  Biso   1.000  N
  N497     1.0000 0.50959  0.31803  0.95597  Biso   1.000  N
  N498     1.0000 0.53574  0.28762  0.93082  Biso   1.000  N
  N499     1.0000 0.77160  0.54098  0.87890  Biso   1.000  N
  N500     1.0000 0.72411  0.55391  0.90329  Biso   1.000  N
  N501     1.0000 0.62109  0.32395  0.91165  Biso   1.000  N
  N502     1.0000 0.58196  0.31570  0.92340  Biso   1.000  N
  N503     1.0000 0.74248  0.45742  0.88330  Biso   1.000  N
  N504     1.0000 0.74458  0.49344  0.88696  Biso   1.000  N
  N505     1.0000 0.46735  0.90071  0.39019  Biso   1.000  N
  N506     1.0000 0.48874  0.85750  0.41758  Biso   1.000  N
  N507     1.0000 0.58076  0.91650  0.32064  Biso   1.000  N
  N508     1.0000 0.60217  0.87105  0.34569  Biso   1.000  N
  N509     1.0000 0.71641  0.95597  0.31803  Biso   1.000  N
  N510     1.0000 0.74582  0.93082  0.28762  Biso   1.000  N
  N511     1.0000 0.30852  0.87890  0.54098  Biso   1.000  N
  N512     1.0000 0.31869  0.90329  0.55391  Biso   1.000  N
  N513     1.0000 0.64331  0.91165  0.32395  Biso   1.000  N
  N514     1.0000 0.67894  0.92340  0.31570  Biso   1.000  N
  N515     1.0000 0.41680  0.88330  0.45742  Biso   1.000  N
  N516     1.0000 0.37502  0.88696  0.49344  Biso   1.000  N
  N517     1.0000 0.89019  0.24175  0.96735  Biso   1.000  N
  N518     1.0000 0.91758  0.23618  0.98874  Biso   1.000  N
  N519     1.0000 0.82064  0.18210  0.08076  Biso   1.000  N
  N520     1.0000 0.84569  0.18109  0.10217  Biso   1.000  N
  N521     1.0000 0.81803  0.00959  0.21641  Biso   1.000  N
  N522     1.0000 0.78762  0.03574  0.24582  Biso   1.000  N
  N523     1.0000 0.04098  0.27160  0.80852  Biso   1.000  N
  N524     1.0000 0.05391  0.22411  0.81869  Biso   1.000  N
  N525     1.0000 0.82395  0.12109  0.14331  Biso   1.000  N
  N526     1.0000 0.81570  0.08196  0.17894  Biso   1.000  N
  N527     1.0000 0.95742  0.24248  0.91680  Biso   1.000  N
  N528     1.0000 0.99344  0.24458  0.87502  Biso   1.000  N
  N529     1.0000 0.74175  0.96735  0.39019  Biso   1.000  N
  N530     1.0000 0.73618  0.98874  0.41758  Biso   1.000  N
  N531     1.0000 0.68210  0.08076  0.32064  Biso   1.000  N
  N532     1.0000 0.68109  0.10217  0.34569  Biso   1.000  N
  N533     1.0000 0.50959  0.21641  0.31803  Biso   1.000  N
  N534     1.0000 0.53574  0.24582  0.28762  Biso   1.000  N
  N535     1.0000 0.77160  0.80852  0.54098  Biso   1.000  N
  N536     1.0000 0.72411  0.81869  0.55391  Biso   1.000  N
  N537     1.0000 0.62109  0.14331  0.32395  Biso   1.000  N
  N538     1.0000 0.58196  0.17894  0.31570  Biso   1.000  N
  N539     1.0000 0.74248  0.91680  0.45742  Biso   1.000  N
  N540     1.0000 0.74458  0.87502  0.49344  Biso   1.000  N
  N541     1.0000 0.40071  0.39019  0.96735  Biso   1.000  N
  N542     1.0000 0.35750  0.41758  0.98874  Biso   1.000  N
  N543     1.0000 0.41650  0.32064  0.08076  Biso   1.000  N
  N544     1.0000 0.37105  0.34569  0.10217  Biso   1.000  N
  N545     1.0000 0.45597  0.31803  0.21641  Biso   1.000  N
  N546     1.0000 0.43082  0.28762  0.24582  Biso   1.000  N
  N547     1.0000 0.37890  0.54098  0.80852  Biso   1.000  N
  N548     1.0000 0.40329  0.55391  0.81869  Biso   1.000  N
  N549     1.0000 0.41165  0.32395  0.14331  Biso   1.000  N
  N550     1.0000 0.42340  0.31570  0.17894  Biso   1.000  N
  N551     1.0000 0.38330  0.45742  0.91680  Biso   1.000  N
  N552     1.0000 0.38696  0.49344  0.87502  Biso   1.000  N
  N553     1.0000 0.89019  0.90071  0.24175  Biso   1.000  N
  N554     1.0000 0.91758  0.85750  0.23618  Biso   1.000  N
  N555     1.0000 0.82064  0.91650  0.18210  Biso   1.000  N
  N556     1.0000 0.84569  0.87105  0.18109  Biso   1.000  N
  N557     1.0000 0.81803  0.95597  0.00959  Biso   1.000  N
  N558     1.0000 0.78762  0.93082  0.03574  Biso   1.000  N
  N559     1.0000 0.04098  0.87890  0.27160  Biso   1.000  N
  N560     1.0000 0.05391  0.90329  0.22411  Biso   1.000  N
  N561     1.0000 0.82395  0.91165  0.12109  Biso   1.000  N
  N562     1.0000 0.81570  0.92340  0.08196  Biso   1.000  N
  N563     1.0000 0.95742  0.88330  0.24248  Biso   1.000  N
  N564     1.0000 0.99344  0.88696  0.24458  Biso   1.000  N
  N565     1.0000 0.46735  0.24175  0.90071  Biso   1.000  N
  N566     1.0000 0.48874  0.23618  0.85750  Biso   1.000  N
  N567     1.0000 0.58076  0.18210  0.91650  Biso   1.000  N
  N568     1.0000 0.60217  0.18109  0.87105  Biso   1.000  N
  N569     1.0000 0.71641  0.00959  0.95597  Biso   1.000  N
  N570     1.0000 0.74582  0.03574  0.93082  Biso   1.000  N
  N571     1.0000 0.30852  0.27160  0.87890  Biso   1.000  N
  N572     1.0000 0.31869  0.22411  0.90329  Biso   1.000  N
  N573     1.0000 0.64331  0.12109  0.91165  Biso   1.000  N
  N574     1.0000 0.67894  0.08196  0.92340  Biso   1.000  N
  N575     1.0000 0.41680  0.24248  0.88330  Biso   1.000  N
  N576     1.0000 0.37502  0.24458  0.88696  Biso   1.000  N
