data_image0
_cell_length_a       35.2651
_cell_length_b       35.2651
_cell_length_c       35.2651
_cell_angle_alpha    60
_cell_angle_beta     60
_cell_angle_gamma    60

_symmetry_space_group_name_H-M    P 1
_symmetry_int_tables_number       1

loop_
  _symmetry_equiv_pos_as_xyz
  'x, y, z'

loop_
  _atom_site_label
  _atom_site_occupancy
  _atom_site_fract_x
  _atom_site_fract_y
  _atom_site_fract_z
  _atom_site_thermal_displace_type
  _atom_site_B_iso_or_equiv
  _atom_site_type_symbol
  Ag1      1.0000 0.06886  0.88361  0.31540  Biso   1.000  Ag
  Ag2      1.0000 0.00700  0.81926  0.43473  Biso   1.000  Ag
  Ag3      1.0000 0.38361  0.56886  0.73213  Biso   1.000  Ag
  Ag4      1.0000 0.31926  0.50700  0.73901  Biso   1.000  Ag
  Ag5      1.0000 0.81540  0.73213  0.56886  Biso   1.000  Ag
  Ag6      1.0000 0.93473  0.73901  0.50700  Biso   1.000  Ag
  Ag7      1.0000 0.23213  0.31540  0.88361  Biso   1.000  Ag
  Ag8      1.0000 0.23901  0.43473  0.81926  Biso   1.000  Ag
  Ag9      1.0000 0.06886  0.31540  0.73213  Biso   1.000  Ag
  Ag10     1.0000 0.00700  0.43473  0.73901  Biso   1.000  Ag
  Ag11     1.0000 0.38361  0.73213  0.31540  Biso   1.000  Ag
  Ag12     1.0000 0.31926  0.73901  0.43473  Biso   1.000  Ag
  Ag13     1.0000 0.81540  0.56886  0.88361  Biso   1.000  Ag
  Ag14     1.0000 0.93473  0.50700  0.81926  Biso   1.000  Ag
  Ag15     1.0000 0.23213  0.88361  0.56886  Biso   1.000  Ag
  Ag16     1.0000 0.23901  0.81926  0.50700  Biso   1.000  Ag
  Ag17     1.0000 0.06886  0.73213  0.88361  Biso   1.000  Ag
  Ag18     1.0000 0.00700  0.73901  0.81926  Biso   1.000  Ag
  Ag19     1.0000 0.38361  0.31540  0.56886  Biso   1.000  Ag
  Ag20     1.0000 0.31926  0.43473  0.50700  Biso   1.000  Ag
  Ag21     1.0000 0.81540  0.88361  0.73213  Biso   1.000  Ag
  Ag22     1.0000 0.93473  0.81926  0.73901  Biso   1.000  Ag
  Ag23     1.0000 0.23213  0.56886  0.31540  Biso   1.000  Ag
  Ag24     1.0000 0.23901  0.50700  0.43473  Biso   1.000  Ag
  Ag25     1.0000 0.11639  0.93114  0.18460  Biso   1.000  Ag
  Ag26     1.0000 0.18074  0.99300  0.06527  Biso   1.000  Ag
  Ag27     1.0000 0.43114  0.61639  0.76787  Biso   1.000  Ag
  Ag28     1.0000 0.49300  0.68074  0.76099  Biso   1.000  Ag
  Ag29     1.0000 0.26787  0.18460  0.93114  Biso   1.000  Ag
  Ag30     1.0000 0.26099  0.06527  0.99300  Biso   1.000  Ag
  Ag31     1.0000 0.68460  0.76787  0.61639  Biso   1.000  Ag
  Ag32     1.0000 0.56527  0.76099  0.68074  Biso   1.000  Ag
  Ag33     1.0000 0.68460  0.93114  0.76787  Biso   1.000  Ag
  Ag34     1.0000 0.56527  0.99300  0.76099  Biso   1.000  Ag
  Ag35     1.0000 0.26787  0.61639  0.18460  Biso   1.000  Ag
  Ag36     1.0000 0.26099  0.68074  0.06527  Biso   1.000  Ag
  Ag37     1.0000 0.43114  0.18460  0.61639  Biso   1.000  Ag
  Ag38     1.0000 0.49300  0.06527  0.68074  Biso   1.000  Ag
  Ag39     1.0000 0.11639  0.76787  0.93114  Biso   1.000  Ag
  Ag40     1.0000 0.18074  0.76099  0.99300  Biso   1.000  Ag
  Ag41     1.0000 0.26787  0.93114  0.61639  Biso   1.000  Ag
  Ag42     1.0000 0.26099  0.99300  0.68074  Biso   1.000  Ag
  Ag43     1.0000 0.68460  0.61639  0.93114  Biso   1.000  Ag
  Ag44     1.0000 0.56527  0.68074  0.99300  Biso   1.000  Ag
  Ag45     1.0000 0.11639  0.18460  0.76787  Biso   1.000  Ag
  Ag46     1.0000 0.18074  0.06527  0.76099  Biso   1.000  Ag
  Ag47     1.0000 0.43114  0.76787  0.18460  Biso   1.000  Ag
  Ag48     1.0000 0.49300  0.76099  0.06527  Biso   1.000  Ag
  Ag49     1.0000 0.93114  0.11639  0.68460  Biso   1.000  Ag
  Ag50     1.0000 0.99300  0.18074  0.56527  Biso   1.000  Ag
  Ag51     1.0000 0.61639  0.43114  0.26787  Biso   1.000  Ag
  Ag52     1.0000 0.68074  0.49300  0.26099  Biso   1.000  Ag
  Ag53     1.0000 0.18460  0.26787  0.43114  Biso   1.000  Ag
  Ag54     1.0000 0.06527  0.26099  0.49300  Biso   1.000  Ag
  Ag55     1.0000 0.76787  0.68460  0.11639  Biso   1.000  Ag
  Ag56     1.0000 0.76099  0.56527  0.18074  Biso   1.000  Ag
  Ag57     1.0000 0.93114  0.68460  0.26787  Biso   1.000  Ag
  Ag58     1.0000 0.99300  0.56527  0.26099  Biso   1.000  Ag
  Ag59     1.0000 0.61639  0.26787  0.68460  Biso   1.000  Ag
  Ag60     1.0000 0.68074  0.26099  0.56527  Biso   1.000  Ag
  Ag61     1.0000 0.18460  0.43114  0.11639  Biso   1.000  Ag
  Ag62     1.0000 0.06527  0.49300  0.18074  Biso   1.000  Ag
  Ag63     1.0000 0.76787  0.11639  0.43114  Biso   1.000  Ag
  Ag64     1.0000 0.76099  0.18074  0.49300  Biso   1.000  Ag
  Ag65     1.0000 0.93114  0.26787  0.11639  Biso   1.000  Ag
  Ag66     1.0000 0.99300  0.26099  0.18074  Biso   1.000  Ag
  Ag67     1.0000 0.61639  0.68460  0.43114  Biso   1.000  Ag
  Ag68     1.0000 0.68074  0.56527  0.49300  Biso   1.000  Ag
  Ag69     1.0000 0.18460  0.11639  0.26787  Biso   1.000  Ag
  Ag70     1.0000 0.06527  0.18074  0.26099  Biso   1.000  Ag
  Ag71     1.0000 0.76787  0.43114  0.68460  Biso   1.000  Ag
  Ag72     1.0000 0.76099  0.49300  0.56527  Biso   1.000  Ag
  Ag73     1.0000 0.88361  0.06886  0.81540  Biso   1.000  Ag
  Ag74     1.0000 0.81926  0.00700  0.93473  Biso   1.000  Ag
  Ag75     1.0000 0.56886  0.38361  0.23213  Biso   1.000  Ag
  Ag76     1.0000 0.50700  0.31926  0.23901  Biso   1.000  Ag
  Ag77     1.0000 0.73213  0.81540  0.06886  Biso   1.000  Ag
  Ag78     1.0000 0.73901  0.93473  0.00700  Biso   1.000  Ag
  Ag79     1.0000 0.31540  0.23213  0.38361  Biso   1.000  Ag
  Ag80     1.0000 0.43473  0.23901  0.31926  Biso   1.000  Ag
  Ag81     1.0000 0.31540  0.06886  0.23213  Biso   1.000  Ag
  Ag82     1.0000 0.43473  0.00700  0.23901  Biso   1.000  Ag
  Ag83     1.0000 0.73213  0.38361  0.81540  Biso   1.000  Ag
  Ag84     1.0000 0.73901  0.31926  0.93473  Biso   1.000  Ag
  Ag85     1.0000 0.56886  0.81540  0.38361  Biso   1.000  Ag
  Ag86     1.0000 0.50700  0.93473  0.31926  Biso   1.000  Ag
  Ag87     1.0000 0.88361  0.23213  0.06886  Biso   1.000  Ag
  Ag88     1.0000 0.81926  0.23901  0.00700  Biso   1.000  Ag
  Ag89     1.0000 0.73213  0.06886  0.38361  Biso   1.000  Ag
  Ag90     1.0000 0.73901  0.00700  0.31926  Biso   1.000  Ag
  Ag91     1.0000 0.31540  0.38361  0.06886  Biso   1.000  Ag
  Ag92     1.0000 0.43473  0.31926  0.00700  Biso   1.000  Ag
  Ag93     1.0000 0.88361  0.81540  0.23213  Biso   1.000  Ag
  Ag94     1.0000 0.81926  0.93473  0.23901  Biso   1.000  Ag
  Ag95     1.0000 0.56886  0.23213  0.81540  Biso   1.000  Ag
  Ag96     1.0000 0.50700  0.23901  0.93473  Biso   1.000  Ag
  H1       1.0000 0.96200  0.98340  0.31680  Biso   1.000  H
  H2       1.0000 0.90080  0.90700  0.44220  Biso   1.000  H
  H3       1.0000 0.84270  0.99110  0.35150  Biso   1.000  H
  H4       1.0000 0.87680  0.02960  0.41520  Biso   1.000  H
  H5       1.0000 0.15990  0.86270  0.34530  Biso   1.000  H
  H6       1.0000 0.10330  0.78350  0.46950  Biso   1.000  H
  H7       1.0000 0.14850  0.84950  0.46890  Biso   1.000  H
  H8       1.0000 0.23570  0.76530  0.39530  Biso   1.000  H
  H9       1.0000 0.48340  0.46200  0.73780  Biso   1.000  H
  H10      1.0000 0.40700  0.40080  0.75000  Biso   1.000  H
  H11      1.0000 0.49110  0.34270  0.81470  Biso   1.000  H
  H12      1.0000 0.52960  0.37680  0.67840  Biso   1.000  H
  H13      1.0000 0.36270  0.65990  0.63210  Biso   1.000  H
  H14      1.0000 0.28350  0.60330  0.64370  Biso   1.000  H
  H15      1.0000 0.34950  0.64850  0.53310  Biso   1.000  H
  H16      1.0000 0.26530  0.73570  0.60370  Biso   1.000  H
  H17      1.0000 0.81680  0.73780  0.46200  Biso   1.000  H
  H18      1.0000 0.94220  0.75000  0.40080  Biso   1.000  H
  H19      1.0000 0.85150  0.81470  0.34270  Biso   1.000  H
  H20      1.0000 0.91520  0.67840  0.37680  Biso   1.000  H
  H21      1.0000 0.84530  0.63210  0.65990  Biso   1.000  H
  H22      1.0000 0.96950  0.64370  0.60330  Biso   1.000  H
  H23      1.0000 0.96890  0.53310  0.64850  Biso   1.000  H
  H24      1.0000 0.89530  0.60370  0.73570  Biso   1.000  H
  H25      1.0000 0.23780  0.31680  0.98340  Biso   1.000  H
  H26      1.0000 0.25000  0.44220  0.90700  Biso   1.000  H
  H27      1.0000 0.31470  0.35150  0.99110  Biso   1.000  H
  H28      1.0000 0.17840  0.41520  0.02960  Biso   1.000  H
  H29      1.0000 0.13210  0.34530  0.86270  Biso   1.000  H
  H30      1.0000 0.14370  0.46950  0.78350  Biso   1.000  H
  H31      1.0000 0.03310  0.46890  0.84950  Biso   1.000  H
  H32      1.0000 0.10370  0.39530  0.76530  Biso   1.000  H
  H33      1.0000 0.96200  0.31680  0.73780  Biso   1.000  H
  H34      1.0000 0.90080  0.44220  0.75000  Biso   1.000  H
  H35      1.0000 0.84270  0.35150  0.81470  Biso   1.000  H
  H36      1.0000 0.87680  0.41520  0.67840  Biso   1.000  H
  H37      1.0000 0.15990  0.34530  0.63210  Biso   1.000  H
  H38      1.0000 0.10330  0.46950  0.64370  Biso   1.000  H
  H39      1.0000 0.14850  0.46890  0.53310  Biso   1.000  H
  H40      1.0000 0.23570  0.39530  0.60370  Biso   1.000  H
  H41      1.0000 0.48340  0.73780  0.31680  Biso   1.000  H
  H42      1.0000 0.40700  0.75000  0.44220  Biso   1.000  H
  H43      1.0000 0.49110  0.81470  0.35150  Biso   1.000  H
  H44      1.0000 0.52960  0.67840  0.41520  Biso   1.000  H
  H45      1.0000 0.36270  0.63210  0.34530  Biso   1.000  H
  H46      1.0000 0.28350  0.64370  0.46950  Biso   1.000  H
  H47      1.0000 0.34950  0.53310  0.46890  Biso   1.000  H
  H48      1.0000 0.26530  0.60370  0.39530  Biso   1.000  H
  H49      1.0000 0.81680  0.46200  0.98340  Biso   1.000  H
  H50      1.0000 0.94220  0.40080  0.90700  Biso   1.000  H
  H51      1.0000 0.85150  0.34270  0.99110  Biso   1.000  H
  H52      1.0000 0.91520  0.37680  0.02960  Biso   1.000  H
  H53      1.0000 0.84530  0.65990  0.86270  Biso   1.000  H
  H54      1.0000 0.96950  0.60330  0.78350  Biso   1.000  H
  H55      1.0000 0.96890  0.64850  0.84950  Biso   1.000  H
  H56      1.0000 0.89530  0.73570  0.76530  Biso   1.000  H
  H57      1.0000 0.23780  0.98340  0.46200  Biso   1.000  H
  H58      1.0000 0.25000  0.90700  0.40080  Biso   1.000  H
  H59      1.0000 0.31470  0.99110  0.34270  Biso   1.000  H
  H60      1.0000 0.17840  0.02960  0.37680  Biso   1.000  H
  H61      1.0000 0.13210  0.86270  0.65990  Biso   1.000  H
  H62      1.0000 0.14370  0.78350  0.60330  Biso   1.000  H
  H63      1.0000 0.03310  0.84950  0.64850  Biso   1.000  H
  H64      1.0000 0.10370  0.76530  0.73570  Biso   1.000  H
  H65      1.0000 0.96200  0.73780  0.98340  Biso   1.000  H
  H66      1.0000 0.90080  0.75000  0.90700  Biso   1.000  H
  H67      1.0000 0.84270  0.81470  0.99110  Biso   1.000  H
  H68      1.0000 0.87680  0.67840  0.02960  Biso   1.000  H
  H69      1.0000 0.15990  0.63210  0.86270  Biso   1.000  H
  H70      1.0000 0.10330  0.64370  0.78350  Biso   1.000  H
  H71      1.0000 0.14850  0.53310  0.84950  Biso   1.000  H
  H72      1.0000 0.23570  0.60370  0.76530  Biso   1.000  H
  H73      1.0000 0.48340  0.31680  0.46200  Biso   1.000  H
  H74      1.0000 0.40700  0.44220  0.40080  Biso   1.000  H
  H75      1.0000 0.49110  0.35150  0.34270  Biso   1.000  H
  H76      1.0000 0.52960  0.41520  0.37680  Biso   1.000  H
  H77      1.0000 0.36270  0.34530  0.65990  Biso   1.000  H
  H78      1.0000 0.28350  0.46950  0.60330  Biso   1.000  H
  H79      1.0000 0.34950  0.46890  0.64850  Biso   1.000  H
  H80      1.0000 0.26530  0.39530  0.73570  Biso   1.000  H
  H81      1.0000 0.81680  0.98340  0.73780  Biso   1.000  H
  H82      1.0000 0.94220  0.90700  0.75000  Biso   1.000  H
  H83      1.0000 0.85150  0.99110  0.81470  Biso   1.000  H
  H84      1.0000 0.91520  0.02960  0.67840  Biso   1.000  H
  H85      1.0000 0.84530  0.86270  0.63210  Biso   1.000  H
  H86      1.0000 0.96950  0.78350  0.64370  Biso   1.000  H
  H87      1.0000 0.96890  0.84950  0.53310  Biso   1.000  H
  H88      1.0000 0.89530  0.76530  0.60370  Biso   1.000  H
  H89      1.0000 0.23780  0.46200  0.31680  Biso   1.000  H
  H90      1.0000 0.25000  0.40080  0.44220  Biso   1.000  H
  H91      1.0000 0.31470  0.34270  0.35150  Biso   1.000  H
  H92      1.0000 0.17840  0.37680  0.41520  Biso   1.000  H
  H93      1.0000 0.13210  0.65990  0.34530  Biso   1.000  H
  H94      1.0000 0.14370  0.60330  0.46950  Biso   1.000  H
  H95      1.0000 0.03310  0.64850  0.46890  Biso   1.000  H
  H96      1.0000 0.10370  0.73570  0.39530  Biso   1.000  H
  H97      1.0000 0.01660  0.03800  0.18320  Biso   1.000  H
  H98      1.0000 0.09300  0.09920  0.05780  Biso   1.000  H
  H99      1.0000 0.00890  0.15730  0.14850  Biso   1.000  H
  H100     1.0000 0.97040  0.12320  0.08480  Biso   1.000  H
  H101     1.0000 0.13730  0.84010  0.15470  Biso   1.000  H
  H102     1.0000 0.21650  0.89670  0.03050  Biso   1.000  H
  H103     1.0000 0.15050  0.85150  0.03110  Biso   1.000  H
  H104     1.0000 0.23470  0.76430  0.10470  Biso   1.000  H
  H105     1.0000 0.53800  0.51660  0.76220  Biso   1.000  H
  H106     1.0000 0.59920  0.59300  0.75000  Biso   1.000  H
  H107     1.0000 0.65730  0.50890  0.68530  Biso   1.000  H
  H108     1.0000 0.62320  0.47040  0.82160  Biso   1.000  H
  H109     1.0000 0.34010  0.63730  0.86790  Biso   1.000  H
  H110     1.0000 0.39670  0.71650  0.85630  Biso   1.000  H
  H111     1.0000 0.35150  0.65050  0.96690  Biso   1.000  H
  H112     1.0000 0.26430  0.73470  0.89630  Biso   1.000  H
  H113     1.0000 0.26220  0.18320  0.03800  Biso   1.000  H
  H114     1.0000 0.25000  0.05780  0.09920  Biso   1.000  H
  H115     1.0000 0.18530  0.14850  0.15730  Biso   1.000  H
  H116     1.0000 0.32160  0.08480  0.12320  Biso   1.000  H
  H117     1.0000 0.36790  0.15470  0.84010  Biso   1.000  H
  H118     1.0000 0.35630  0.03050  0.89670  Biso   1.000  H
  H119     1.0000 0.46690  0.03110  0.85150  Biso   1.000  H
  H120     1.0000 0.39630  0.10470  0.76430  Biso   1.000  H
  H121     1.0000 0.68320  0.76220  0.51660  Biso   1.000  H
  H122     1.0000 0.55780  0.75000  0.59300  Biso   1.000  H
  H123     1.0000 0.64850  0.68530  0.50890  Biso   1.000  H
  H124     1.0000 0.58480  0.82160  0.47040  Biso   1.000  H
  H125     1.0000 0.65470  0.86790  0.63730  Biso   1.000  H
  H126     1.0000 0.53050  0.85630  0.71650  Biso   1.000  H
  H127     1.0000 0.53110  0.96690  0.65050  Biso   1.000  H
  H128     1.0000 0.60470  0.89630  0.73470  Biso   1.000  H
  H129     1.0000 0.68320  0.03800  0.76220  Biso   1.000  H
  H130     1.0000 0.55780  0.09920  0.75000  Biso   1.000  H
  H131     1.0000 0.64850  0.15730  0.68530  Biso   1.000  H
  H132     1.0000 0.58480  0.12320  0.82160  Biso   1.000  H
  H133     1.0000 0.65470  0.84010  0.86790  Biso   1.000  H
  H134     1.0000 0.53050  0.89670  0.85630  Biso   1.000  H
  H135     1.0000 0.53110  0.85150  0.96690  Biso   1.000  H
  H136     1.0000 0.60470  0.76430  0.89630  Biso   1.000  H
  H137     1.0000 0.26220  0.51660  0.18320  Biso   1.000  H
  H138     1.0000 0.25000  0.59300  0.05780  Biso   1.000  H
  H139     1.0000 0.18530  0.50890  0.14850  Biso   1.000  H
  H140     1.0000 0.32160  0.47040  0.08480  Biso   1.000  H
  H141     1.0000 0.36790  0.63730  0.15470  Biso   1.000  H
  H142     1.0000 0.35630  0.71650  0.03050  Biso   1.000  H
  H143     1.0000 0.46690  0.65050  0.03110  Biso   1.000  H
  H144     1.0000 0.39630  0.73470  0.10470  Biso   1.000  H
  H145     1.0000 0.53800  0.18320  0.51660  Biso   1.000  H
  H146     1.0000 0.59920  0.05780  0.59300  Biso   1.000  H
  H147     1.0000 0.65730  0.14850  0.50890  Biso   1.000  H
  H148     1.0000 0.62320  0.08480  0.47040  Biso   1.000  H
  H149     1.0000 0.34010  0.15470  0.63730  Biso   1.000  H
  H150     1.0000 0.39670  0.03050  0.71650  Biso   1.000  H
  H151     1.0000 0.35150  0.03110  0.65050  Biso   1.000  H
  H152     1.0000 0.26430  0.10470  0.73470  Biso   1.000  H
  H153     1.0000 0.01660  0.76220  0.03800  Biso   1.000  H
  H154     1.0000 0.09300  0.75000  0.09920  Biso   1.000  H
  H155     1.0000 0.00890  0.68530  0.15730  Biso   1.000  H
  H156     1.0000 0.97040  0.82160  0.12320  Biso   1.000  H
  H157     1.0000 0.13730  0.86790  0.84010  Biso   1.000  H
  H158     1.0000 0.21650  0.85630  0.89670  Biso   1.000  H
  H159     1.0000 0.15050  0.96690  0.85150  Biso   1.000  H
  H160     1.0000 0.23470  0.89630  0.76430  Biso   1.000  H
  H161     1.0000 0.26220  0.03800  0.51660  Biso   1.000  H
  H162     1.0000 0.25000  0.09920  0.59300  Biso   1.000  H
  H163     1.0000 0.18530  0.15730  0.50890  Biso   1.000  H
  H164     1.0000 0.32160  0.12320  0.47040  Biso   1.000  H
  H165     1.0000 0.36790  0.84010  0.63730  Biso   1.000  H
  H166     1.0000 0.35630  0.89670  0.71650  Biso   1.000  H
  H167     1.0000 0.46690  0.85150  0.65050  Biso   1.000  H
  H168     1.0000 0.39630  0.76430  0.73470  Biso   1.000  H
  H169     1.0000 0.68320  0.51660  0.03800  Biso   1.000  H
  H170     1.0000 0.55780  0.59300  0.09920  Biso   1.000  H
  H171     1.0000 0.64850  0.50890  0.15730  Biso   1.000  H
  H172     1.0000 0.58480  0.47040  0.12320  Biso   1.000  H
  H173     1.0000 0.65470  0.63730  0.84010  Biso   1.000  H
  H174     1.0000 0.53050  0.71650  0.89670  Biso   1.000  H
  H175     1.0000 0.53110  0.65050  0.85150  Biso   1.000  H
  H176     1.0000 0.60470  0.73470  0.76430  Biso   1.000  H
  H177     1.0000 0.01660  0.18320  0.76220  Biso   1.000  H
  H178     1.0000 0.09300  0.05780  0.75000  Biso   1.000  H
  H179     1.0000 0.00890  0.14850  0.68530  Biso   1.000  H
  H180     1.0000 0.97040  0.08480  0.82160  Biso   1.000  H
  H181     1.0000 0.13730  0.15470  0.86790  Biso   1.000  H
  H182     1.0000 0.21650  0.03050  0.85630  Biso   1.000  H
  H183     1.0000 0.15050  0.03110  0.96690  Biso   1.000  H
  H184     1.0000 0.23470  0.10470  0.89630  Biso   1.000  H
  H185     1.0000 0.53800  0.76220  0.18320  Biso   1.000  H
  H186     1.0000 0.59920  0.75000  0.05780  Biso   1.000  H
  H187     1.0000 0.65730  0.68530  0.14850  Biso   1.000  H
  H188     1.0000 0.62320  0.82160  0.08480  Biso   1.000  H
  H189     1.0000 0.34010  0.86790  0.15470  Biso   1.000  H
  H190     1.0000 0.39670  0.85630  0.03050  Biso   1.000  H
  H191     1.0000 0.35150  0.96690  0.03110  Biso   1.000  H
  H192     1.0000 0.26430  0.89630  0.10470  Biso   1.000  H
  H193     1.0000 0.03800  0.01660  0.68320  Biso   1.000  H
  H194     1.0000 0.09920  0.09300  0.55780  Biso   1.000  H
  H195     1.0000 0.15730  0.00890  0.64850  Biso   1.000  H
  H196     1.0000 0.12320  0.97040  0.58480  Biso   1.000  H
  H197     1.0000 0.84010  0.13730  0.65470  Biso   1.000  H
  H198     1.0000 0.89670  0.21650  0.53050  Biso   1.000  H
  H199     1.0000 0.85150  0.15050  0.53110  Biso   1.000  H
  H200     1.0000 0.76430  0.23470  0.60470  Biso   1.000  H
  H201     1.0000 0.51660  0.53800  0.26220  Biso   1.000  H
  H202     1.0000 0.59300  0.59920  0.25000  Biso   1.000  H
  H203     1.0000 0.50890  0.65730  0.18530  Biso   1.000  H
  H204     1.0000 0.47040  0.62320  0.32160  Biso   1.000  H
  H205     1.0000 0.63730  0.34010  0.36790  Biso   1.000  H
  H206     1.0000 0.71650  0.39670  0.35630  Biso   1.000  H
  H207     1.0000 0.65050  0.35150  0.46690  Biso   1.000  H
  H208     1.0000 0.73470  0.26430  0.39630  Biso   1.000  H
  H209     1.0000 0.18320  0.26220  0.53800  Biso   1.000  H
  H210     1.0000 0.05780  0.25000  0.59920  Biso   1.000  H
  H211     1.0000 0.14850  0.18530  0.65730  Biso   1.000  H
  H212     1.0000 0.08480  0.32160  0.62320  Biso   1.000  H
  H213     1.0000 0.15470  0.36790  0.34010  Biso   1.000  H
  H214     1.0000 0.03050  0.35630  0.39670  Biso   1.000  H
  H215     1.0000 0.03110  0.46690  0.35150  Biso   1.000  H
  H216     1.0000 0.10470  0.39630  0.26430  Biso   1.000  H
  H217     1.0000 0.76220  0.68320  0.01660  Biso   1.000  H
  H218     1.0000 0.75000  0.55780  0.09300  Biso   1.000  H
  H219     1.0000 0.68530  0.64850  0.00890  Biso   1.000  H
  H220     1.0000 0.82160  0.58480  0.97040  Biso   1.000  H
  H221     1.0000 0.86790  0.65470  0.13730  Biso   1.000  H
  H222     1.0000 0.85630  0.53050  0.21650  Biso   1.000  H
  H223     1.0000 0.96690  0.53110  0.15050  Biso   1.000  H
  H224     1.0000 0.89630  0.60470  0.23470  Biso   1.000  H
  H225     1.0000 0.03800  0.68320  0.26220  Biso   1.000  H
  H226     1.0000 0.09920  0.55780  0.25000  Biso   1.000  H
  H227     1.0000 0.15730  0.64850  0.18530  Biso   1.000  H
  H228     1.0000 0.12320  0.58480  0.32160  Biso   1.000  H
  H229     1.0000 0.84010  0.65470  0.36790  Biso   1.000  H
  H230     1.0000 0.89670  0.53050  0.35630  Biso   1.000  H
  H231     1.0000 0.85150  0.53110  0.46690  Biso   1.000  H
  H232     1.0000 0.76430  0.60470  0.39630  Biso   1.000  H
  H233     1.0000 0.51660  0.26220  0.68320  Biso   1.000  H
  H234     1.0000 0.59300  0.25000  0.55780  Biso   1.000  H
  H235     1.0000 0.50890  0.18530  0.64850  Biso   1.000  H
  H236     1.0000 0.47040  0.32160  0.58480  Biso   1.000  H
  H237     1.0000 0.63730  0.36790  0.65470  Biso   1.000  H
  H238     1.0000 0.71650  0.35630  0.53050  Biso   1.000  H
  H239     1.0000 0.65050  0.46690  0.53110  Biso   1.000  H
  H240     1.0000 0.73470  0.39630  0.60470  Biso   1.000  H
  H241     1.0000 0.18320  0.53800  0.01660  Biso   1.000  H
  H242     1.0000 0.05780  0.59920  0.09300  Biso   1.000  H
  H243     1.0000 0.14850  0.65730  0.00890  Biso   1.000  H
  H244     1.0000 0.08480  0.62320  0.97040  Biso   1.000  H
  H245     1.0000 0.15470  0.34010  0.13730  Biso   1.000  H
  H246     1.0000 0.03050  0.39670  0.21650  Biso   1.000  H
  H247     1.0000 0.03110  0.35150  0.15050  Biso   1.000  H
  H248     1.0000 0.10470  0.26430  0.23470  Biso   1.000  H
  H249     1.0000 0.76220  0.01660  0.53800  Biso   1.000  H
  H250     1.0000 0.75000  0.09300  0.59920  Biso   1.000  H
  H251     1.0000 0.68530  0.00890  0.65730  Biso   1.000  H
  H252     1.0000 0.82160  0.97040  0.62320  Biso   1.000  H
  H253     1.0000 0.86790  0.13730  0.34010  Biso   1.000  H
  H254     1.0000 0.85630  0.21650  0.39670  Biso   1.000  H
  H255     1.0000 0.96690  0.15050  0.35150  Biso   1.000  H
  H256     1.0000 0.89630  0.23470  0.26430  Biso   1.000  H
  H257     1.0000 0.03800  0.26220  0.01660  Biso   1.000  H
  H258     1.0000 0.09920  0.25000  0.09300  Biso   1.000  H
  H259     1.0000 0.15730  0.18530  0.00890  Biso   1.000  H
  H260     1.0000 0.12320  0.32160  0.97040  Biso   1.000  H
  H261     1.0000 0.84010  0.36790  0.13730  Biso   1.000  H
  H262     1.0000 0.89670  0.35630  0.21650  Biso   1.000  H
  H263     1.0000 0.85150  0.46690  0.15050  Biso   1.000  H
  H264     1.0000 0.76430  0.39630  0.23470  Biso   1.000  H
  H265     1.0000 0.51660  0.68320  0.53800  Biso   1.000  H
  H266     1.0000 0.59300  0.55780  0.59920  Biso   1.000  H
  H267     1.0000 0.50890  0.64850  0.65730  Biso   1.000  H
  H268     1.0000 0.47040  0.58480  0.62320  Biso   1.000  H
  H269     1.0000 0.63730  0.65470  0.34010  Biso   1.000  H
  H270     1.0000 0.71650  0.53050  0.39670  Biso   1.000  H
  H271     1.0000 0.65050  0.53110  0.35150  Biso   1.000  H
  H272     1.0000 0.73470  0.60470  0.26430  Biso   1.000  H
  H273     1.0000 0.18320  0.01660  0.26220  Biso   1.000  H
  H274     1.0000 0.05780  0.09300  0.25000  Biso   1.000  H
  H275     1.0000 0.14850  0.00890  0.18530  Biso   1.000  H
  H276     1.0000 0.08480  0.97040  0.32160  Biso   1.000  H
  H277     1.0000 0.15470  0.13730  0.36790  Biso   1.000  H
  H278     1.0000 0.03050  0.21650  0.35630  Biso   1.000  H
  H279     1.0000 0.03110  0.15050  0.46690  Biso   1.000  H
  H280     1.0000 0.10470  0.23470  0.39630  Biso   1.000  H
  H281     1.0000 0.76220  0.53800  0.68320  Biso   1.000  H
  H282     1.0000 0.75000  0.59920  0.55780  Biso   1.000  H
  H283     1.0000 0.68530  0.65730  0.64850  Biso   1.000  H
  H284     1.0000 0.82160  0.62320  0.58480  Biso   1.000  H
  H285     1.0000 0.86790  0.34010  0.65470  Biso   1.000  H
  H286     1.0000 0.85630  0.39670  0.53050  Biso   1.000  H
  H287     1.0000 0.96690  0.35150  0.53110  Biso   1.000  H
  H288     1.0000 0.89630  0.26430  0.60470  Biso   1.000  H
  H289     1.0000 0.98340  0.96200  0.81680  Biso   1.000  H
  H290     1.0000 0.90700  0.90080  0.94220  Biso   1.000  H
  H291     1.0000 0.99110  0.84270  0.85150  Biso   1.000  H
  H292     1.0000 0.02960  0.87680  0.91520  Biso   1.000  H
  H293     1.0000 0.86270  0.15990  0.84530  Biso   1.000  H
  H294     1.0000 0.78350  0.10330  0.96950  Biso   1.000  H
  H295     1.0000 0.84950  0.14850  0.96890  Biso   1.000  H
  H296     1.0000 0.76530  0.23570  0.89530  Biso   1.000  H
  H297     1.0000 0.46200  0.48340  0.23780  Biso   1.000  H
  H298     1.0000 0.40080  0.40700  0.25000  Biso   1.000  H
  H299     1.0000 0.34270  0.49110  0.31470  Biso   1.000  H
  H300     1.0000 0.37680  0.52960  0.17840  Biso   1.000  H
  H301     1.0000 0.65990  0.36270  0.13210  Biso   1.000  H
  H302     1.0000 0.60330  0.28350  0.14370  Biso   1.000  H
  H303     1.0000 0.64850  0.34950  0.03310  Biso   1.000  H
  H304     1.0000 0.73570  0.26530  0.10370  Biso   1.000  H
  H305     1.0000 0.73780  0.81680  0.96200  Biso   1.000  H
  H306     1.0000 0.75000  0.94220  0.90080  Biso   1.000  H
  H307     1.0000 0.81470  0.85150  0.84270  Biso   1.000  H
  H308     1.0000 0.67840  0.91520  0.87680  Biso   1.000  H
  H309     1.0000 0.63210  0.84530  0.15990  Biso   1.000  H
  H310     1.0000 0.64370  0.96950  0.10330  Biso   1.000  H
  H311     1.0000 0.53310  0.96890  0.14850  Biso   1.000  H
  H312     1.0000 0.60370  0.89530  0.23570  Biso   1.000  H
  H313     1.0000 0.31680  0.23780  0.48340  Biso   1.000  H
  H314     1.0000 0.44220  0.25000  0.40700  Biso   1.000  H
  H315     1.0000 0.35150  0.31470  0.49110  Biso   1.000  H
  H316     1.0000 0.41520  0.17840  0.52960  Biso   1.000  H
  H317     1.0000 0.34530  0.13210  0.36270  Biso   1.000  H
  H318     1.0000 0.46950  0.14370  0.28350  Biso   1.000  H
  H319     1.0000 0.46890  0.03310  0.34950  Biso   1.000  H
  H320     1.0000 0.39530  0.10370  0.26530  Biso   1.000  H
  H321     1.0000 0.31680  0.96200  0.23780  Biso   1.000  H
  H322     1.0000 0.44220  0.90080  0.25000  Biso   1.000  H
  H323     1.0000 0.35150  0.84270  0.31470  Biso   1.000  H
  H324     1.0000 0.41520  0.87680  0.17840  Biso   1.000  H
  H325     1.0000 0.34530  0.15990  0.13210  Biso   1.000  H
  H326     1.0000 0.46950  0.10330  0.14370  Biso   1.000  H
  H327     1.0000 0.46890  0.14850  0.03310  Biso   1.000  H
  H328     1.0000 0.39530  0.23570  0.10370  Biso   1.000  H
  H329     1.0000 0.73780  0.48340  0.81680  Biso   1.000  H
  H330     1.0000 0.75000  0.40700  0.94220  Biso   1.000  H
  H331     1.0000 0.81470  0.49110  0.85150  Biso   1.000  H
  H332     1.0000 0.67840  0.52960  0.91520  Biso   1.000  H
  H333     1.0000 0.63210  0.36270  0.84530  Biso   1.000  H
  H334     1.0000 0.64370  0.28350  0.96950  Biso   1.000  H
  H335     1.0000 0.53310  0.34950  0.96890  Biso   1.000  H
  H336     1.0000 0.60370  0.26530  0.89530  Biso   1.000  H
  H337     1.0000 0.46200  0.81680  0.48340  Biso   1.000  H
  H338     1.0000 0.40080  0.94220  0.40700  Biso   1.000  H
  H339     1.0000 0.34270  0.85150  0.49110  Biso   1.000  H
  H340     1.0000 0.37680  0.91520  0.52960  Biso   1.000  H
  H341     1.0000 0.65990  0.84530  0.36270  Biso   1.000  H
  H342     1.0000 0.60330  0.96950  0.28350  Biso   1.000  H
  H343     1.0000 0.64850  0.96890  0.34950  Biso   1.000  H
  H344     1.0000 0.73570  0.89530  0.26530  Biso   1.000  H
  H345     1.0000 0.98340  0.23780  0.96200  Biso   1.000  H
  H346     1.0000 0.90700  0.25000  0.90080  Biso   1.000  H
  H347     1.0000 0.99110  0.31470  0.84270  Biso   1.000  H
  H348     1.0000 0.02960  0.17840  0.87680  Biso   1.000  H
  H349     1.0000 0.86270  0.13210  0.15990  Biso   1.000  H
  H350     1.0000 0.78350  0.14370  0.10330  Biso   1.000  H
  H351     1.0000 0.84950  0.03310  0.14850  Biso   1.000  H
  H352     1.0000 0.76530  0.10370  0.23570  Biso   1.000  H
  H353     1.0000 0.73780  0.96200  0.48340  Biso   1.000  H
  H354     1.0000 0.75000  0.90080  0.40700  Biso   1.000  H
  H355     1.0000 0.81470  0.84270  0.49110  Biso   1.000  H
  H356     1.0000 0.67840  0.87680  0.52960  Biso   1.000  H
  H357     1.0000 0.63210  0.15990  0.36270  Biso   1.000  H
  H358     1.0000 0.64370  0.10330  0.28350  Biso   1.000  H
  H359     1.0000 0.53310  0.14850  0.34950  Biso   1.000  H
  H360     1.0000 0.60370  0.23570  0.26530  Biso   1.000  H
  H361     1.0000 0.31680  0.48340  0.96200  Biso   1.000  H
  H362     1.0000 0.44220  0.40700  0.90080  Biso   1.000  H
  H363     1.0000 0.35150  0.49110  0.84270  Biso   1.000  H
  H364     1.0000 0.41520  0.52960  0.87680  Biso   1.000  H
  H365     1.0000 0.34530  0.36270  0.15990  Biso   1.000  H
  H366     1.0000 0.46950  0.28350  0.10330  Biso   1.000  H
  H367     1.0000 0.46890  0.34950  0.14850  Biso   1.000  H
  H368     1.0000 0.39530  0.26530  0.23570  Biso   1.000  H
  H369     1.0000 0.98340  0.81680  0.23780  Biso   1.000  H
  H370     1.0000 0.90700  0.94220  0.25000  Biso   1.000  H
  H371     1.0000 0.99110  0.85150  0.31470  Biso   1.000  H
  H372     1.0000 0.02960  0.91520  0.17840  Biso   1.000  H
  H373     1.0000 0.86270  0.84530  0.13210  Biso   1.000  H
  H374     1.0000 0.78350  0.96950  0.14370  Biso   1.000  H
  H375     1.0000 0.84950  0.96890  0.03310  Biso   1.000  H
  H376     1.0000 0.76530  0.89530  0.10370  Biso   1.000  H
  H377     1.0000 0.46200  0.23780  0.81680  Biso   1.000  H
  H378     1.0000 0.40080  0.25000  0.94220  Biso   1.000  H
  H379     1.0000 0.34270  0.31470  0.85150  Biso   1.000  H
  H380     1.0000 0.37680  0.17840  0.91520  Biso   1.000  H
  H381     1.0000 0.65990  0.13210  0.84530  Biso   1.000  H
  H382     1.0000 0.60330  0.14370  0.96950  Biso   1.000  H
  H383     1.0000 0.64850  0.03310  0.96890  Biso   1.000  H
  H384     1.0000 0.73570  0.10370  0.89530  Biso   1.000  H
  C1       1.0000 0.95699  0.95825  0.34485  Biso   1.000  C
  C2       1.0000 0.92348  0.91674  0.41346  Biso   1.000  C
  C3       1.0000 0.84171  0.00721  0.36711  Biso   1.000  C
  C4       1.0000 0.85994  0.02796  0.40212  Biso   1.000  C
  C5       1.0000 0.13967  0.84637  0.37071  Biso   1.000  C
  C6       1.0000 0.10865  0.80357  0.43813  Biso   1.000  C
  C7       1.0000 0.17606  0.82892  0.45436  Biso   1.000  C
  C8       1.0000 0.22325  0.78321  0.41441  Biso   1.000  C
  C9       1.0000 0.45825  0.45699  0.73991  Biso   1.000  C
  C10      1.0000 0.41674  0.42348  0.74632  Biso   1.000  C
  C11      1.0000 0.50721  0.34171  0.78397  Biso   1.000  C
  C12      1.0000 0.52796  0.35994  0.70998  Biso   1.000  C
  C13      1.0000 0.34637  0.63967  0.64325  Biso   1.000  C
  C14      1.0000 0.30357  0.60865  0.64965  Biso   1.000  C
  C15      1.0000 0.32892  0.67606  0.54066  Biso   1.000  C
  C16      1.0000 0.28321  0.72325  0.57913  Biso   1.000  C
  C17      1.0000 0.84485  0.73991  0.45699  Biso   1.000  C
  C18      1.0000 0.91346  0.74632  0.42348  Biso   1.000  C
  C19      1.0000 0.86711  0.78397  0.34171  Biso   1.000  C
  C20      1.0000 0.90212  0.70998  0.35994  Biso   1.000  C
  C21      1.0000 0.87071  0.64325  0.63967  Biso   1.000  C
  C22      1.0000 0.93813  0.64965  0.60865  Biso   1.000  C
  C23      1.0000 0.95436  0.54066  0.67606  Biso   1.000  C
  C24      1.0000 0.91441  0.57913  0.72325  Biso   1.000  C
  C25      1.0000 0.23991  0.34485  0.95825  Biso   1.000  C
  C26      1.0000 0.24632  0.41346  0.91674  Biso   1.000  C
  C27      1.0000 0.28397  0.36711  0.00721  Biso   1.000  C
  C28      1.0000 0.20998  0.40212  0.02796  Biso   1.000  C
  C29      1.0000 0.14325  0.37071  0.84637  Biso   1.000  C
  C30      1.0000 0.14965  0.43813  0.80357  Biso   1.000  C
  C31      1.0000 0.04066  0.45436  0.82892  Biso   1.000  C
  C32      1.0000 0.07913  0.41441  0.78321  Biso   1.000  C
  C33      1.0000 0.95699  0.34485  0.73991  Biso   1.000  C
  C34      1.0000 0.92348  0.41346  0.74632  Biso   1.000  C
  C35      1.0000 0.84171  0.36711  0.78397  Biso   1.000  C
  C36      1.0000 0.85994  0.40212  0.70998  Biso   1.000  C
  C37      1.0000 0.13967  0.37071  0.64325  Biso   1.000  C
  C38      1.0000 0.10865  0.43813  0.64965  Biso   1.000  C
  C39      1.0000 0.17606  0.45436  0.54066  Biso   1.000  C
  C40      1.0000 0.22325  0.41441  0.57913  Biso   1.000  C
  C41      1.0000 0.45825  0.73991  0.34485  Biso   1.000  C
  C42      1.0000 0.41674  0.74632  0.41346  Biso   1.000  C
  C43      1.0000 0.50721  0.78397  0.36711  Biso   1.000  C
  C44      1.0000 0.52796  0.70998  0.40212  Biso   1.000  C
  C45      1.0000 0.34637  0.64325  0.37071  Biso   1.000  C
  C46      1.0000 0.30357  0.64965  0.43813  Biso   1.000  C
  C47      1.0000 0.32892  0.54066  0.45436  Biso   1.000  C
  C48      1.0000 0.28321  0.57913  0.41441  Biso   1.000  C
  C49      1.0000 0.84485  0.45699  0.95825  Biso   1.000  C
  C50      1.0000 0.91346  0.42348  0.91674  Biso   1.000  C
  C51      1.0000 0.86711  0.34171  0.00721  Biso   1.000  C
  C52      1.0000 0.90212  0.35994  0.02796  Biso   1.000  C
  C53      1.0000 0.87071  0.63967  0.84637  Biso   1.000  C
  C54      1.0000 0.93813  0.60865  0.80357  Biso   1.000  C
  C55      1.0000 0.95436  0.67606  0.82892  Biso   1.000  C
  C56      1.0000 0.91441  0.72325  0.78321  Biso   1.000  C
  C57      1.0000 0.23991  0.95825  0.45699  Biso   1.000  C
  C58      1.0000 0.24632  0.91674  0.42348  Biso   1.000  C
  C59      1.0000 0.28397  0.00721  0.34171  Biso   1.000  C
  C60      1.0000 0.20998  0.02796  0.35994  Biso   1.000  C
  C61      1.0000 0.14325  0.84637  0.63967  Biso   1.000  C
  C62      1.0000 0.14965  0.80357  0.60865  Biso   1.000  C
  C63      1.0000 0.04066  0.82892  0.67606  Biso   1.000  C
  C64      1.0000 0.07913  0.78321  0.72325  Biso   1.000  C
  C65      1.0000 0.95699  0.73991  0.95825  Biso   1.000  C
  C66      1.0000 0.92348  0.74632  0.91674  Biso   1.000  C
  C67      1.0000 0.84171  0.78397  0.00721  Biso   1.000  C
  C68      1.0000 0.85994  0.70998  0.02796  Biso   1.000  C
  C69      1.0000 0.13967  0.64325  0.84637  Biso   1.000  C
  C70      1.0000 0.10865  0.64965  0.80357  Biso   1.000  C
  C71      1.0000 0.17606  0.54066  0.82892  Biso   1.000  C
  C72      1.0000 0.22325  0.57913  0.78321  Biso   1.000  C
  C73      1.0000 0.45825  0.34485  0.45699  Biso   1.000  C
  C74      1.0000 0.41674  0.41346  0.42348  Biso   1.000  C
  C75      1.0000 0.50721  0.36711  0.34171  Biso   1.000  C
  C76      1.0000 0.52796  0.40212  0.35994  Biso   1.000  C
  C77      1.0000 0.34637  0.37071  0.63967  Biso   1.000  C
  C78      1.0000 0.30357  0.43813  0.60865  Biso   1.000  C
  C79      1.0000 0.32892  0.45436  0.67606  Biso   1.000  C
  C80      1.0000 0.28321  0.41441  0.72325  Biso   1.000  C
  C81      1.0000 0.84485  0.95825  0.73991  Biso   1.000  C
  C82      1.0000 0.91346  0.91674  0.74632  Biso   1.000  C
  C83      1.0000 0.86711  0.00721  0.78397  Biso   1.000  C
  C84      1.0000 0.90212  0.02796  0.70998  Biso   1.000  C
  C85      1.0000 0.87071  0.84637  0.64325  Biso   1.000  C
  C86      1.0000 0.93813  0.80357  0.64965  Biso   1.000  C
  C87      1.0000 0.95436  0.82892  0.54066  Biso   1.000  C
  C88      1.0000 0.91441  0.78321  0.57913  Biso   1.000  C
  C89      1.0000 0.23991  0.45699  0.34485  Biso   1.000  C
  C90      1.0000 0.24632  0.42348  0.41346  Biso   1.000  C
  C91      1.0000 0.28397  0.34171  0.36711  Biso   1.000  C
  C92      1.0000 0.20998  0.35994  0.40212  Biso   1.000  C
  C93      1.0000 0.14325  0.63967  0.37071  Biso   1.000  C
  C94      1.0000 0.14965  0.60865  0.43813  Biso   1.000  C
  C95      1.0000 0.04066  0.67606  0.45436  Biso   1.000  C
  C96      1.0000 0.07913  0.72325  0.41441  Biso   1.000  C
  C97      1.0000 0.04175  0.04301  0.15515  Biso   1.000  C
  C98      1.0000 0.08326  0.07652  0.08654  Biso   1.000  C
  C99      1.0000 0.99279  0.15829  0.13289  Biso   1.000  C
  C100     1.0000 0.97204  0.14006  0.09788  Biso   1.000  C
  C101     1.0000 0.15363  0.86033  0.12929  Biso   1.000  C
  C102     1.0000 0.19643  0.89135  0.06187  Biso   1.000  C
  C103     1.0000 0.17108  0.82394  0.04564  Biso   1.000  C
  C104     1.0000 0.21679  0.77675  0.08559  Biso   1.000  C
  C105     1.0000 0.54301  0.54175  0.76009  Biso   1.000  C
  C106     1.0000 0.57652  0.58326  0.75368  Biso   1.000  C
  C107     1.0000 0.65829  0.49279  0.71603  Biso   1.000  C
  C108     1.0000 0.64006  0.47204  0.79002  Biso   1.000  C
  C109     1.0000 0.36033  0.65363  0.85675  Biso   1.000  C
  C110     1.0000 0.39135  0.69643  0.85035  Biso   1.000  C
  C111     1.0000 0.32394  0.67108  0.95934  Biso   1.000  C
  C112     1.0000 0.27675  0.71679  0.92087  Biso   1.000  C
  C113     1.0000 0.26009  0.15515  0.04301  Biso   1.000  C
  C114     1.0000 0.25368  0.08654  0.07652  Biso   1.000  C
  C115     1.0000 0.21603  0.13289  0.15829  Biso   1.000  C
  C116     1.0000 0.29002  0.09788  0.14006  Biso   1.000  C
  C117     1.0000 0.35675  0.12929  0.86033  Biso   1.000  C
  C118     1.0000 0.35035  0.06187  0.89135  Biso   1.000  C
  C119     1.0000 0.45934  0.04564  0.82394  Biso   1.000  C
  C120     1.0000 0.42087  0.08559  0.77675  Biso   1.000  C
  C121     1.0000 0.65515  0.76009  0.54175  Biso   1.000  C
  C122     1.0000 0.58654  0.75368  0.58326  Biso   1.000  C
  C123     1.0000 0.63289  0.71603  0.49279  Biso   1.000  C
  C124     1.0000 0.59788  0.79002  0.47204  Biso   1.000  C
  C125     1.0000 0.62929  0.85675  0.65363  Biso   1.000  C
  C126     1.0000 0.56187  0.85035  0.69643  Biso   1.000  C
  C127     1.0000 0.54564  0.95934  0.67108  Biso   1.000  C
  C128     1.0000 0.58559  0.92087  0.71679  Biso   1.000  C
  C129     1.0000 0.65515  0.04301  0.76009  Biso   1.000  C
  C130     1.0000 0.58654  0.07652  0.75368  Biso   1.000  C
  C131     1.0000 0.63289  0.15829  0.71603  Biso   1.000  C
  C132     1.0000 0.59788  0.14006  0.79002  Biso   1.000  C
  C133     1.0000 0.62929  0.86033  0.85675  Biso   1.000  C
  C134     1.0000 0.56187  0.89135  0.85035  Biso   1.000  C
  C135     1.0000 0.54564  0.82394  0.95934  Biso   1.000  C
  C136     1.0000 0.58559  0.77675  0.92087  Biso   1.000  C
  C137     1.0000 0.26009  0.54175  0.15515  Biso   1.000  C
  C138     1.0000 0.25368  0.58326  0.08654  Biso   1.000  C
  C139     1.0000 0.21603  0.49279  0.13289  Biso   1.000  C
  C140     1.0000 0.29002  0.47204  0.09788  Biso   1.000  C
  C141     1.0000 0.35675  0.65363  0.12929  Biso   1.000  C
  C142     1.0000 0.35035  0.69643  0.06187  Biso   1.000  C
  C143     1.0000 0.45934  0.67108  0.04564  Biso   1.000  C
  C144     1.0000 0.42087  0.71679  0.08559  Biso   1.000  C
  C145     1.0000 0.54301  0.15515  0.54175  Biso   1.000  C
  C146     1.0000 0.57652  0.08654  0.58326  Biso   1.000  C
  C147     1.0000 0.65829  0.13289  0.49279  Biso   1.000  C
  C148     1.0000 0.64006  0.09788  0.47204  Biso   1.000  C
  C149     1.0000 0.36033  0.12929  0.65363  Biso   1.000  C
  C150     1.0000 0.39135  0.06187  0.69643  Biso   1.000  C
  C151     1.0000 0.32394  0.04564  0.67108  Biso   1.000  C
  C152     1.0000 0.27675  0.08559  0.71679  Biso   1.000  C
  C153     1.0000 0.04175  0.76009  0.04301  Biso   1.000  C
  C154     1.0000 0.08326  0.75368  0.07652  Biso   1.000  C
  C155     1.0000 0.99279  0.71603  0.15829  Biso   1.000  C
  C156     1.0000 0.97204  0.79002  0.14006  Biso   1.000  C
  C157     1.0000 0.15363  0.85675  0.86033  Biso   1.000  C
  C158     1.0000 0.19643  0.85035  0.89135  Biso   1.000  C
  C159     1.0000 0.17108  0.95934  0.82394  Biso   1.000  C
  C160     1.0000 0.21679  0.92087  0.77675  Biso   1.000  C
  C161     1.0000 0.26009  0.04301  0.54175  Biso   1.000  C
  C162     1.0000 0.25368  0.07652  0.58326  Biso   1.000  C
  C163     1.0000 0.21603  0.15829  0.49279  Biso   1.000  C
  C164     1.0000 0.29002  0.14006  0.47204  Biso   1.000  C
  C165     1.0000 0.35675  0.86033  0.65363  Biso   1.000  C
  C166     1.0000 0.35035  0.89135  0.69643  Biso   1.000  C
  C167     1.0000 0.45934  0.82394  0.67108  Biso   1.000  C
  C168     1.0000 0.42087  0.77675  0.71679  Biso   1.000  C
  C169     1.0000 0.65515  0.54175  0.04301  Biso   1.000  C
  C170     1.0000 0.58654  0.58326  0.07652  Biso   1.000  C
  C171     1.0000 0.63289  0.49279  0.15829  Biso   1.000  C
  C172     1.0000 0.59788  0.47204  0.14006  Biso   1.000  C
  C173     1.0000 0.62929  0.65363  0.86033  Biso   1.000  C
  C174     1.0000 0.56187  0.69643  0.89135  Biso   1.000  C
  C175     1.0000 0.54564  0.67108  0.82394  Biso   1.000  C
  C176     1.0000 0.58559  0.71679  0.77675  Biso   1.000  C
  C177     1.0000 0.04175  0.15515  0.76009  Biso   1.000  C
  C178     1.0000 0.08326  0.08654  0.75368  Biso   1.000  C
  C179     1.0000 0.99279  0.13289  0.71603  Biso   1.000  C
  C180     1.0000 0.97204  0.09788  0.79002  Biso   1.000  C
  C181     1.0000 0.15363  0.12929  0.85675  Biso   1.000  C
  C182     1.0000 0.19643  0.06187  0.85035  Biso   1.000  C
  C183     1.0000 0.17108  0.04564  0.95934  Biso   1.000  C
  C184     1.0000 0.21679  0.08559  0.92087  Biso   1.000  C
  C185     1.0000 0.54301  0.76009  0.15515  Biso   1.000  C
  C186     1.0000 0.57652  0.75368  0.08654  Biso   1.000  C
  C187     1.0000 0.65829  0.71603  0.13289  Biso   1.000  C
  C188     1.0000 0.64006  0.79002  0.09788  Biso   1.000  C
  C189     1.0000 0.36033  0.85675  0.12929  Biso   1.000  C
  C190     1.0000 0.39135  0.85035  0.06187  Biso   1.000  C
  C191     1.0000 0.32394  0.95934  0.04564  Biso   1.000  C
  C192     1.0000 0.27675  0.92087  0.08559  Biso   1.000  C
  C193     1.0000 0.04301  0.04175  0.65515  Biso   1.000  C
  C194     1.0000 0.07652  0.08326  0.58654  Biso   1.000  C
  C195     1.0000 0.15829  0.99279  0.63289  Biso   1.000  C
  C196     1.0000 0.14006  0.97204  0.59788  Biso   1.000  C
  C197     1.0000 0.86033  0.15363  0.62929  Biso   1.000  C
  C198     1.0000 0.89135  0.19643  0.56187  Biso   1.000  C
  C199     1.0000 0.82394  0.17108  0.54564  Biso   1.000  C
  C200     1.0000 0.77675  0.21679  0.58559  Biso   1.000  C
  C201     1.0000 0.54175  0.54301  0.26009  Biso   1.000  C
  C202     1.0000 0.58326  0.57652  0.25368  Biso   1.000  C
  C203     1.0000 0.49279  0.65829  0.21603  Biso   1.000  C
  C204     1.0000 0.47204  0.64006  0.29002  Biso   1.000  C
  C205     1.0000 0.65363  0.36033  0.35675  Biso   1.000  C
  C206     1.0000 0.69643  0.39135  0.35035  Biso   1.000  C
  C207     1.0000 0.67108  0.32394  0.45934  Biso   1.000  C
  C208     1.0000 0.71679  0.27675  0.42087  Biso   1.000  C
  C209     1.0000 0.15515  0.26009  0.54301  Biso   1.000  C
  C210     1.0000 0.08654  0.25368  0.57652  Biso   1.000  C
  C211     1.0000 0.13289  0.21603  0.65829  Biso   1.000  C
  C212     1.0000 0.09788  0.29002  0.64006  Biso   1.000  C
  C213     1.0000 0.12929  0.35675  0.36033  Biso   1.000  C
  C214     1.0000 0.06187  0.35035  0.39135  Biso   1.000  C
  C215     1.0000 0.04564  0.45934  0.32394  Biso   1.000  C
  C216     1.0000 0.08559  0.42087  0.27675  Biso   1.000  C
  C217     1.0000 0.76009  0.65515  0.04175  Biso   1.000  C
  C218     1.0000 0.75368  0.58654  0.08326  Biso   1.000  C
  C219     1.0000 0.71603  0.63289  0.99279  Biso   1.000  C
  C220     1.0000 0.79002  0.59788  0.97204  Biso   1.000  C
  C221     1.0000 0.85675  0.62929  0.15363  Biso   1.000  C
  C222     1.0000 0.85035  0.56187  0.19643  Biso   1.000  C
  C223     1.0000 0.95934  0.54564  0.17108  Biso   1.000  C
  C224     1.0000 0.92087  0.58559  0.21679  Biso   1.000  C
  C225     1.0000 0.04301  0.65515  0.26009  Biso   1.000  C
  C226     1.0000 0.07652  0.58654  0.25368  Biso   1.000  C
  C227     1.0000 0.15829  0.63289  0.21603  Biso   1.000  C
  C228     1.0000 0.14006  0.59788  0.29002  Biso   1.000  C
  C229     1.0000 0.86033  0.62929  0.35675  Biso   1.000  C
  C230     1.0000 0.89135  0.56187  0.35035  Biso   1.000  C
  C231     1.0000 0.82394  0.54564  0.45934  Biso   1.000  C
  C232     1.0000 0.77675  0.58559  0.42087  Biso   1.000  C
  C233     1.0000 0.54175  0.26009  0.65515  Biso   1.000  C
  C234     1.0000 0.58326  0.25368  0.58654  Biso   1.000  C
  C235     1.0000 0.49279  0.21603  0.63289  Biso   1.000  C
  C236     1.0000 0.47204  0.29002  0.59788  Biso   1.000  C
  C237     1.0000 0.65363  0.35675  0.62929  Biso   1.000  C
  C238     1.0000 0.69643  0.35035  0.56187  Biso   1.000  C
  C239     1.0000 0.67108  0.45934  0.54564  Biso   1.000  C
  C240     1.0000 0.71679  0.42087  0.58559  Biso   1.000  C
  C241     1.0000 0.15515  0.54301  0.04175  Biso   1.000  C
  C242     1.0000 0.08654  0.57652  0.08326  Biso   1.000  C
  C243     1.0000 0.13289  0.65829  0.99279  Biso   1.000  C
  C244     1.0000 0.09788  0.64006  0.97204  Biso   1.000  C
  C245     1.0000 0.12929  0.36033  0.15363  Biso   1.000  C
  C246     1.0000 0.06187  0.39135  0.19643  Biso   1.000  C
  C247     1.0000 0.04564  0.32394  0.17108  Biso   1.000  C
  C248     1.0000 0.08559  0.27675  0.21679  Biso   1.000  C
  C249     1.0000 0.76009  0.04175  0.54301  Biso   1.000  C
  C250     1.0000 0.75368  0.08326  0.57652  Biso   1.000  C
  C251     1.0000 0.71603  0.99279  0.65829  Biso   1.000  C
  C252     1.0000 0.79002  0.97204  0.64006  Biso   1.000  C
  C253     1.0000 0.85675  0.15363  0.36033  Biso   1.000  C
  C254     1.0000 0.85035  0.19643  0.39135  Biso   1.000  C
  C255     1.0000 0.95934  0.17108  0.32394  Biso   1.000  C
  C256     1.0000 0.92087  0.21679  0.27675  Biso   1.000  C
  C257     1.0000 0.04301  0.26009  0.04175  Biso   1.000  C
  C258     1.0000 0.07652  0.25368  0.08326  Biso   1.000  C
  C259     1.0000 0.15829  0.21603  0.99279  Biso   1.000  C
  C260     1.0000 0.14006  0.29002  0.97204  Biso   1.000  C
  C261     1.0000 0.86033  0.35675  0.15363  Biso   1.000  C
  C262     1.0000 0.89135  0.35035  0.19643  Biso   1.000  C
  C263     1.0000 0.82394  0.45934  0.17108  Biso   1.000  C
  C264     1.0000 0.77675  0.42087  0.21679  Biso   1.000  C
  C265     1.0000 0.54175  0.65515  0.54301  Biso   1.000  C
  C266     1.0000 0.58326  0.58654  0.57652  Biso   1.000  C
  C267     1.0000 0.49279  0.63289  0.65829  Biso   1.000  C
  C268     1.0000 0.47204  0.59788  0.64006  Biso   1.000  C
  C269     1.0000 0.65363  0.62929  0.36033  Biso   1.000  C
  C270     1.0000 0.69643  0.56187  0.39135  Biso   1.000  C
  C271     1.0000 0.67108  0.54564  0.32394  Biso   1.000  C
  C272     1.0000 0.71679  0.58559  0.27675  Biso   1.000  C
  C273     1.0000 0.15515  0.04175  0.26009  Biso   1.000  C
  C274     1.0000 0.08654  0.08326  0.25368  Biso   1.000  C
  C275     1.0000 0.13289  0.99279  0.21603  Biso   1.000  C
  C276     1.0000 0.09788  0.97204  0.29002  Biso   1.000  C
  C277     1.0000 0.12929  0.15363  0.35675  Biso   1.000  C
  C278     1.0000 0.06187  0.19643  0.35035  Biso   1.000  C
  C279     1.0000 0.04564  0.17108  0.45934  Biso   1.000  C
  C280     1.0000 0.08559  0.21679  0.42087  Biso   1.000  C
  C281     1.0000 0.76009  0.54301  0.65515  Biso   1.000  C
  C282     1.0000 0.75368  0.57652  0.58654  Biso   1.000  C
  C283     1.0000 0.71603  0.65829  0.63289  Biso   1.000  C
  C284     1.0000 0.79002  0.64006  0.59788  Biso   1.000  C
  C285     1.0000 0.85675  0.36033  0.62929  Biso   1.000  C
  C286     1.0000 0.85035  0.39135  0.56187  Biso   1.000  C
  C287     1.0000 0.95934  0.32394  0.54564  Biso   1.000  C
  C288     1.0000 0.92087  0.27675  0.58559  Biso   1.000  C
  C289     1.0000 0.95825  0.95699  0.84485  Biso   1.000  C
  C290     1.0000 0.91674  0.92348  0.91346  Biso   1.000  C
  C291     1.0000 0.00721  0.84171  0.86711  Biso   1.000  C
  C292     1.0000 0.02796  0.85994  0.90212  Biso   1.000  C
  C293     1.0000 0.84637  0.13967  0.87071  Biso   1.000  C
  C294     1.0000 0.80357  0.10865  0.93813  Biso   1.000  C
  C295     1.0000 0.82892  0.17606  0.95436  Biso   1.000  C
  C296     1.0000 0.78321  0.22325  0.91441  Biso   1.000  C
  C297     1.0000 0.45699  0.45825  0.23991  Biso   1.000  C
  C298     1.0000 0.42348  0.41674  0.24632  Biso   1.000  C
  C299     1.0000 0.34171  0.50721  0.28397  Biso   1.000  C
  C300     1.0000 0.35994  0.52796  0.20998  Biso   1.000  C
  C301     1.0000 0.63967  0.34637  0.14325  Biso   1.000  C
  C302     1.0000 0.60865  0.30357  0.14965  Biso   1.000  C
  C303     1.0000 0.67606  0.32892  0.04066  Biso   1.000  C
  C304     1.0000 0.72325  0.28321  0.07913  Biso   1.000  C
  C305     1.0000 0.73991  0.84485  0.95699  Biso   1.000  C
  C306     1.0000 0.74632  0.91346  0.92348  Biso   1.000  C
  C307     1.0000 0.78397  0.86711  0.84171  Biso   1.000  C
  C308     1.0000 0.70998  0.90212  0.85994  Biso   1.000  C
  C309     1.0000 0.64325  0.87071  0.13967  Biso   1.000  C
  C310     1.0000 0.64965  0.93813  0.10865  Biso   1.000  C
  C311     1.0000 0.54066  0.95436  0.17606  Biso   1.000  C
  C312     1.0000 0.57913  0.91441  0.22325  Biso   1.000  C
  C313     1.0000 0.34485  0.23991  0.45825  Biso   1.000  C
  C314     1.0000 0.41346  0.24632  0.41674  Biso   1.000  C
  C315     1.0000 0.36711  0.28397  0.50721  Biso   1.000  C
  C316     1.0000 0.40212  0.20998  0.52796  Biso   1.000  C
  C317     1.0000 0.37071  0.14325  0.34637  Biso   1.000  C
  C318     1.0000 0.43813  0.14965  0.30357  Biso   1.000  C
  C319     1.0000 0.45436  0.04066  0.32892  Biso   1.000  C
  C320     1.0000 0.41441  0.07913  0.28321  Biso   1.000  C
  C321     1.0000 0.34485  0.95699  0.23991  Biso   1.000  C
  C322     1.0000 0.41346  0.92348  0.24632  Biso   1.000  C
  C323     1.0000 0.36711  0.84171  0.28397  Biso   1.000  C
  C324     1.0000 0.40212  0.85994  0.20998  Biso   1.000  C
  C325     1.0000 0.37071  0.13967  0.14325  Biso   1.000  C
  C326     1.0000 0.43813  0.10865  0.14965  Biso   1.000  C
  C327     1.0000 0.45436  0.17606  0.04066  Biso   1.000  C
  C328     1.0000 0.41441  0.22325  0.07913  Biso   1.000  C
  C329     1.0000 0.73991  0.45825  0.84485  Biso   1.000  C
  C330     1.0000 0.74632  0.41674  0.91346  Biso   1.000  C
  C331     1.0000 0.78397  0.50721  0.86711  Biso   1.000  C
  C332     1.0000 0.70998  0.52796  0.90212  Biso   1.000  C
  C333     1.0000 0.64325  0.34637  0.87071  Biso   1.000  C
  C334     1.0000 0.64965  0.30357  0.93813  Biso   1.000  C
  C335     1.0000 0.54066  0.32892  0.95436  Biso   1.000  C
  C336     1.0000 0.57913  0.28321  0.91441  Biso   1.000  C
  C337     1.0000 0.45699  0.84485  0.45825  Biso   1.000  C
  C338     1.0000 0.42348  0.91346  0.41674  Biso   1.000  C
  C339     1.0000 0.34171  0.86711  0.50721  Biso   1.000  C
  C340     1.0000 0.35994  0.90212  0.52796  Biso   1.000  C
  C341     1.0000 0.63967  0.87071  0.34637  Biso   1.000  C
  C342     1.0000 0.60865  0.93813  0.30357  Biso   1.000  C
  C343     1.0000 0.67606  0.95436  0.32892  Biso   1.000  C
  C344     1.0000 0.72325  0.91441  0.28321  Biso   1.000  C
  C345     1.0000 0.95825  0.23991  0.95699  Biso   1.000  C
  C346     1.0000 0.91674  0.24632  0.92348  Biso   1.000  C
  C347     1.0000 0.00721  0.28397  0.84171  Biso   1.000  C
  C348     1.0000 0.02796  0.20998  0.85994  Biso   1.000  C
  C349     1.0000 0.84637  0.14325  0.13967  Biso   1.000  C
  C350     1.0000 0.80357  0.14965  0.10865  Biso   1.000  C
  C351     1.0000 0.82892  0.04066  0.17606  Biso   1.000  C
  C352     1.0000 0.78321  0.07913  0.22325  Biso   1.000  C
  C353     1.0000 0.73991  0.95699  0.45825  Biso   1.000  C
  C354     1.0000 0.74632  0.92348  0.41674  Biso   1.000  C
  C355     1.0000 0.78397  0.84171  0.50721  Biso   1.000  C
  C356     1.0000 0.70998  0.85994  0.52796  Biso   1.000  C
  C357     1.0000 0.64325  0.13967  0.34637  Biso   1.000  C
  C358     1.0000 0.64965  0.10865  0.30357  Biso   1.000  C
  C359     1.0000 0.54066  0.17606  0.32892  Biso   1.000  C
  C360     1.0000 0.57913  0.22325  0.28321  Biso   1.000  C
  C361     1.0000 0.34485  0.45825  0.95699  Biso   1.000  C
  C362     1.0000 0.41346  0.41674  0.92348  Biso   1.000  C
  C363     1.0000 0.36711  0.50721  0.84171  Biso   1.000  C
  C364     1.0000 0.40212  0.52796  0.85994  Biso   1.000  C
  C365     1.0000 0.37071  0.34637  0.13967  Biso   1.000  C
  C366     1.0000 0.43813  0.30357  0.10865  Biso   1.000  C
  C367     1.0000 0.45436  0.32892  0.17606  Biso   1.000  C
  C368     1.0000 0.41441  0.28321  0.22325  Biso   1.000  C
  C369     1.0000 0.95825  0.84485  0.23991  Biso   1.000  C
  C370     1.0000 0.91674  0.91346  0.24632  Biso   1.000  C
  C371     1.0000 0.00721  0.86711  0.28397  Biso   1.000  C
  C372     1.0000 0.02796  0.90212  0.20998  Biso   1.000  C
  C373     1.0000 0.84637  0.87071  0.14325  Biso   1.000  C
  C374     1.0000 0.80357  0.93813  0.14965  Biso   1.000  C
  C375     1.0000 0.82892  0.95436  0.04066  Biso   1.000  C
  C376     1.0000 0.78321  0.91441  0.07913  Biso   1.000  C
  C377     1.0000 0.45699  0.23991  0.84485  Biso   1.000  C
  C378     1.0000 0.42348  0.24632  0.91346  Biso   1.000  C
  C379     1.0000 0.34171  0.28397  0.86711  Biso   1.000  C
  C380     1.0000 0.35994  0.20998  0.90212  Biso   1.000  C
  C381     1.0000 0.63967  0.14325  0.87071  Biso   1.000  C
  C382     1.0000 0.60865  0.14965  0.93813  Biso   1.000  C
  C383     1.0000 0.67606  0.04066  0.95436  Biso   1.000  C
  C384     1.0000 0.72325  0.07913  0.91441  Biso   1.000  C
  N1       1.0000 0.98773  0.91819  0.35467  Biso   1.000  N
  N2       1.0000 0.96735  0.89113  0.39881  Biso   1.000  N
  N3       1.0000 0.91633  0.95899  0.38077  Biso   1.000  N
  N4       1.0000 0.87490  0.99566  0.38352  Biso   1.000  N
  N5       1.0000 0.80846  0.04382  0.37612  Biso   1.000  N
  N6       1.0000 0.81947  0.05625  0.39963  Biso   1.000  N
  N7       1.0000 0.10284  0.84568  0.37040  Biso   1.000  N
  N8       1.0000 0.08384  0.81858  0.41428  Biso   1.000  N
  N9       1.0000 0.14387  0.82061  0.41207  Biso   1.000  N
  N10      1.0000 0.17904  0.81194  0.42632  Biso   1.000  N
  N11      1.0000 0.21560  0.81362  0.45902  Biso   1.000  N
  N12      1.0000 0.24578  0.78452  0.43354  Biso   1.000  N
  N13      1.0000 0.41819  0.48773  0.73941  Biso   1.000  N
  N14      1.0000 0.39113  0.46735  0.74271  Biso   1.000  N
  N15      1.0000 0.45899  0.41633  0.74391  Biso   1.000  N
  N16      1.0000 0.49566  0.37490  0.74592  Biso   1.000  N
  N17      1.0000 0.54382  0.30846  0.77160  Biso   1.000  N
  N18      1.0000 0.55625  0.31947  0.72465  Biso   1.000  N
  N19      1.0000 0.34568  0.60284  0.68108  Biso   1.000  N
  N20      1.0000 0.31858  0.58384  0.68330  Biso   1.000  N
  N21      1.0000 0.32061  0.64387  0.62345  Biso   1.000  N
  N22      1.0000 0.31194  0.67904  0.58270  Biso   1.000  N
  N23      1.0000 0.31362  0.71560  0.51176  Biso   1.000  N
  N24      1.0000 0.28452  0.74578  0.53616  Biso   1.000  N
  N25      1.0000 0.85467  0.73941  0.48773  Biso   1.000  N
  N26      1.0000 0.89881  0.74271  0.46735  Biso   1.000  N
  N27      1.0000 0.88077  0.74391  0.41633  Biso   1.000  N
  N28      1.0000 0.88352  0.74592  0.37490  Biso   1.000  N
  N29      1.0000 0.87612  0.77160  0.30846  Biso   1.000  N
  N30      1.0000 0.89963  0.72465  0.31947  Biso   1.000  N
  N31      1.0000 0.87040  0.68108  0.60284  Biso   1.000  N
  N32      1.0000 0.91428  0.68330  0.58384  Biso   1.000  N
  N33      1.0000 0.91207  0.62345  0.64387  Biso   1.000  N
  N34      1.0000 0.92632  0.58270  0.67904  Biso   1.000  N
  N35      1.0000 0.95902  0.51176  0.71560  Biso   1.000  N
  N36      1.0000 0.93354  0.53616  0.74578  Biso   1.000  N
  N37      1.0000 0.23941  0.35467  0.91819  Biso   1.000  N
  N38      1.0000 0.24271  0.39881  0.89113  Biso   1.000  N
  N39      1.0000 0.24391  0.38077  0.95899  Biso   1.000  N
  N40      1.0000 0.24592  0.38352  0.99566  Biso   1.000  N
  N41      1.0000 0.27160  0.37612  0.04382  Biso   1.000  N
  N42      1.0000 0.22465  0.39963  0.05625  Biso   1.000  N
  N43      1.0000 0.18108  0.37040  0.84568  Biso   1.000  N
  N44      1.0000 0.18330  0.41428  0.81858  Biso   1.000  N
  N45      1.0000 0.12345  0.41207  0.82061  Biso   1.000  N
  N46      1.0000 0.08270  0.42632  0.81194  Biso   1.000  N
  N47      1.0000 0.01176  0.45902  0.81362  Biso   1.000  N
  N48      1.0000 0.03616  0.43354  0.78452  Biso   1.000  N
  N49      1.0000 0.98773  0.35467  0.73941  Biso   1.000  N
  N50      1.0000 0.96735  0.39881  0.74271  Biso   1.000  N
  N51      1.0000 0.91633  0.38077  0.74391  Biso   1.000  N
  N52      1.0000 0.87490  0.38352  0.74592  Biso   1.000  N
  N53      1.0000 0.80846  0.37612  0.77160  Biso   1.000  N
  N54      1.0000 0.81947  0.39963  0.72465  Biso   1.000  N
  N55      1.0000 0.10284  0.37040  0.68108  Biso   1.000  N
  N56      1.0000 0.08384  0.41428  0.68330  Biso   1.000  N
  N57      1.0000 0.14387  0.41207  0.62345  Biso   1.000  N
  N58      1.0000 0.17904  0.42632  0.58270  Biso   1.000  N
  N59      1.0000 0.21560  0.45902  0.51176  Biso   1.000  N
  N60      1.0000 0.24578  0.43354  0.53616  Biso   1.000  N
  N61      1.0000 0.41819  0.73941  0.35467  Biso   1.000  N
  N62      1.0000 0.39113  0.74271  0.39881  Biso   1.000  N
  N63      1.0000 0.45899  0.74391  0.38077  Biso   1.000  N
  N64      1.0000 0.49566  0.74592  0.38352  Biso   1.000  N
  N65      1.0000 0.54382  0.77160  0.37612  Biso   1.000  N
  N66      1.0000 0.55625  0.72465  0.39963  Biso   1.000  N
  N67      1.0000 0.34568  0.68108  0.37040  Biso   1.000  N
  N68      1.0000 0.31858  0.68330  0.41428  Biso   1.000  N
  N69      1.0000 0.32061  0.62345  0.41207  Biso   1.000  N
  N70      1.0000 0.31194  0.58270  0.42632  Biso   1.000  N
  N71      1.0000 0.31362  0.51176  0.45902  Biso   1.000  N
  N72      1.0000 0.28452  0.53616  0.43354  Biso   1.000  N
  N73      1.0000 0.85467  0.48773  0.91819  Biso   1.000  N
  N74      1.0000 0.89881  0.46735  0.89113  Biso   1.000  N
  N75      1.0000 0.88077  0.41633  0.95899  Biso   1.000  N
  N76      1.0000 0.88352  0.37490  0.99566  Biso   1.000  N
  N77      1.0000 0.87612  0.30846  0.04382  Biso   1.000  N
  N78      1.0000 0.89963  0.31947  0.05625  Biso   1.000  N
  N79      1.0000 0.87040  0.60284  0.84568  Biso   1.000  N
  N80      1.0000 0.91428  0.58384  0.81858  Biso   1.000  N
  N81      1.0000 0.91207  0.64387  0.82061  Biso   1.000  N
  N82      1.0000 0.92632  0.67904  0.81194  Biso   1.000  N
  N83      1.0000 0.95902  0.71560  0.81362  Biso   1.000  N
  N84      1.0000 0.93354  0.74578  0.78452  Biso   1.000  N
  N85      1.0000 0.23941  0.91819  0.48773  Biso   1.000  N
  N86      1.0000 0.24271  0.89113  0.46735  Biso   1.000  N
  N87      1.0000 0.24391  0.95899  0.41633  Biso   1.000  N
  N88      1.0000 0.24592  0.99566  0.37490  Biso   1.000  N
  N89      1.0000 0.27160  0.04382  0.30846  Biso   1.000  N
  N90      1.0000 0.22465  0.05625  0.31947  Biso   1.000  N
  N91      1.0000 0.18108  0.84568  0.60284  Biso   1.000  N
  N92      1.0000 0.18330  0.81858  0.58384  Biso   1.000  N
  N93      1.0000 0.12345  0.82061  0.64387  Biso   1.000  N
  N94      1.0000 0.08270  0.81194  0.67904  Biso   1.000  N
  N95      1.0000 0.01176  0.81362  0.71560  Biso   1.000  N
  N96      1.0000 0.03616  0.78452  0.74578  Biso   1.000  N
  N97      1.0000 0.98773  0.73941  0.91819  Biso   1.000  N
  N98      1.0000 0.96735  0.74271  0.89113  Biso   1.000  N
  N99      1.0000 0.91633  0.74391  0.95899  Biso   1.000  N
  N100     1.0000 0.87490  0.74592  0.99566  Biso   1.000  N
  N101     1.0000 0.80846  0.77160  0.04382  Biso   1.000  N
  N102     1.0000 0.81947  0.72465  0.05625  Biso   1.000  N
  N103     1.0000 0.10284  0.68108  0.84568  Biso   1.000  N
  N104     1.0000 0.08384  0.68330  0.81858  Biso   1.000  N
  N105     1.0000 0.14387  0.62345  0.82061  Biso   1.000  N
  N106     1.0000 0.17904  0.58270  0.81194  Biso   1.000  N
  N107     1.0000 0.21560  0.51176  0.81362  Biso   1.000  N
  N108     1.0000 0.24578  0.53616  0.78452  Biso   1.000  N
  N109     1.0000 0.41819  0.35467  0.48773  Biso   1.000  N
  N110     1.0000 0.39113  0.39881  0.46735  Biso   1.000  N
  N111     1.0000 0.45899  0.38077  0.41633  Biso   1.000  N
  N112     1.0000 0.49566  0.38352  0.37490  Biso   1.000  N
  N113     1.0000 0.54382  0.37612  0.30846  Biso   1.000  N
  N114     1.0000 0.55625  0.39963  0.31947  Biso   1.000  N
  N115     1.0000 0.34568  0.37040  0.60284  Biso   1.000  N
  N116     1.0000 0.31858  0.41428  0.58384  Biso   1.000  N
  N117     1.0000 0.32061  0.41207  0.64387  Biso   1.000  N
  N118     1.0000 0.31194  0.42632  0.67904  Biso   1.000  N
  N119     1.0000 0.31362  0.45902  0.71560  Biso   1.000  N
  N120     1.0000 0.28452  0.43354  0.74578  Biso   1.000  N
  N121     1.0000 0.85467  0.91819  0.73941  Biso   1.000  N
  N122     1.0000 0.89881  0.89113  0.74271  Biso   1.000  N
  N123     1.0000 0.88077  0.95899  0.74391  Biso   1.000  N
  N124     1.0000 0.88352  0.99566  0.74592  Biso   1.000  N
  N125     1.0000 0.87612  0.04382  0.77160  Biso   1.000  N
  N126     1.0000 0.89963  0.05625  0.72465  Biso   1.000  N
  N127     1.0000 0.87040  0.84568  0.68108  Biso   1.000  N
  N128     1.0000 0.91428  0.81858  0.68330  Biso   1.000  N
  N129     1.0000 0.91207  0.82061  0.62345  Biso   1.000  N
  N130     1.0000 0.92632  0.81194  0.58270  Biso   1.000  N
  N131     1.0000 0.95902  0.81362  0.51176  Biso   1.000  N
  N132     1.0000 0.93354  0.78452  0.53616  Biso   1.000  N
  N133     1.0000 0.23941  0.48773  0.35467  Biso   1.000  N
  N134     1.0000 0.24271  0.46735  0.39881  Biso   1.000  N
  N135     1.0000 0.24391  0.41633  0.38077  Biso   1.000  N
  N136     1.0000 0.24592  0.37490  0.38352  Biso   1.000  N
  N137     1.0000 0.27160  0.30846  0.37612  Biso   1.000  N
  N138     1.0000 0.22465  0.31947  0.39963  Biso   1.000  N
  N139     1.0000 0.18108  0.60284  0.37040  Biso   1.000  N
  N140     1.0000 0.18330  0.58384  0.41428  Biso   1.000  N
  N141     1.0000 0.12345  0.64387  0.41207  Biso   1.000  N
  N142     1.0000 0.08270  0.67904  0.42632  Biso   1.000  N
  N143     1.0000 0.01176  0.71560  0.45902  Biso   1.000  N
  N144     1.0000 0.03616  0.74578  0.43354  Biso   1.000  N
  N145     1.0000 0.08181  0.01227  0.14533  Biso   1.000  N
  N146     1.0000 0.10887  0.03265  0.10119  Biso   1.000  N
  N147     1.0000 0.04101  0.08367  0.11923  Biso   1.000  N
  N148     1.0000 0.00434  0.12510  0.11648  Biso   1.000  N
  N149     1.0000 0.95618  0.19154  0.12388  Biso   1.000  N
  N150     1.0000 0.94375  0.18053  0.10037  Biso   1.000  N
  N151     1.0000 0.15432  0.89716  0.12960  Biso   1.000  N
  N152     1.0000 0.18142  0.91616  0.08572  Biso   1.000  N
  N153     1.0000 0.17939  0.85613  0.08793  Biso   1.000  N
  N154     1.0000 0.18806  0.82096  0.07368  Biso   1.000  N
  N155     1.0000 0.18638  0.78440  0.04098  Biso   1.000  N
  N156     1.0000 0.21548  0.75422  0.06646  Biso   1.000  N
  N157     1.0000 0.51227  0.58181  0.76059  Biso   1.000  N
  N158     1.0000 0.53265  0.60887  0.75729  Biso   1.000  N
  N159     1.0000 0.58367  0.54101  0.75609  Biso   1.000  N
  N160     1.0000 0.62510  0.50434  0.75408  Biso   1.000  N
  N161     1.0000 0.69154  0.45618  0.72840  Biso   1.000  N
  N162     1.0000 0.68053  0.44375  0.77535  Biso   1.000  N
  N163     1.0000 0.39716  0.65432  0.81892  Biso   1.000  N
  N164     1.0000 0.41616  0.68142  0.81670  Biso   1.000  N
  N165     1.0000 0.35613  0.67939  0.87655  Biso   1.000  N
  N166     1.0000 0.32096  0.68806  0.91730  Biso   1.000  N
  N167     1.0000 0.28440  0.68638  0.98824  Biso   1.000  N
  N168     1.0000 0.25422  0.71548  0.96384  Biso   1.000  N
  N169     1.0000 0.26059  0.14533  0.01227  Biso   1.000  N
  N170     1.0000 0.25729  0.10119  0.03265  Biso   1.000  N
  N171     1.0000 0.25609  0.11923  0.08367  Biso   1.000  N
  N172     1.0000 0.25408  0.11648  0.12510  Biso   1.000  N
  N173     1.0000 0.22840  0.12388  0.19154  Biso   1.000  N
  N174     1.0000 0.27535  0.10037  0.18053  Biso   1.000  N
  N175     1.0000 0.31892  0.12960  0.89716  Biso   1.000  N
  N176     1.0000 0.31670  0.08572  0.91616  Biso   1.000  N
  N177     1.0000 0.37655  0.08793  0.85613  Biso   1.000  N
  N178     1.0000 0.41730  0.07368  0.82096  Biso   1.000  N
  N179     1.0000 0.48824  0.04098  0.78440  Biso   1.000  N
  N180     1.0000 0.46384  0.06646  0.75422  Biso   1.000  N
  N181     1.0000 0.64533  0.76059  0.58181  Biso   1.000  N
  N182     1.0000 0.60119  0.75729  0.60887  Biso   1.000  N
  N183     1.0000 0.61923  0.75609  0.54101  Biso   1.000  N
  N184     1.0000 0.61648  0.75408  0.50434  Biso   1.000  N
  N185     1.0000 0.62388  0.72840  0.45618  Biso   1.000  N
  N186     1.0000 0.60037  0.77535  0.44375  Biso   1.000  N
  N187     1.0000 0.62960  0.81892  0.65432  Biso   1.000  N
  N188     1.0000 0.58572  0.81670  0.68142  Biso   1.000  N
  N189     1.0000 0.58793  0.87655  0.67939  Biso   1.000  N
  N190     1.0000 0.57368  0.91730  0.68806  Biso   1.000  N
  N191     1.0000 0.54098  0.98824  0.68638  Biso   1.000  N
  N192     1.0000 0.56646  0.96384  0.71548  Biso   1.000  N
  N193     1.0000 0.64533  0.01227  0.76059  Biso   1.000  N
  N194     1.0000 0.60119  0.03265  0.75729  Biso   1.000  N
  N195     1.0000 0.61923  0.08367  0.75609  Biso   1.000  N
  N196     1.0000 0.61648  0.12510  0.75408  Biso   1.000  N
  N197     1.0000 0.62388  0.19154  0.72840  Biso   1.000  N
  N198     1.0000 0.60037  0.18053  0.77535  Biso   1.000  N
  N199     1.0000 0.62960  0.89716  0.81892  Biso   1.000  N
  N200     1.0000 0.58572  0.91616  0.81670  Biso   1.000  N
  N201     1.0000 0.58793  0.85613  0.87655  Biso   1.000  N
  N202     1.0000 0.57368  0.82096  0.91730  Biso   1.000  N
  N203     1.0000 0.54098  0.78440  0.98824  Biso   1.000  N
  N204     1.0000 0.56646  0.75422  0.96384  Biso   1.000  N
  N205     1.0000 0.26059  0.58181  0.14533  Biso   1.000  N
  N206     1.0000 0.25729  0.60887  0.10119  Biso   1.000  N
  N207     1.0000 0.25609  0.54101  0.11923  Biso   1.000  N
  N208     1.0000 0.25408  0.50434  0.11648  Biso   1.000  N
  N209     1.0000 0.22840  0.45618  0.12388  Biso   1.000  N
  N210     1.0000 0.27535  0.44375  0.10037  Biso   1.000  N
  N211     1.0000 0.31892  0.65432  0.12960  Biso   1.000  N
  N212     1.0000 0.31670  0.68142  0.08572  Biso   1.000  N
  N213     1.0000 0.37655  0.67939  0.08793  Biso   1.000  N
  N214     1.0000 0.41730  0.68806  0.07368  Biso   1.000  N
  N215     1.0000 0.48824  0.68638  0.04098  Biso   1.000  N
  N216     1.0000 0.46384  0.71548  0.06646  Biso   1.000  N
  N217     1.0000 0.51227  0.14533  0.58181  Biso   1.000  N
  N218     1.0000 0.53265  0.10119  0.60887  Biso   1.000  N
  N219     1.0000 0.58367  0.11923  0.54101  Biso   1.000  N
  N220     1.0000 0.62510  0.11648  0.50434  Biso   1.000  N
  N221     1.0000 0.69154  0.12388  0.45618  Biso   1.000  N
  N222     1.0000 0.68053  0.10037  0.44375  Biso   1.000  N
  N223     1.0000 0.39716  0.12960  0.65432  Biso   1.000  N
  N224     1.0000 0.41616  0.08572  0.68142  Biso   1.000  N
  N225     1.0000 0.35613  0.08793  0.67939  Biso   1.000  N
  N226     1.0000 0.32096  0.07368  0.68806  Biso   1.000  N
  N227     1.0000 0.28440  0.04098  0.68638  Biso   1.000  N
  N228     1.0000 0.25422  0.06646  0.71548  Biso   1.000  N
  N229     1.0000 0.08181  0.76059  0.01227  Biso   1.000  N
  N230     1.0000 0.10887  0.75729  0.03265  Biso   1.000  N
  N231     1.0000 0.04101  0.75609  0.08367  Biso   1.000  N
  N232     1.0000 0.00434  0.75408  0.12510  Biso   1.000  N
  N233     1.0000 0.95618  0.72840  0.19154  Biso   1.000  N
  N234     1.0000 0.94375  0.77535  0.18053  Biso   1.000  N
  N235     1.0000 0.15432  0.81892  0.89716  Biso   1.000  N
  N236     1.0000 0.18142  0.81670  0.91616  Biso   1.000  N
  N237     1.0000 0.17939  0.87655  0.85613  Biso   1.000  N
  N238     1.0000 0.18806  0.91730  0.82096  Biso   1.000  N
  N239     1.0000 0.18638  0.98824  0.78440  Biso   1.000  N
  N240     1.0000 0.21548  0.96384  0.75422  Biso   1.000  N
  N241     1.0000 0.26059  0.01227  0.58181  Biso   1.000  N
  N242     1.0000 0.25729  0.03265  0.60887  Biso   1.000  N
  N243     1.0000 0.25609  0.08367  0.54101  Biso   1.000  N
  N244     1.0000 0.25408  0.12510  0.50434  Biso   1.000  N
  N245     1.0000 0.22840  0.19154  0.45618  Biso   1.000  N
  N246     1.0000 0.27535  0.18053  0.44375  Biso   1.000  N
  N247     1.0000 0.31892  0.89716  0.65432  Biso   1.000  N
  N248     1.0000 0.31670  0.91616  0.68142  Biso   1.000  N
  N249     1.0000 0.37655  0.85613  0.67939  Biso   1.000  N
  N250     1.0000 0.41730  0.82096  0.68806  Biso   1.000  N
  N251     1.0000 0.48824  0.78440  0.68638  Biso   1.000  N
  N252     1.0000 0.46384  0.75422  0.71548  Biso   1.000  N
  N253     1.0000 0.64533  0.58181  0.01227  Biso   1.000  N
  N254     1.0000 0.60119  0.60887  0.03265  Biso   1.000  N
  N255     1.0000 0.61923  0.54101  0.08367  Biso   1.000  N
  N256     1.0000 0.61648  0.50434  0.12510  Biso   1.000  N
  N257     1.0000 0.62388  0.45618  0.19154  Biso   1.000  N
  N258     1.0000 0.60037  0.44375  0.18053  Biso   1.000  N
  N259     1.0000 0.62960  0.65432  0.89716  Biso   1.000  N
  N260     1.0000 0.58572  0.68142  0.91616  Biso   1.000  N
  N261     1.0000 0.58793  0.67939  0.85613  Biso   1.000  N
  N262     1.0000 0.57368  0.68806  0.82096  Biso   1.000  N
  N263     1.0000 0.54098  0.68638  0.78440  Biso   1.000  N
  N264     1.0000 0.56646  0.71548  0.75422  Biso   1.000  N
  N265     1.0000 0.08181  0.14533  0.76059  Biso   1.000  N
  N266     1.0000 0.10887  0.10119  0.75729  Biso   1.000  N
  N267     1.0000 0.04101  0.11923  0.75609  Biso   1.000  N
  N268     1.0000 0.00434  0.11648  0.75408  Biso   1.000  N
  N269     1.0000 0.95618  0.12388  0.72840  Biso   1.000  N
  N270     1.0000 0.94375  0.10037  0.77535  Biso   1.000  N
  N271     1.0000 0.15432  0.12960  0.81892  Biso   1.000  N
  N272     1.0000 0.18142  0.08572  0.81670  Biso   1.000  N
  N273     1.0000 0.17939  0.08793  0.87655  Biso   1.000  N
  N274     1.0000 0.18806  0.07368  0.91730  Biso   1.000  N
  N275     1.0000 0.18638  0.04098  0.98824  Biso   1.000  N
  N276     1.0000 0.21548  0.06646  0.96384  Biso   1.000  N
  N277     1.0000 0.51227  0.76059  0.14533  Biso   1.000  N
  N278     1.0000 0.53265  0.75729  0.10119  Biso   1.000  N
  N279     1.0000 0.58367  0.75609  0.11923  Biso   1.000  N
  N280     1.0000 0.62510  0.75408  0.11648  Biso   1.000  N
  N281     1.0000 0.69154  0.72840  0.12388  Biso   1.000  N
  N282     1.0000 0.68053  0.77535  0.10037  Biso   1.000  N
  N283     1.0000 0.39716  0.81892  0.12960  Biso   1.000  N
  N284     1.0000 0.41616  0.81670  0.08572  Biso   1.000  N
  N285     1.0000 0.35613  0.87655  0.08793  Biso   1.000  N
  N286     1.0000 0.32096  0.91730  0.07368  Biso   1.000  N
  N287     1.0000 0.28440  0.98824  0.04098  Biso   1.000  N
  N288     1.0000 0.25422  0.96384  0.06646  Biso   1.000  N
  N289     1.0000 0.01227  0.08181  0.64533  Biso   1.000  N
  N290     1.0000 0.03265  0.10887  0.60119  Biso   1.000  N
  N291     1.0000 0.08367  0.04101  0.61923  Biso   1.000  N
  N292     1.0000 0.12510  0.00434  0.61648  Biso   1.000  N
  N293     1.0000 0.19154  0.95618  0.62388  Biso   1.000  N
  N294     1.0000 0.18053  0.94375  0.60037  Biso   1.000  N
  N295     1.0000 0.89716  0.15432  0.62960  Biso   1.000  N
  N296     1.0000 0.91616  0.18142  0.58572  Biso   1.000  N
  N297     1.0000 0.85613  0.17939  0.58793  Biso   1.000  N
  N298     1.0000 0.82096  0.18806  0.57368  Biso   1.000  N
  N299     1.0000 0.78440  0.18638  0.54098  Biso   1.000  N
  N300     1.0000 0.75422  0.21548  0.56646  Biso   1.000  N
  N301     1.0000 0.58181  0.51227  0.26059  Biso   1.000  N
  N302     1.0000 0.60887  0.53265  0.25729  Biso   1.000  N
  N303     1.0000 0.54101  0.58367  0.25609  Biso   1.000  N
  N304     1.0000 0.50434  0.62510  0.25408  Biso   1.000  N
  N305     1.0000 0.45618  0.69154  0.22840  Biso   1.000  N
  N306     1.0000 0.44375  0.68053  0.27535  Biso   1.000  N
  N307     1.0000 0.65432  0.39716  0.31892  Biso   1.000  N
  N308     1.0000 0.68142  0.41616  0.31670  Biso   1.000  N
  N309     1.0000 0.67939  0.35613  0.37655  Biso   1.000  N
  N310     1.0000 0.68806  0.32096  0.41730  Biso   1.000  N
  N311     1.0000 0.68638  0.28440  0.48824  Biso   1.000  N
  N312     1.0000 0.71548  0.25422  0.46384  Biso   1.000  N
  N313     1.0000 0.14533  0.26059  0.51227  Biso   1.000  N
  N314     1.0000 0.10119  0.25729  0.53265  Biso   1.000  N
  N315     1.0000 0.11923  0.25609  0.58367  Biso   1.000  N
  N316     1.0000 0.11648  0.25408  0.62510  Biso   1.000  N
  N317     1.0000 0.12388  0.22840  0.69154  Biso   1.000  N
  N318     1.0000 0.10037  0.27535  0.68053  Biso   1.000  N
  N319     1.0000 0.12960  0.31892  0.39716  Biso   1.000  N
  N320     1.0000 0.08572  0.31670  0.41616  Biso   1.000  N
  N321     1.0000 0.08793  0.37655  0.35613  Biso   1.000  N
  N322     1.0000 0.07368  0.41730  0.32096  Biso   1.000  N
  N323     1.0000 0.04098  0.48824  0.28440  Biso   1.000  N
  N324     1.0000 0.06646  0.46384  0.25422  Biso   1.000  N
  N325     1.0000 0.76059  0.64533  0.08181  Biso   1.000  N
  N326     1.0000 0.75729  0.60119  0.10887  Biso   1.000  N
  N327     1.0000 0.75609  0.61923  0.04101  Biso   1.000  N
  N328     1.0000 0.75408  0.61648  0.00434  Biso   1.000  N
  N329     1.0000 0.72840  0.62388  0.95618  Biso   1.000  N
  N330     1.0000 0.77535  0.60037  0.94375  Biso   1.000  N
  N331     1.0000 0.81892  0.62960  0.15432  Biso   1.000  N
  N332     1.0000 0.81670  0.58572  0.18142  Biso   1.000  N
  N333     1.0000 0.87655  0.58793  0.17939  Biso   1.000  N
  N334     1.0000 0.91730  0.57368  0.18806  Biso   1.000  N
  N335     1.0000 0.98824  0.54098  0.18638  Biso   1.000  N
  N336     1.0000 0.96384  0.56646  0.21548  Biso   1.000  N
  N337     1.0000 0.01227  0.64533  0.26059  Biso   1.000  N
  N338     1.0000 0.03265  0.60119  0.25729  Biso   1.000  N
  N339     1.0000 0.08367  0.61923  0.25609  Biso   1.000  N
  N340     1.0000 0.12510  0.61648  0.25408  Biso   1.000  N
  N341     1.0000 0.19154  0.62388  0.22840  Biso   1.000  N
  N342     1.0000 0.18053  0.60037  0.27535  Biso   1.000  N
  N343     1.0000 0.89716  0.62960  0.31892  Biso   1.000  N
  N344     1.0000 0.91616  0.58572  0.31670  Biso   1.000  N
  N345     1.0000 0.85613  0.58793  0.37655  Biso   1.000  N
  N346     1.0000 0.82096  0.57368  0.41730  Biso   1.000  N
  N347     1.0000 0.78440  0.54098  0.48824  Biso   1.000  N
  N348     1.0000 0.75422  0.56646  0.46384  Biso   1.000  N
  N349     1.0000 0.58181  0.26059  0.64533  Biso   1.000  N
  N350     1.0000 0.60887  0.25729  0.60119  Biso   1.000  N
  N351     1.0000 0.54101  0.25609  0.61923  Biso   1.000  N
  N352     1.0000 0.50434  0.25408  0.61648  Biso   1.000  N
  N353     1.0000 0.45618  0.22840  0.62388  Biso   1.000  N
  N354     1.0000 0.44375  0.27535  0.60037  Biso   1.000  N
  N355     1.0000 0.65432  0.31892  0.62960  Biso   1.000  N
  N356     1.0000 0.68142  0.31670  0.58572  Biso   1.000  N
  N357     1.0000 0.67939  0.37655  0.58793  Biso   1.000  N
  N358     1.0000 0.68806  0.41730  0.57368  Biso   1.000  N
  N359     1.0000 0.68638  0.48824  0.54098  Biso   1.000  N
  N360     1.0000 0.71548  0.46384  0.56646  Biso   1.000  N
  N361     1.0000 0.14533  0.51227  0.08181  Biso   1.000  N
  N362     1.0000 0.10119  0.53265  0.10887  Biso   1.000  N
  N363     1.0000 0.11923  0.58367  0.04101  Biso   1.000  N
  N364     1.0000 0.11648  0.62510  0.00434  Biso   1.000  N
  N365     1.0000 0.12388  0.69154  0.95618  Biso   1.000  N
  N366     1.0000 0.10037  0.68053  0.94375  Biso   1.000  N
  N367     1.0000 0.12960  0.39716  0.15432  Biso   1.000  N
  N368     1.0000 0.08572  0.41616  0.18142  Biso   1.000  N
  N369     1.0000 0.08793  0.35613  0.17939  Biso   1.000  N
  N370     1.0000 0.07368  0.32096  0.18806  Biso   1.000  N
  N371     1.0000 0.04098  0.28440  0.18638  Biso   1.000  N
  N372     1.0000 0.06646  0.25422  0.21548  Biso   1.000  N
  N373     1.0000 0.76059  0.08181  0.51227  Biso   1.000  N
  N374     1.0000 0.75729  0.10887  0.53265  Biso   1.000  N
  N375     1.0000 0.75609  0.04101  0.58367  Biso   1.000  N
  N376     1.0000 0.75408  0.00434  0.62510  Biso   1.000  N
  N377     1.0000 0.72840  0.95618  0.69154  Biso   1.000  N
  N378     1.0000 0.77535  0.94375  0.68053  Biso   1.000  N
  N379     1.0000 0.81892  0.15432  0.39716  Biso   1.000  N
  N380     1.0000 0.81670  0.18142  0.41616  Biso   1.000  N
  N381     1.0000 0.87655  0.17939  0.35613  Biso   1.000  N
  N382     1.0000 0.91730  0.18806  0.32096  Biso   1.000  N
  N383     1.0000 0.98824  0.18638  0.28440  Biso   1.000  N
  N384     1.0000 0.96384  0.21548  0.25422  Biso   1.000  N
  N385     1.0000 0.01227  0.26059  0.08181  Biso   1.000  N
  N386     1.0000 0.03265  0.25729  0.10887  Biso   1.000  N
  N387     1.0000 0.08367  0.25609  0.04101  Biso   1.000  N
  N388     1.0000 0.12510  0.25408  0.00434  Biso   1.000  N
  N389     1.0000 0.19154  0.22840  0.95618  Biso   1.000  N
  N390     1.0000 0.18053  0.27535  0.94375  Biso   1.000  N
  N391     1.0000 0.89716  0.31892  0.15432  Biso   1.000  N
  N392     1.0000 0.91616  0.31670  0.18142  Biso   1.000  N
  N393     1.0000 0.85613  0.37655  0.17939  Biso   1.000  N
  N394     1.0000 0.82096  0.41730  0.18806  Biso   1.000  N
  N395     1.0000 0.78440  0.48824  0.18638  Biso   1.000  N
  N396     1.0000 0.75422  0.46384  0.21548  Biso   1.000  N
  N397     1.0000 0.58181  0.64533  0.51227  Biso   1.000  N
  N398     1.0000 0.60887  0.60119  0.53265  Biso   1.000  N
  N399     1.0000 0.54101  0.61923  0.58367  Biso   1.000  N
  N400     1.0000 0.50434  0.61648  0.62510  Biso   1.000  N
  N401     1.0000 0.45618  0.62388  0.69154  Biso   1.000  N
  N402     1.0000 0.44375  0.60037  0.68053  Biso   1.000  N
  N403     1.0000 0.65432  0.62960  0.39716  Biso   1.000  N
  N404     1.0000 0.68142  0.58572  0.41616  Biso   1.000  N
  N405     1.0000 0.67939  0.58793  0.35613  Biso   1.000  N
  N406     1.0000 0.68806  0.57368  0.32096  Biso   1.000  N
  N407     1.0000 0.68638  0.54098  0.28440  Biso   1.000  N
  N408     1.0000 0.71548  0.56646  0.25422  Biso   1.000  N
  N409     1.0000 0.14533  0.08181  0.26059  Biso   1.000  N
  N410     1.0000 0.10119  0.10887  0.25729  Biso   1.000  N
  N411     1.0000 0.11923  0.04101  0.25609  Biso   1.000  N
  N412     1.0000 0.11648  0.00434  0.25408  Biso   1.000  N
  N413     1.0000 0.12388  0.95618  0.22840  Biso   1.000  N
  N414     1.0000 0.10037  0.94375  0.27535  Biso   1.000  N
  N415     1.0000 0.12960  0.15432  0.31892  Biso   1.000  N
  N416     1.0000 0.08572  0.18142  0.31670  Biso   1.000  N
  N417     1.0000 0.08793  0.17939  0.37655  Biso   1.000  N
  N418     1.0000 0.07368  0.18806  0.41730  Biso   1.000  N
  N419     1.0000 0.04098  0.18638  0.48824  Biso   1.000  N
  N420     1.0000 0.06646  0.21548  0.46384  Biso   1.000  N
  N421     1.0000 0.76059  0.51227  0.64533  Biso   1.000  N
  N422     1.0000 0.75729  0.53265  0.60119  Biso   1.000  N
  N423     1.0000 0.75609  0.58367  0.61923  Biso   1.000  N
  N424     1.0000 0.75408  0.62510  0.61648  Biso   1.000  N
  N425     1.0000 0.72840  0.69154  0.62388  Biso   1.000  N
  N426     1.0000 0.77535  0.68053  0.60037  Biso   1.000  N
  N427     1.0000 0.81892  0.39716  0.62960  Biso   1.000  N
  N428     1.0000 0.81670  0.41616  0.58572  Biso   1.000  N
  N429     1.0000 0.87655  0.35613  0.58793  Biso   1.000  N
  N430     1.0000 0.91730  0.32096  0.57368  Biso   1.000  N
  N431     1.0000 0.98824  0.28440  0.54098  Biso   1.000  N
  N432     1.0000 0.96384  0.25422  0.56646  Biso   1.000  N
  N433     1.0000 0.91819  0.98773  0.85467  Biso   1.000  N
  N434     1.0000 0.89113  0.96735  0.89881  Biso   1.000  N
  N435     1.0000 0.95899  0.91633  0.88077  Biso   1.000  N
  N436     1.0000 0.99566  0.87490  0.88352  Biso   1.000  N
  N437     1.0000 0.04382  0.80846  0.87612  Biso   1.000  N
  N438     1.0000 0.05625  0.81947  0.89963  Biso   1.000  N
  N439     1.0000 0.84568  0.10284  0.87040  Biso   1.000  N
  N440     1.0000 0.81858  0.08384  0.91428  Biso   1.000  N
  N441     1.0000 0.82061  0.14387  0.91207  Biso   1.000  N
  N442     1.0000 0.81194  0.17904  0.92632  Biso   1.000  N
  N443     1.0000 0.81362  0.21560  0.95902  Biso   1.000  N
  N444     1.0000 0.78452  0.24578  0.93354  Biso   1.000  N
  N445     1.0000 0.48773  0.41819  0.23941  Biso   1.000  N
  N446     1.0000 0.46735  0.39113  0.24271  Biso   1.000  N
  N447     1.0000 0.41633  0.45899  0.24391  Biso   1.000  N
  N448     1.0000 0.37490  0.49566  0.24592  Biso   1.000  N
  N449     1.0000 0.30846  0.54382  0.27160  Biso   1.000  N
  N450     1.0000 0.31947  0.55625  0.22465  Biso   1.000  N
  N451     1.0000 0.60284  0.34568  0.18108  Biso   1.000  N
  N452     1.0000 0.58384  0.31858  0.18330  Biso   1.000  N
  N453     1.0000 0.64387  0.32061  0.12345  Biso   1.000  N
  N454     1.0000 0.67904  0.31194  0.08270  Biso   1.000  N
  N455     1.0000 0.71560  0.31362  0.01176  Biso   1.000  N
  N456     1.0000 0.74578  0.28452  0.03616  Biso   1.000  N
  N457     1.0000 0.73941  0.85467  0.98773  Biso   1.000  N
  N458     1.0000 0.74271  0.89881  0.96735  Biso   1.000  N
  N459     1.0000 0.74391  0.88077  0.91633  Biso   1.000  N
  N460     1.0000 0.74592  0.88352  0.87490  Biso   1.000  N
  N461     1.0000 0.77160  0.87612  0.80846  Biso   1.000  N
  N462     1.0000 0.72465  0.89963  0.81947  Biso   1.000  N
  N463     1.0000 0.68108  0.87040  0.10284  Biso   1.000  N
  N464     1.0000 0.68330  0.91428  0.08384  Biso   1.000  N
  N465     1.0000 0.62345  0.91207  0.14387  Biso   1.000  N
  N466     1.0000 0.58270  0.92632  0.17904  Biso   1.000  N
  N467     1.0000 0.51176  0.95902  0.21560  Biso   1.000  N
  N468     1.0000 0.53616  0.93354  0.24578  Biso   1.000  N
  N469     1.0000 0.35467  0.23941  0.41819  Biso   1.000  N
  N470     1.0000 0.39881  0.24271  0.39113  Biso   1.000  N
  N471     1.0000 0.38077  0.24391  0.45899  Biso   1.000  N
  N472     1.0000 0.38352  0.24592  0.49566  Biso   1.000  N
  N473     1.0000 0.37612  0.27160  0.54382  Biso   1.000  N
  N474     1.0000 0.39963  0.22465  0.55625  Biso   1.000  N
  N475     1.0000 0.37040  0.18108  0.34568  Biso   1.000  N
  N476     1.0000 0.41428  0.18330  0.31858  Biso   1.000  N
  N477     1.0000 0.41207  0.12345  0.32061  Biso   1.000  N
  N478     1.0000 0.42632  0.08270  0.31194  Biso   1.000  N
  N479     1.0000 0.45902  0.01176  0.31362  Biso   1.000  N
  N480     1.0000 0.43354  0.03616  0.28452  Biso   1.000  N
  N481     1.0000 0.35467  0.98773  0.23941  Biso   1.000  N
  N482     1.0000 0.39881  0.96735  0.24271  Biso   1.000  N
  N483     1.0000 0.38077  0.91633  0.24391  Biso   1.000  N
  N484     1.0000 0.38352  0.87490  0.24592  Biso   1.000  N
  N485     1.0000 0.37612  0.80846  0.27160  Biso   1.000  N
  N486     1.0000 0.39963  0.81947  0.22465  Biso   1.000  N
  N487     1.0000 0.37040  0.10284  0.18108  Biso   1.000  N
  N488     1.0000 0.41428  0.08384  0.18330  Biso   1.000  N
  N489     1.0000 0.41207  0.14387  0.12345  Biso   1.000  N
  N490     1.0000 0.42632  0.17904  0.08270  Biso   1.000  N
  N491     1.0000 0.45902  0.21560  0.01176  Biso   1.000  N
  N492     1.0000 0.43354  0.24578  0.03616  Biso   1.000  N
  N493     1.0000 0.73941  0.41819  0.85467  Biso   1.000  N
  N494     1.0000 0.74271  0.39113  0.89881  Biso   1.000  N
  N495     1.0000 0.74391  0.45899  0.88077  Biso   1.000  N
  N496     1.0000 0.74592  0.49566  0.88352  Biso   1.000  N
  N497     1.0000 0.77160  0.54382  0.87612  Biso   1.000  N
  N498     1.0000 0.72465  0.55625  0.89963  Biso   1.000  N
  N499     1.0000 0.68108  0.34568  0.87040  Biso   1.000  N
  N500     1.0000 0.68330  0.31858  0.91428  Biso   1.000  N
  N501     1.0000 0.62345  0.32061  0.91207  Biso   1.000  N
  N502     1.0000 0.58270  0.31194  0.92632  Biso   1.000  N
  N503     1.0000 0.51176  0.31362  0.95902  Biso   1.000  N
  N504     1.0000 0.53616  0.28452  0.93354  Biso   1.000  N
  N505     1.0000 0.48773  0.85467  0.41819  Biso   1.000  N
  N506     1.0000 0.46735  0.89881  0.39113  Biso   1.000  N
  N507     1.0000 0.41633  0.88077  0.45899  Biso   1.000  N
  N508     1.0000 0.37490  0.88352  0.49566  Biso   1.000  N
  N509     1.0000 0.30846  0.87612  0.54382  Biso   1.000  N
  N510     1.0000 0.31947  0.89963  0.55625  Biso   1.000  N
  N511     1.0000 0.60284  0.87040  0.34568  Biso   1.000  N
  N512     1.0000 0.58384  0.91428  0.31858  Biso   1.000  N
  N513     1.0000 0.64387  0.91207  0.32061  Biso   1.000  N
  N514     1.0000 0.67904  0.92632  0.31194  Biso   1.000  N
  N515     1.0000 0.71560  0.95902  0.31362  Biso   1.000  N
  N516     1.0000 0.74578  0.93354  0.28452  Biso   1.000  N
  N517     1.0000 0.91819  0.23941  0.98773  Biso   1.000  N
  N518     1.0000 0.89113  0.24271  0.96735  Biso   1.000  N
  N519     1.0000 0.95899  0.24391  0.91633  Biso   1.000  N
  N520     1.0000 0.99566  0.24592  0.87490  Biso   1.000  N
  N521     1.0000 0.04382  0.27160  0.80846  Biso   1.000  N
  N522     1.0000 0.05625  0.22465  0.81947  Biso   1.000  N
  N523     1.0000 0.84568  0.18108  0.10284  Biso   1.000  N
  N524     1.0000 0.81858  0.18330  0.08384  Biso   1.000  N
  N525     1.0000 0.82061  0.12345  0.14387  Biso   1.000  N
  N526     1.0000 0.81194  0.08270  0.17904  Biso   1.000  N
  N527     1.0000 0.81362  0.01176  0.21560  Biso   1.000  N
  N528     1.0000 0.78452  0.03616  0.24578  Biso   1.000  N
  N529     1.0000 0.73941  0.98773  0.41819  Biso   1.000  N
  N530     1.0000 0.74271  0.96735  0.39113  Biso   1.000  N
  N531     1.0000 0.74391  0.91633  0.45899  Biso   1.000  N
  N532     1.0000 0.74592  0.87490  0.49566  Biso   1.000  N
  N533     1.0000 0.77160  0.80846  0.54382  Biso   1.000  N
  N534     1.0000 0.72465  0.81947  0.55625  Biso   1.000  N
  N535     1.0000 0.68108  0.10284  0.34568  Biso   1.000  N
  N536     1.0000 0.68330  0.08384  0.31858  Biso   1.000  N
  N537     1.0000 0.62345  0.14387  0.32061  Biso   1.000  N
  N538     1.0000 0.58270  0.17904  0.31194  Biso   1.000  N
  N539     1.0000 0.51176  0.21560  0.31362  Biso   1.000  N
  N540     1.0000 0.53616  0.24578  0.28452  Biso   1.000  N
  N541     1.0000 0.35467  0.41819  0.98773  Biso   1.000  N
  N542     1.0000 0.39881  0.39113  0.96735  Biso   1.000  N
  N543     1.0000 0.38077  0.45899  0.91633  Biso   1.000  N
  N544     1.0000 0.38352  0.49566  0.87490  Biso   1.000  N
  N545     1.0000 0.37612  0.54382  0.80846  Biso   1.000  N
  N546     1.0000 0.39963  0.55625  0.81947  Biso   1.000  N
  N547     1.0000 0.37040  0.34568  0.10284  Biso   1.000  N
  N548     1.0000 0.41428  0.31858  0.08384  Biso   1.000  N
  N549     1.0000 0.41207  0.32061  0.14387  Biso   1.000  N
  N550     1.0000 0.42632  0.31194  0.17904  Biso   1.000  N
  N551     1.0000 0.45902  0.31362  0.21560  Biso   1.000  N
  N552     1.0000 0.43354  0.28452  0.24578  Biso   1.000  N
  N553     1.0000 0.91819  0.85467  0.23941  Biso   1.000  N
  N554     1.0000 0.89113  0.89881  0.24271  Biso   1.000  N
  N555     1.0000 0.95899  0.88077  0.24391  Biso   1.000  N
  N556     1.0000 0.99566  0.88352  0.24592  Biso   1.000  N
  N557     1.0000 0.04382  0.87612  0.27160  Biso   1.000  N
  N558     1.0000 0.05625  0.89963  0.22465  Biso   1.000  N
  N559     1.0000 0.84568  0.87040  0.18108  Biso   1.000  N
  N560     1.0000 0.81858  0.91428  0.18330  Biso   1.000  N
  N561     1.0000 0.82061  0.91207  0.12345  Biso   1.000  N
  N562     1.0000 0.81194  0.92632  0.08270  Biso   1.000  N
  N563     1.0000 0.81362  0.95902  0.01176  Biso   1.000  N
  N564     1.0000 0.78452  0.93354  0.03616  Biso   1.000  N
  N565     1.0000 0.48773  0.23941  0.85467  Biso   1.000  N
  N566     1.0000 0.46735  0.24271  0.89881  Biso   1.000  N
  N567     1.0000 0.41633  0.24391  0.88077  Biso   1.000  N
  N568     1.0000 0.37490  0.24592  0.88352  Biso   1.000  N
  N569     1.0000 0.30846  0.27160  0.87612  Biso   1.000  N
  N570     1.0000 0.31947  0.22465  0.89963  Biso   1.000  N
  N571     1.0000 0.60284  0.18108  0.87040  Biso   1.000  N
  N572     1.0000 0.58384  0.18330  0.91428  Biso   1.000  N
  N573     1.0000 0.64387  0.12345  0.91207  Biso   1.000  N
  N574     1.0000 0.67904  0.08270  0.92632  Biso   1.000  N
  N575     1.0000 0.71560  0.01176  0.95902  Biso   1.000  N
  N576     1.0000 0.74578  0.03616  0.93354  Biso   1.000  N
