data_image0
_cell_length_a       20.1308
_cell_length_b       27.4099
_cell_length_c       45.3338
_cell_angle_alpha    90
_cell_angle_beta     90
_cell_angle_gamma    90

_symmetry_space_group_name_H-M    P 1
_symmetry_int_tables_number       1

loop_
  _symmetry_equiv_pos_as_xyz
  'x, y, z'

loop_
  _atom_site_label
  _atom_site_occupancy
  _atom_site_fract_x
  _atom_site_fract_y
  _atom_site_fract_z
  _atom_site_thermal_displace_type
  _atom_site_B_iso_or_equiv
  _atom_site_type_symbol
  Zn1      1.0000 0.68636  0.24903  0.59019  Biso   1.000  Zn
  Zn2      1.0000 0.72898  0.12898  0.58401  Biso   1.000  Zn
  Zn3      1.0000 0.74038  0.18639  0.64721  Biso   1.000  Zn
  Zn4      1.0000 0.02536  0.68000  0.65081  Biso   1.000  Zn
  Zn5      1.0000 0.45918  0.78752  0.58484  Biso   1.000  Zn
  Zn6      1.0000 0.57608  0.86658  0.58703  Biso   1.000  Zn
  Zn7      1.0000 0.09078  0.75094  0.91483  Biso   1.000  Zn
  Zn8      1.0000 0.56842  0.87187  0.91703  Biso   1.000  Zn
  Zn9      1.0000 0.54395  0.81150  0.85599  Biso   1.000  Zn
  Zn10     1.0000 0.25258  0.32384  0.85081  Biso   1.000  Zn
  Zn11     1.0000 0.32725  0.31417  0.91749  Biso   1.000  Zn
  Zn12     1.0000 0.67061  0.18858  0.91528  Biso   1.000  Zn
  Zn13     1.0000 0.18636  0.75097  0.40981  Biso   1.000  Zn
  Zn14     1.0000 0.22898  0.87102  0.41599  Biso   1.000  Zn
  Zn15     1.0000 0.24038  0.81361  0.35279  Biso   1.000  Zn
  Zn16     1.0000 0.52536  0.32000  0.34919  Biso   1.000  Zn
  Zn17     1.0000 0.95918  0.21248  0.41516  Biso   1.000  Zn
  Zn18     1.0000 0.07608  0.13342  0.41297  Biso   1.000  Zn
  Zn19     1.0000 0.59078  0.24906  0.08517  Biso   1.000  Zn
  Zn20     1.0000 0.06842  0.12813  0.08297  Biso   1.000  Zn
  Zn21     1.0000 0.04395  0.18850  0.14401  Biso   1.000  Zn
  Zn22     1.0000 0.75258  0.67616  0.14919  Biso   1.000  Zn
  Zn23     1.0000 0.82725  0.68583  0.08251  Biso   1.000  Zn
  Zn24     1.0000 0.17061  0.81142  0.08472  Biso   1.000  Zn
  Zn25     1.0000 0.68636  0.74903  0.40981  Biso   1.000  Zn
  Zn26     1.0000 0.72898  0.62898  0.41599  Biso   1.000  Zn
  Zn27     1.0000 0.74038  0.68639  0.35279  Biso   1.000  Zn
  Zn28     1.0000 0.02536  0.18000  0.34919  Biso   1.000  Zn
  Zn29     1.0000 0.45918  0.28752  0.41516  Biso   1.000  Zn
  Zn30     1.0000 0.57608  0.36658  0.41297  Biso   1.000  Zn
  Zn31     1.0000 0.09078  0.25094  0.08517  Biso   1.000  Zn
  Zn32     1.0000 0.56842  0.37187  0.08297  Biso   1.000  Zn
  Zn33     1.0000 0.54395  0.31150  0.14401  Biso   1.000  Zn
  Zn34     1.0000 0.25258  0.82384  0.14919  Biso   1.000  Zn
  Zn35     1.0000 0.32725  0.81417  0.08251  Biso   1.000  Zn
  Zn36     1.0000 0.67061  0.68858  0.08472  Biso   1.000  Zn
  Zn37     1.0000 0.18636  0.25097  0.59019  Biso   1.000  Zn
  Zn38     1.0000 0.22898  0.37102  0.58401  Biso   1.000  Zn
  Zn39     1.0000 0.24038  0.31361  0.64721  Biso   1.000  Zn
  Zn40     1.0000 0.52536  0.82000  0.65081  Biso   1.000  Zn
  Zn41     1.0000 0.95918  0.71248  0.58484  Biso   1.000  Zn
  Zn42     1.0000 0.07608  0.63342  0.58703  Biso   1.000  Zn
  Zn43     1.0000 0.59078  0.74906  0.91483  Biso   1.000  Zn
  Zn44     1.0000 0.06842  0.62813  0.91703  Biso   1.000  Zn
  Zn45     1.0000 0.04395  0.68850  0.85599  Biso   1.000  Zn
  Zn46     1.0000 0.75258  0.17616  0.85081  Biso   1.000  Zn
  Zn47     1.0000 0.82725  0.18583  0.91749  Biso   1.000  Zn
  Zn48     1.0000 0.17061  0.31142  0.91528  Biso   1.000  Zn
  H1       1.0000 0.78760  0.19930  0.59980  Biso   1.000  H
  H2       1.0000 0.38260  0.78520  0.79870  Biso   1.000  H
  H3       1.0000 0.28950  0.76280  0.87560  Biso   1.000  H
  H4       1.0000 0.19060  0.74450  0.79960  Biso   1.000  H
  H5       1.0000 0.17890  0.74890  0.70210  Biso   1.000  H
  H6       1.0000 0.26630  0.75690  0.62310  Biso   1.000  H
  H7       1.0000 0.37510  0.77440  0.69630  Biso   1.000  H
  H8       1.0000 0.69730  0.06170  0.69990  Biso   1.000  H
  H9       1.0000 0.65730  0.00060  0.62170  Biso   1.000  H
  H10      1.0000 0.61770  0.92840  0.69660  Biso   1.000  H
  H11      1.0000 0.60350  0.92590  0.79880  Biso   1.000  H
  H12      1.0000 0.65270  0.99270  0.87430  Biso   1.000  H
  H13      1.0000 0.70070  0.05410  0.79720  Biso   1.000  H
  H14      1.0000 0.58900  0.23370  0.70490  Biso   1.000  H
  H15      1.0000 0.49080  0.25370  0.62840  Biso   1.000  H
  H16      1.0000 0.40180  0.28170  0.70580  Biso   1.000  H
  H17      1.0000 0.41410  0.29370  0.80590  Biso   1.000  H
  H18      1.0000 0.50840  0.26270  0.88120  Biso   1.000  H
  H19      1.0000 0.59060  0.22720  0.80460  Biso   1.000  H
  H20      1.0000 0.31140  0.16050  0.95240  Biso   1.000  H
  H21      1.0000 0.18010  0.23550  0.00080  Biso   1.000  H
  H22      1.0000 0.23600  0.10110  0.02610  Biso   1.000  H
  H23      1.0000 0.31130  0.97840  0.02530  Biso   1.000  H
  H24      1.0000 0.43030  0.86710  0.00500  Biso   1.000  H
  H25      1.0000 0.42460  0.98410  0.95200  Biso   1.000  H
  H26      1.0000 0.56770  0.78660  0.60380  Biso   1.000  H
  H27      1.0000 0.48410  0.96380  0.53080  Biso   1.000  H
  H28      1.0000 0.36490  0.85280  0.50920  Biso   1.000  H
  H29      1.0000 0.36890  0.97320  0.45880  Biso   1.000  H
  H30      1.0000 0.46920  0.14580  0.45930  Biso   1.000  H
  H31      1.0000 0.59230  0.23190  0.50510  Biso   1.000  H
  H32      1.0000 0.56150  0.09430  0.53090  Biso   1.000  H
  H33      1.0000 0.54190  0.28220  0.57530  Biso   1.000  H
  H34      1.0000 0.68390  0.34470  0.61970  Biso   1.000  H
  H35      1.0000 0.79840  0.23050  0.54960  Biso   1.000  H
  H36      1.0000 0.05970  0.71160  0.71170  Biso   1.000  H
  H37      1.0000 0.92700  0.60260  0.67100  Biso   1.000  H
  H38      1.0000 0.05480  0.85280  0.89980  Biso   1.000  H
  H39      1.0000 0.22690  0.78730  0.91730  Biso   1.000  H
  H40      1.0000 0.33050  0.81690  0.92680  Biso   1.000  H
  H41      1.0000 0.33890  0.85780  0.95080  Biso   1.000  H
  H42      1.0000 0.30010  0.77570  0.97890  Biso   1.000  H
  H43      1.0000 0.36130  0.76240  0.95910  Biso   1.000  H
  H44      1.0000 0.36780  0.80300  0.98330  Biso   1.000  H
  H45      1.0000 0.25590  0.90150  0.96620  Biso   1.000  H
  H46      1.0000 0.18390  0.89380  0.95340  Biso   1.000  H
  H47      1.0000 0.22100  0.83200  0.99990  Biso   1.000  H
  H48      1.0000 0.20300  0.88580  0.00860  Biso   1.000  H
  H49      1.0000 0.14980  0.85260  0.99330  Biso   1.000  H
  H50      1.0000 0.03710  0.73140  0.97590  Biso   1.000  H
  H51      1.0000 0.93830  0.83590  0.96490  Biso   1.000  H
  H52      1.0000 0.91510  0.83930  0.99810  Biso   1.000  H
  H53      1.0000 0.90890  0.76250  0.01810  Biso   1.000  H
  H54      1.0000 0.96510  0.72250  0.01460  Biso   1.000  H
  H55      1.0000 0.04880  0.85450  0.99600  Biso   1.000  H
  H56      1.0000 0.01490  0.89160  0.97440  Biso   1.000  H
  H57      1.0000 0.99590  0.89150  0.00800  Biso   1.000  H
  H58      1.0000 0.00640  0.81170  0.03810  Biso   1.000  H
  H59      1.0000 0.96470  0.77920  0.05970  Biso   1.000  H
  H60      1.0000 0.03200  0.75970  0.04690  Biso   1.000  H
  H61      1.0000 0.68290  0.08840  0.93750  Biso   1.000  H
  H62      1.0000 0.50310  0.03790  0.94730  Biso   1.000  H
  H63      1.0000 0.51190  0.09270  0.93780  Biso   1.000  H
  H64      1.0000 0.61050  0.98320  0.92960  Biso   1.000  H
  H65      1.0000 0.67690  0.00810  0.93980  Biso   1.000  H
  H66      1.0000 0.57140  0.97800  0.97670  Biso   1.000  H
  H67      1.0000 0.64680  0.96510  0.98060  Biso   1.000  H
  H68      1.0000 0.62110  0.01760  0.98820  Biso   1.000  H
  H69      1.0000 0.51490  0.01200  0.89970  Biso   1.000  H
  H70      1.0000 0.46310  0.05470  0.89890  Biso   1.000  H
  H71      1.0000 0.53680  0.06410  0.88930  Biso   1.000  H
  H72      1.0000 0.22440  0.22140  0.83230  Biso   1.000  H
  H73      1.0000 0.24660  0.36350  0.78830  Biso   1.000  H
  H74      1.0000 0.22540  0.31200  0.71570  Biso   1.000  H
  H75      1.0000 0.25540  0.36050  0.72970  Biso   1.000  H
  H76      1.0000 0.31060  0.25250  0.76670  Biso   1.000  H
  H77      1.0000 0.27900  0.25190  0.73460  Biso   1.000  H
  H78      1.0000 0.20570  0.23150  0.78750  Biso   1.000  H
  H79      1.0000 0.22260  0.19160  0.76390  Biso   1.000  H
  H80      1.0000 0.17240  0.23350  0.75630  Biso   1.000  H
  H81      1.0000 0.14160  0.33180  0.75930  Biso   1.000  H
  H82      1.0000 0.12450  0.34290  0.72630  Biso   1.000  H
  H83      1.0000 0.15520  0.38380  0.74620  Biso   1.000  H
  H84      1.0000 0.67260  0.78490  0.57470  Biso   1.000  H
  H85      1.0000 0.99810  0.69370  0.90380  Biso   1.000  H
  H86      1.0000 0.24790  0.36810  0.89800  Biso   1.000  H
  H87      1.0000 0.28760  0.80070  0.40020  Biso   1.000  H
  H88      1.0000 0.88260  0.21480  0.20130  Biso   1.000  H
  H89      1.0000 0.78950  0.23720  0.12440  Biso   1.000  H
  H90      1.0000 0.69060  0.25550  0.20040  Biso   1.000  H
  H91      1.0000 0.67890  0.25110  0.29790  Biso   1.000  H
  H92      1.0000 0.76630  0.24310  0.37690  Biso   1.000  H
  H93      1.0000 0.87510  0.22560  0.30370  Biso   1.000  H
  H94      1.0000 0.19730  0.93830  0.30010  Biso   1.000  H
  H95      1.0000 0.15730  0.99940  0.37830  Biso   1.000  H
  H96      1.0000 0.11770  0.07160  0.30340  Biso   1.000  H
  H97      1.0000 0.10350  0.07410  0.20120  Biso   1.000  H
  H98      1.0000 0.15270  0.00730  0.12570  Biso   1.000  H
  H99      1.0000 0.20070  0.94590  0.20280  Biso   1.000  H
  H100     1.0000 0.08900  0.76630  0.29510  Biso   1.000  H
  H101     1.0000 0.99080  0.74630  0.37160  Biso   1.000  H
  H102     1.0000 0.90180  0.71830  0.29420  Biso   1.000  H
  H103     1.0000 0.91410  0.70630  0.19410  Biso   1.000  H
  H104     1.0000 0.00840  0.73730  0.11880  Biso   1.000  H
  H105     1.0000 0.09060  0.77280  0.19540  Biso   1.000  H
  H106     1.0000 0.81140  0.83950  0.04760  Biso   1.000  H
  H107     1.0000 0.68010  0.76450  0.99920  Biso   1.000  H
  H108     1.0000 0.73600  0.89890  0.97390  Biso   1.000  H
  H109     1.0000 0.81130  0.02160  0.97470  Biso   1.000  H
  H110     1.0000 0.93030  0.13290  0.99500  Biso   1.000  H
  H111     1.0000 0.92460  0.01590  0.04800  Biso   1.000  H
  H112     1.0000 0.06770  0.21340  0.39620  Biso   1.000  H
  H113     1.0000 0.98410  0.03620  0.46920  Biso   1.000  H
  H114     1.0000 0.86490  0.14720  0.49080  Biso   1.000  H
  H115     1.0000 0.86890  0.02680  0.54120  Biso   1.000  H
  H116     1.0000 0.96920  0.85420  0.54070  Biso   1.000  H
  H117     1.0000 0.09230  0.76810  0.49490  Biso   1.000  H
  H118     1.0000 0.06150  0.90570  0.46910  Biso   1.000  H
  H119     1.0000 0.04190  0.71780  0.42470  Biso   1.000  H
  H120     1.0000 0.18390  0.65530  0.38030  Biso   1.000  H
  H121     1.0000 0.29840  0.76950  0.45040  Biso   1.000  H
  H122     1.0000 0.55970  0.28840  0.28830  Biso   1.000  H
  H123     1.0000 0.42700  0.39740  0.32900  Biso   1.000  H
  H124     1.0000 0.55480  0.14720  0.10020  Biso   1.000  H
  H125     1.0000 0.72690  0.21270  0.08270  Biso   1.000  H
  H126     1.0000 0.83050  0.18310  0.07320  Biso   1.000  H
  H127     1.0000 0.83890  0.14220  0.04920  Biso   1.000  H
  H128     1.0000 0.80010  0.22430  0.02110  Biso   1.000  H
  H129     1.0000 0.86130  0.23760  0.04090  Biso   1.000  H
  H130     1.0000 0.86780  0.19700  0.01670  Biso   1.000  H
  H131     1.0000 0.75590  0.09850  0.03380  Biso   1.000  H
  H132     1.0000 0.68390  0.10620  0.04660  Biso   1.000  H
  H133     1.0000 0.72100  0.16800  0.00010  Biso   1.000  H
  H134     1.0000 0.70300  0.11420  0.99140  Biso   1.000  H
  H135     1.0000 0.64980  0.14740  0.00670  Biso   1.000  H
  H136     1.0000 0.53710  0.26860  0.02410  Biso   1.000  H
  H137     1.0000 0.43830  0.16410  0.03510  Biso   1.000  H
  H138     1.0000 0.41510  0.16070  0.00190  Biso   1.000  H
  H139     1.0000 0.40890  0.23750  0.98190  Biso   1.000  H
  H140     1.0000 0.46510  0.27750  0.98540  Biso   1.000  H
  H141     1.0000 0.54880  0.14550  0.00400  Biso   1.000  H
  H142     1.0000 0.51490  0.10840  0.02560  Biso   1.000  H
  H143     1.0000 0.49590  0.10850  0.99200  Biso   1.000  H
  H144     1.0000 0.50640  0.18830  0.96190  Biso   1.000  H
  H145     1.0000 0.46470  0.22080  0.94030  Biso   1.000  H
  H146     1.0000 0.53200  0.24030  0.95310  Biso   1.000  H
  H147     1.0000 0.18290  0.91160  0.06250  Biso   1.000  H
  H148     1.0000 0.00310  0.96210  0.05270  Biso   1.000  H
  H149     1.0000 0.01190  0.90730  0.06220  Biso   1.000  H
  H150     1.0000 0.11050  0.01680  0.07040  Biso   1.000  H
  H151     1.0000 0.17690  0.99190  0.06020  Biso   1.000  H
  H152     1.0000 0.07140  0.02200  0.02330  Biso   1.000  H
  H153     1.0000 0.14680  0.03490  0.01940  Biso   1.000  H
  H154     1.0000 0.12110  0.98240  0.01180  Biso   1.000  H
  H155     1.0000 0.01490  0.98800  0.10030  Biso   1.000  H
  H156     1.0000 0.96310  0.94530  0.10110  Biso   1.000  H
  H157     1.0000 0.03680  0.93590  0.11070  Biso   1.000  H
  H158     1.0000 0.72440  0.77860  0.16770  Biso   1.000  H
  H159     1.0000 0.74660  0.63650  0.21170  Biso   1.000  H
  H160     1.0000 0.72540  0.68800  0.28430  Biso   1.000  H
  H161     1.0000 0.75540  0.63950  0.27030  Biso   1.000  H
  H162     1.0000 0.81060  0.74750  0.23330  Biso   1.000  H
  H163     1.0000 0.77900  0.74810  0.26540  Biso   1.000  H
  H164     1.0000 0.70570  0.76850  0.21250  Biso   1.000  H
  H165     1.0000 0.72260  0.80840  0.23610  Biso   1.000  H
  H166     1.0000 0.67240  0.76650  0.24370  Biso   1.000  H
  H167     1.0000 0.64160  0.66820  0.24070  Biso   1.000  H
  H168     1.0000 0.62450  0.65710  0.27370  Biso   1.000  H
  H169     1.0000 0.65520  0.61620  0.25380  Biso   1.000  H
  H170     1.0000 0.17260  0.21510  0.42530  Biso   1.000  H
  H171     1.0000 0.49810  0.30630  0.09620  Biso   1.000  H
  H172     1.0000 0.74790  0.63190  0.10200  Biso   1.000  H
  H173     1.0000 0.78760  0.69930  0.40020  Biso   1.000  H
  H174     1.0000 0.38260  0.28520  0.20130  Biso   1.000  H
  H175     1.0000 0.28950  0.26280  0.12440  Biso   1.000  H
  H176     1.0000 0.19060  0.24450  0.20040  Biso   1.000  H
  H177     1.0000 0.17890  0.24890  0.29790  Biso   1.000  H
  H178     1.0000 0.26630  0.25690  0.37690  Biso   1.000  H
  H179     1.0000 0.37510  0.27440  0.30370  Biso   1.000  H
  H180     1.0000 0.69730  0.56170  0.30010  Biso   1.000  H
  H181     1.0000 0.65730  0.50060  0.37830  Biso   1.000  H
  H182     1.0000 0.61770  0.42840  0.30340  Biso   1.000  H
  H183     1.0000 0.60350  0.42590  0.20120  Biso   1.000  H
  H184     1.0000 0.65270  0.49270  0.12570  Biso   1.000  H
  H185     1.0000 0.70070  0.55410  0.20280  Biso   1.000  H
  H186     1.0000 0.58900  0.73370  0.29510  Biso   1.000  H
  H187     1.0000 0.49080  0.75370  0.37160  Biso   1.000  H
  H188     1.0000 0.40180  0.78170  0.29420  Biso   1.000  H
  H189     1.0000 0.41410  0.79370  0.19410  Biso   1.000  H
  H190     1.0000 0.50840  0.76270  0.11880  Biso   1.000  H
  H191     1.0000 0.59060  0.72720  0.19540  Biso   1.000  H
  H192     1.0000 0.31140  0.66050  0.04760  Biso   1.000  H
  H193     1.0000 0.18010  0.73550  0.99920  Biso   1.000  H
  H194     1.0000 0.23600  0.60110  0.97390  Biso   1.000  H
  H195     1.0000 0.31130  0.47840  0.97470  Biso   1.000  H
  H196     1.0000 0.43030  0.36710  0.99500  Biso   1.000  H
  H197     1.0000 0.42460  0.48410  0.04800  Biso   1.000  H
  H198     1.0000 0.56770  0.28660  0.39620  Biso   1.000  H
  H199     1.0000 0.48410  0.46380  0.46920  Biso   1.000  H
  H200     1.0000 0.36490  0.35280  0.49080  Biso   1.000  H
  H201     1.0000 0.36890  0.47320  0.54120  Biso   1.000  H
  H202     1.0000 0.46920  0.64580  0.54070  Biso   1.000  H
  H203     1.0000 0.59230  0.73190  0.49490  Biso   1.000  H
  H204     1.0000 0.56150  0.59430  0.46910  Biso   1.000  H
  H205     1.0000 0.54190  0.78220  0.42470  Biso   1.000  H
  H206     1.0000 0.68390  0.84470  0.38030  Biso   1.000  H
  H207     1.0000 0.79840  0.73050  0.45040  Biso   1.000  H
  H208     1.0000 0.05970  0.21160  0.28830  Biso   1.000  H
  H209     1.0000 0.92700  0.10260  0.32900  Biso   1.000  H
  H210     1.0000 0.05480  0.35280  0.10020  Biso   1.000  H
  H211     1.0000 0.22690  0.28730  0.08270  Biso   1.000  H
  H212     1.0000 0.33050  0.31690  0.07320  Biso   1.000  H
  H213     1.0000 0.33890  0.35780  0.04920  Biso   1.000  H
  H214     1.0000 0.30010  0.27570  0.02110  Biso   1.000  H
  H215     1.0000 0.36130  0.26240  0.04090  Biso   1.000  H
  H216     1.0000 0.36780  0.30300  0.01670  Biso   1.000  H
  H217     1.0000 0.25590  0.40150  0.03380  Biso   1.000  H
  H218     1.0000 0.18390  0.39380  0.04660  Biso   1.000  H
  H219     1.0000 0.22100  0.33200  0.00010  Biso   1.000  H
  H220     1.0000 0.20300  0.38580  0.99140  Biso   1.000  H
  H221     1.0000 0.14980  0.35260  0.00670  Biso   1.000  H
  H222     1.0000 0.03710  0.23140  0.02410  Biso   1.000  H
  H223     1.0000 0.93830  0.33590  0.03510  Biso   1.000  H
  H224     1.0000 0.91510  0.33930  0.00190  Biso   1.000  H
  H225     1.0000 0.90890  0.26250  0.98190  Biso   1.000  H
  H226     1.0000 0.96510  0.22250  0.98540  Biso   1.000  H
  H227     1.0000 0.04880  0.35450  0.00400  Biso   1.000  H
  H228     1.0000 0.01490  0.39160  0.02560  Biso   1.000  H
  H229     1.0000 0.99590  0.39150  0.99200  Biso   1.000  H
  H230     1.0000 0.00640  0.31170  0.96190  Biso   1.000  H
  H231     1.0000 0.96470  0.27920  0.94030  Biso   1.000  H
  H232     1.0000 0.03200  0.25970  0.95310  Biso   1.000  H
  H233     1.0000 0.68290  0.58840  0.06250  Biso   1.000  H
  H234     1.0000 0.50310  0.53790  0.05270  Biso   1.000  H
  H235     1.0000 0.51190  0.59270  0.06220  Biso   1.000  H
  H236     1.0000 0.61050  0.48320  0.07040  Biso   1.000  H
  H237     1.0000 0.67690  0.50810  0.06020  Biso   1.000  H
  H238     1.0000 0.57140  0.47800  0.02330  Biso   1.000  H
  H239     1.0000 0.64680  0.46510  0.01940  Biso   1.000  H
  H240     1.0000 0.62110  0.51760  0.01180  Biso   1.000  H
  H241     1.0000 0.51490  0.51200  0.10030  Biso   1.000  H
  H242     1.0000 0.46310  0.55470  0.10110  Biso   1.000  H
  H243     1.0000 0.53680  0.56410  0.11070  Biso   1.000  H
  H244     1.0000 0.22440  0.72140  0.16770  Biso   1.000  H
  H245     1.0000 0.24660  0.86350  0.21170  Biso   1.000  H
  H246     1.0000 0.22540  0.81200  0.28430  Biso   1.000  H
  H247     1.0000 0.25540  0.86050  0.27030  Biso   1.000  H
  H248     1.0000 0.31060  0.75250  0.23330  Biso   1.000  H
  H249     1.0000 0.27900  0.75190  0.26540  Biso   1.000  H
  H250     1.0000 0.20570  0.73150  0.21250  Biso   1.000  H
  H251     1.0000 0.22260  0.69160  0.23610  Biso   1.000  H
  H252     1.0000 0.17240  0.73350  0.24370  Biso   1.000  H
  H253     1.0000 0.14160  0.83180  0.24070  Biso   1.000  H
  H254     1.0000 0.12450  0.84290  0.27370  Biso   1.000  H
  H255     1.0000 0.15520  0.88380  0.25380  Biso   1.000  H
  H256     1.0000 0.67260  0.28490  0.42530  Biso   1.000  H
  H257     1.0000 0.99810  0.19370  0.09620  Biso   1.000  H
  H258     1.0000 0.24790  0.86810  0.10200  Biso   1.000  H
  H259     1.0000 0.28760  0.30070  0.59980  Biso   1.000  H
  H260     1.0000 0.88260  0.71480  0.79870  Biso   1.000  H
  H261     1.0000 0.78950  0.73720  0.87560  Biso   1.000  H
  H262     1.0000 0.69060  0.75550  0.79960  Biso   1.000  H
  H263     1.0000 0.67890  0.75110  0.70210  Biso   1.000  H
  H264     1.0000 0.76630  0.74310  0.62310  Biso   1.000  H
  H265     1.0000 0.87510  0.72560  0.69630  Biso   1.000  H
  H266     1.0000 0.19730  0.43830  0.69990  Biso   1.000  H
  H267     1.0000 0.15730  0.49940  0.62170  Biso   1.000  H
  H268     1.0000 0.11770  0.57160  0.69660  Biso   1.000  H
  H269     1.0000 0.10350  0.57410  0.79880  Biso   1.000  H
  H270     1.0000 0.15270  0.50730  0.87430  Biso   1.000  H
  H271     1.0000 0.20070  0.44590  0.79720  Biso   1.000  H
  H272     1.0000 0.08900  0.26630  0.70490  Biso   1.000  H
  H273     1.0000 0.99080  0.24630  0.62840  Biso   1.000  H
  H274     1.0000 0.90180  0.21830  0.70580  Biso   1.000  H
  H275     1.0000 0.91410  0.20630  0.80590  Biso   1.000  H
  H276     1.0000 0.00840  0.23730  0.88120  Biso   1.000  H
  H277     1.0000 0.09060  0.27280  0.80460  Biso   1.000  H
  H278     1.0000 0.81140  0.33950  0.95240  Biso   1.000  H
  H279     1.0000 0.68010  0.26450  0.00080  Biso   1.000  H
  H280     1.0000 0.73600  0.39890  0.02610  Biso   1.000  H
  H281     1.0000 0.81130  0.52160  0.02530  Biso   1.000  H
  H282     1.0000 0.93030  0.63290  0.00500  Biso   1.000  H
  H283     1.0000 0.92460  0.51590  0.95200  Biso   1.000  H
  H284     1.0000 0.06770  0.71340  0.60380  Biso   1.000  H
  H285     1.0000 0.98410  0.53620  0.53080  Biso   1.000  H
  H286     1.0000 0.86490  0.64720  0.50920  Biso   1.000  H
  H287     1.0000 0.86890  0.52680  0.45880  Biso   1.000  H
  H288     1.0000 0.96920  0.35420  0.45930  Biso   1.000  H
  H289     1.0000 0.09230  0.26810  0.50510  Biso   1.000  H
  H290     1.0000 0.06150  0.40570  0.53090  Biso   1.000  H
  H291     1.0000 0.04190  0.21780  0.57530  Biso   1.000  H
  H292     1.0000 0.18390  0.15530  0.61970  Biso   1.000  H
  H293     1.0000 0.29840  0.26950  0.54960  Biso   1.000  H
  H294     1.0000 0.55970  0.78840  0.71170  Biso   1.000  H
  H295     1.0000 0.42700  0.89740  0.67100  Biso   1.000  H
  H296     1.0000 0.55480  0.64720  0.89980  Biso   1.000  H
  H297     1.0000 0.72690  0.71270  0.91730  Biso   1.000  H
  H298     1.0000 0.83050  0.68310  0.92680  Biso   1.000  H
  H299     1.0000 0.83890  0.64220  0.95080  Biso   1.000  H
  H300     1.0000 0.80010  0.72430  0.97890  Biso   1.000  H
  H301     1.0000 0.86130  0.73760  0.95910  Biso   1.000  H
  H302     1.0000 0.86780  0.69700  0.98330  Biso   1.000  H
  H303     1.0000 0.75590  0.59850  0.96620  Biso   1.000  H
  H304     1.0000 0.68390  0.60620  0.95340  Biso   1.000  H
  H305     1.0000 0.72100  0.66800  0.99990  Biso   1.000  H
  H306     1.0000 0.70300  0.61420  0.00860  Biso   1.000  H
  H307     1.0000 0.64980  0.64740  0.99330  Biso   1.000  H
  H308     1.0000 0.53710  0.76860  0.97590  Biso   1.000  H
  H309     1.0000 0.43830  0.66410  0.96490  Biso   1.000  H
  H310     1.0000 0.41510  0.66070  0.99810  Biso   1.000  H
  H311     1.0000 0.40890  0.73750  0.01810  Biso   1.000  H
  H312     1.0000 0.46510  0.77750  0.01460  Biso   1.000  H
  H313     1.0000 0.54880  0.64550  0.99600  Biso   1.000  H
  H314     1.0000 0.51490  0.60840  0.97440  Biso   1.000  H
  H315     1.0000 0.49590  0.60850  0.00800  Biso   1.000  H
  H316     1.0000 0.50640  0.68830  0.03810  Biso   1.000  H
  H317     1.0000 0.46470  0.72080  0.05970  Biso   1.000  H
  H318     1.0000 0.53200  0.74030  0.04690  Biso   1.000  H
  H319     1.0000 0.18290  0.41160  0.93750  Biso   1.000  H
  H320     1.0000 0.00310  0.46210  0.94730  Biso   1.000  H
  H321     1.0000 0.01190  0.40730  0.93780  Biso   1.000  H
  H322     1.0000 0.11050  0.51680  0.92960  Biso   1.000  H
  H323     1.0000 0.17690  0.49190  0.93980  Biso   1.000  H
  H324     1.0000 0.07140  0.52200  0.97670  Biso   1.000  H
  H325     1.0000 0.14680  0.53490  0.98060  Biso   1.000  H
  H326     1.0000 0.12110  0.48240  0.98820  Biso   1.000  H
  H327     1.0000 0.01490  0.48800  0.89970  Biso   1.000  H
  H328     1.0000 0.96310  0.44530  0.89890  Biso   1.000  H
  H329     1.0000 0.03680  0.43590  0.88930  Biso   1.000  H
  H330     1.0000 0.72440  0.27860  0.83230  Biso   1.000  H
  H331     1.0000 0.74660  0.13650  0.78830  Biso   1.000  H
  H332     1.0000 0.72540  0.18800  0.71570  Biso   1.000  H
  H333     1.0000 0.75540  0.13950  0.72970  Biso   1.000  H
  H334     1.0000 0.81060  0.24750  0.76670  Biso   1.000  H
  H335     1.0000 0.77900  0.24810  0.73460  Biso   1.000  H
  H336     1.0000 0.70570  0.26850  0.78750  Biso   1.000  H
  H337     1.0000 0.72260  0.30840  0.76390  Biso   1.000  H
  H338     1.0000 0.67240  0.26650  0.75630  Biso   1.000  H
  H339     1.0000 0.64160  0.16820  0.75930  Biso   1.000  H
  H340     1.0000 0.62450  0.15710  0.72630  Biso   1.000  H
  H341     1.0000 0.65520  0.11620  0.74620  Biso   1.000  H
  H342     1.0000 0.17260  0.71510  0.57470  Biso   1.000  H
  H343     1.0000 0.49810  0.80630  0.90380  Biso   1.000  H
  H344     1.0000 0.74790  0.13190  0.89800  Biso   1.000  H
  C1       1.0000 0.28650  0.76470  0.79387  Biso   1.000  C
  C2       1.0000 0.34460  0.77670  0.80911  Biso   1.000  C
  C3       1.0000 0.34590  0.77590  0.83934  Biso   1.000  C
  C4       1.0000 0.28870  0.76320  0.85510  Biso   1.000  C
  C5       1.0000 0.23070  0.75100  0.84009  Biso   1.000  C
  C6       1.0000 0.22950  0.75220  0.80964  Biso   1.000  C
  C7       1.0000 0.40800  0.78930  0.85568  Biso   1.000  C
  C8       1.0000 0.16950  0.73470  0.85619  Biso   1.000  C
  C9       1.0000 0.27680  0.76290  0.70469  Biso   1.000  C
  C10      1.0000 0.21660  0.75380  0.69065  Biso   1.000  C
  C11      1.0000 0.21100  0.75180  0.66050  Biso   1.000  C
  C12      1.0000 0.26870  0.75820  0.64352  Biso   1.000  C
  C13      1.0000 0.32900  0.76630  0.65700  Biso   1.000  C
  C14      1.0000 0.33410  0.76880  0.68746  Biso   1.000  C
  C15      1.0000 0.14570  0.74030  0.64594  Biso   1.000  C
  C16      1.0000 0.39070  0.77110  0.63879  Biso   1.000  C
  C17      1.0000 0.28370  0.76720  0.76190  Biso   1.000  C
  C18      1.0000 0.28110  0.76470  0.73584  Biso   1.000  C
  C19      1.0000 0.65550  0.99500  0.70334  Biso   1.000  C
  C20      1.0000 0.68040  0.03590  0.68897  Biso   1.000  C
  C21      1.0000 0.68020  0.03840  0.65878  Biso   1.000  C
  C22      1.0000 0.65660  0.99900  0.64223  Biso   1.000  C
  C23      1.0000 0.63260  0.95800  0.65592  Biso   1.000  C
  C24      1.0000 0.63300  0.95620  0.68705  Biso   1.000  C
  C25      1.0000 0.70480  0.08280  0.64292  Biso   1.000  C
  C26      1.0000 0.60910  0.91420  0.63912  Biso   1.000  C
  C27      1.0000 0.65170  0.99060  0.79260  Biso   1.000  C
  C28      1.0000 0.62330  0.95190  0.80856  Biso   1.000  C
  C29      1.0000 0.62530  0.95310  0.83923  Biso   1.000  C
  C30      1.0000 0.65290  0.99220  0.85378  Biso   1.000  C
  C31      1.0000 0.68030  0.03020  0.83876  Biso   1.000  C
  C32      1.0000 0.68070  0.02890  0.80772  Biso   1.000  C
  C33      1.0000 0.59440  0.91060  0.85657  Biso   1.000  C
  C34      1.0000 0.71000  0.07400  0.85469  Biso   1.000  C
  C35      1.0000 0.65320  0.99290  0.73457  Biso   1.000  C
  C36      1.0000 0.65110  0.99040  0.76115  Biso   1.000  C
  C37      1.0000 0.49570  0.25810  0.71045  Biso   1.000  C
  C38      1.0000 0.55100  0.24330  0.69483  Biso   1.000  C
  C39      1.0000 0.55020  0.24260  0.66404  Biso   1.000  C
  C40      1.0000 0.49190  0.25510  0.64886  Biso   1.000  C
  C41      1.0000 0.43560  0.26940  0.66451  Biso   1.000  C
  C42      1.0000 0.43880  0.27130  0.69523  Biso   1.000  C
  C43      1.0000 0.61180  0.22610  0.64733  Biso   1.000  C
  C44      1.0000 0.37300  0.28370  0.64855  Biso   1.000  C
  C45      1.0000 0.50120  0.26200  0.79983  Biso   1.000  C
  C46      1.0000 0.45080  0.28130  0.81580  Biso   1.000  C
  C47      1.0000 0.45160  0.28320  0.84655  Biso   1.000  C
  C48      1.0000 0.50610  0.26200  0.86072  Biso   1.000  C
  C49      1.0000 0.55600  0.24040  0.84517  Biso   1.000  C
  C50      1.0000 0.55540  0.24080  0.81510  Biso   1.000  C
  C51      1.0000 0.39750  0.30490  0.86336  Biso   1.000  C
  C52      1.0000 0.61200  0.21650  0.86146  Biso   1.000  C
  C53      1.0000 0.49730  0.26000  0.74155  Biso   1.000  C
  C54      1.0000 0.49900  0.26010  0.76822  Biso   1.000  C
  C55      1.0000 0.27970  0.12290  0.98758  Biso   1.000  C
  C56      1.0000 0.28320  0.16200  0.96857  Biso   1.000  C
  C57      1.0000 0.24640  0.20280  0.97305  Biso   1.000  C
  C58      1.0000 0.20530  0.20750  0.99791  Biso   1.000  C
  C59      1.0000 0.20320  0.16900  0.01834  Biso   1.000  C
  C60      1.0000 0.23880  0.12700  0.01294  Biso   1.000  C
  C61      1.0000 0.24810  0.24570  0.95094  Biso   1.000  C
  C62      1.0000 0.16020  0.17340  0.04525  Biso   1.000  C
  C63      1.0000 0.36450  0.99010  0.98811  Biso   1.000  C
  C64      1.0000 0.34240  0.96430  0.01271  Biso   1.000  C
  C65      1.0000 0.36650  0.91790  0.01866  Biso   1.000  C
  C66      1.0000 0.41270  0.89760  0.00051  Biso   1.000  C
  C67      1.0000 0.43380  0.92200  0.97532  Biso   1.000  C
  C68      1.0000 0.41030  0.96790  0.96886  Biso   1.000  C
  C69      1.0000 0.33910  0.88990  0.04424  Biso   1.000  C
  C70      1.0000 0.48270  0.89690  0.95539  Biso   1.000  C
  C71      1.0000 0.31400  0.07780  0.98358  Biso   1.000  C
  C72      1.0000 0.33880  0.03870  0.98342  Biso   1.000  C
  C73      1.0000 0.42830  0.97770  0.49410  Biso   1.000  C
  C74      1.0000 0.45250  0.95040  0.51825  Biso   1.000  C
  C75      1.0000 0.42900  0.90370  0.52321  Biso   1.000  C
  C76      1.0000 0.38240  0.88340  0.50492  Biso   1.000  C
  C77      1.0000 0.36140  0.90840  0.48000  Biso   1.000  C
  C78      1.0000 0.38410  0.95600  0.47516  Biso   1.000  C
  C79      1.0000 0.45790  0.87640  0.54928  Biso   1.000  C
  C80      1.0000 0.31250  0.88520  0.45953  Biso   1.000  C
  C81      1.0000 0.50970  0.11220  0.49494  Biso   1.000  C
  C82      1.0000 0.49800  0.15050  0.47509  Biso   1.000  C
  C83      1.0000 0.52840  0.19490  0.47872  Biso   1.000  C
  C84      1.0000 0.57150  0.20190  0.50256  Biso   1.000  C
  C85      1.0000 0.58320  0.16450  0.52234  Biso   1.000  C
  C86      1.0000 0.55270  0.11980  0.51793  Biso   1.000  C
  C87      1.0000 0.51520  0.23660  0.45821  Biso   1.000  C
  C88      1.0000 0.62950  0.17260  0.54808  Biso   1.000  C
  C89      1.0000 0.45390  0.02580  0.49060  Biso   1.000  C
  C90      1.0000 0.47740  0.06540  0.49144  Biso   1.000  C
  C91      1.0000 0.57310  0.30530  0.56960  Biso   1.000  C
  C92      1.0000 0.71410  0.32980  0.63230  Biso   1.000  C
  C93      1.0000 0.80320  0.26320  0.55460  Biso   1.000  C
  C94      1.0000 0.91540  0.25740  0.53380  Biso   1.000  C
  C95      1.0000 0.86560  0.33560  0.55810  Biso   1.000  C
  C96      1.0000 0.03070  0.68580  0.71520  Biso   1.000  C
  C97      1.0000 0.05500  0.69850  0.76630  Biso   1.000  C
  C98      1.0000 0.96110  0.63890  0.75050  Biso   1.000  C
  C99      1.0000 0.04700  0.75400  0.76170  Biso   1.000  C
  C100     1.0000 0.91630  0.60570  0.65110  Biso   1.000  C
  C101     1.0000 0.04550  0.83730  0.88200  Biso   1.000  C
  C102     1.0000 0.99030  0.84370  0.83580  Biso   1.000  C
  C103     1.0000 0.20630  0.80910  0.93010  Biso   1.000  C
  C104     1.0000 0.31710  0.82710  0.94640  Biso   1.000  C
  C105     1.0000 0.33860  0.78840  0.96910  Biso   1.000  C
  C106     1.0000 0.22000  0.87820  0.96390  Biso   1.000  C
  C107     1.0000 0.19630  0.86050  0.99430  Biso   1.000  C
  C108     1.0000 0.01630  0.76050  0.97069  Biso   1.000  C
  C109     1.0000 0.95290  0.83420  0.98520  Biso   1.000  C
  C110     1.0000 0.95640  0.75710  0.01660  Biso   1.000  C
  C111     1.0000 0.00830  0.87140  0.99150  Biso   1.000  C
  C112     1.0000 0.99330  0.77890  0.04270  Biso   1.000  C
  C113     1.0000 0.63730  0.09310  0.93576  Biso   1.000  C
  C114     1.0000 0.52610  0.05950  0.93380  Biso   1.000  C
  C115     1.0000 0.62940  0.00660  0.94330  Biso   1.000  C
  C116     1.0000 0.61590  0.99030  0.97520  Biso   1.000  C
  C117     1.0000 0.50870  0.04640  0.90260  Biso   1.000  C
  C118     1.0000 0.25180  0.21600  0.84850  Biso   1.000  C
  C119     1.0000 0.24870  0.32980  0.78620  Biso   1.000  C
  C120     1.0000 0.22550  0.33320  0.73280  Biso   1.000  C
  C121     1.0000 0.27020  0.25730  0.75540  Biso   1.000  C
  C122     1.0000 0.21200  0.22550  0.76680  Biso   1.000  C
  C123     1.0000 0.15500  0.34950  0.74200  Biso   1.000  C
  C124     1.0000 0.68230  0.81070  0.56200  Biso   1.000  C
  C125     1.0000 0.79620  0.84040  0.55320  Biso   1.000  C
  C126     1.0000 0.78650  0.23530  0.20613  Biso   1.000  C
  C127     1.0000 0.84460  0.22330  0.19089  Biso   1.000  C
  C128     1.0000 0.84590  0.22410  0.16066  Biso   1.000  C
  C129     1.0000 0.78870  0.23680  0.14490  Biso   1.000  C
  C130     1.0000 0.73070  0.24900  0.15991  Biso   1.000  C
  C131     1.0000 0.72950  0.24780  0.19036  Biso   1.000  C
  C132     1.0000 0.90800  0.21070  0.14432  Biso   1.000  C
  C133     1.0000 0.66950  0.26530  0.14381  Biso   1.000  C
  C134     1.0000 0.77680  0.23710  0.29531  Biso   1.000  C
  C135     1.0000 0.71660  0.24620  0.30935  Biso   1.000  C
  C136     1.0000 0.71100  0.24820  0.33950  Biso   1.000  C
  C137     1.0000 0.76870  0.24180  0.35648  Biso   1.000  C
  C138     1.0000 0.82900  0.23370  0.34300  Biso   1.000  C
  C139     1.0000 0.83410  0.23120  0.31254  Biso   1.000  C
  C140     1.0000 0.64570  0.25970  0.35406  Biso   1.000  C
  C141     1.0000 0.89070  0.22890  0.36121  Biso   1.000  C
  C142     1.0000 0.78370  0.23280  0.23810  Biso   1.000  C
  C143     1.0000 0.78110  0.23530  0.26416  Biso   1.000  C
  C144     1.0000 0.15550  0.00500  0.29666  Biso   1.000  C
  C145     1.0000 0.18040  0.96410  0.31103  Biso   1.000  C
  C146     1.0000 0.18020  0.96160  0.34122  Biso   1.000  C
  C147     1.0000 0.15660  0.00100  0.35777  Biso   1.000  C
  C148     1.0000 0.13260  0.04200  0.34408  Biso   1.000  C
  C149     1.0000 0.13300  0.04380  0.31295  Biso   1.000  C
  C150     1.0000 0.20480  0.91720  0.35708  Biso   1.000  C
  C151     1.0000 0.10910  0.08580  0.36088  Biso   1.000  C
  C152     1.0000 0.15170  0.00940  0.20740  Biso   1.000  C
  C153     1.0000 0.12330  0.04810  0.19144  Biso   1.000  C
  C154     1.0000 0.12530  0.04690  0.16077  Biso   1.000  C
  C155     1.0000 0.15290  0.00780  0.14622  Biso   1.000  C
  C156     1.0000 0.18030  0.96980  0.16124  Biso   1.000  C
  C157     1.0000 0.18070  0.97110  0.19228  Biso   1.000  C
  C158     1.0000 0.09440  0.08940  0.14343  Biso   1.000  C
  C159     1.0000 0.21000  0.92600  0.14531  Biso   1.000  C
  C160     1.0000 0.15320  0.00710  0.26543  Biso   1.000  C
  C161     1.0000 0.15110  0.00960  0.23885  Biso   1.000  C
  C162     1.0000 0.99570  0.74190  0.28955  Biso   1.000  C
  C163     1.0000 0.05100  0.75670  0.30517  Biso   1.000  C
  C164     1.0000 0.05020  0.75740  0.33596  Biso   1.000  C
  C165     1.0000 0.99190  0.74490  0.35114  Biso   1.000  C
  C166     1.0000 0.93560  0.73060  0.33549  Biso   1.000  C
  C167     1.0000 0.93880  0.72870  0.30477  Biso   1.000  C
  C168     1.0000 0.11180  0.77390  0.35267  Biso   1.000  C
  C169     1.0000 0.87300  0.71630  0.35145  Biso   1.000  C
  C170     1.0000 0.00120  0.73800  0.20017  Biso   1.000  C
  C171     1.0000 0.95080  0.71870  0.18420  Biso   1.000  C
  C172     1.0000 0.95160  0.71680  0.15345  Biso   1.000  C
  C173     1.0000 0.00610  0.73800  0.13928  Biso   1.000  C
  C174     1.0000 0.05600  0.75960  0.15483  Biso   1.000  C
  C175     1.0000 0.05540  0.75920  0.18490  Biso   1.000  C
  C176     1.0000 0.89750  0.69510  0.13664  Biso   1.000  C
  C177     1.0000 0.11200  0.78350  0.13854  Biso   1.000  C
  C178     1.0000 0.99730  0.74000  0.25845  Biso   1.000  C
  C179     1.0000 0.99900  0.73990  0.23178  Biso   1.000  C
  C180     1.0000 0.77970  0.87710  0.01242  Biso   1.000  C
  C181     1.0000 0.78320  0.83800  0.03143  Biso   1.000  C
  C182     1.0000 0.74640  0.79720  0.02695  Biso   1.000  C
  C183     1.0000 0.70530  0.79250  0.00209  Biso   1.000  C
  C184     1.0000 0.70320  0.83100  0.98166  Biso   1.000  C
  C185     1.0000 0.73880  0.87300  0.98706  Biso   1.000  C
  C186     1.0000 0.74810  0.75430  0.04906  Biso   1.000  C
  C187     1.0000 0.66020  0.82660  0.95475  Biso   1.000  C
  C188     1.0000 0.86450  0.00990  0.01189  Biso   1.000  C
  C189     1.0000 0.84240  0.03570  0.98729  Biso   1.000  C
  C190     1.0000 0.86650  0.08210  0.98134  Biso   1.000  C
  C191     1.0000 0.91270  0.10240  0.99949  Biso   1.000  C
  C192     1.0000 0.93380  0.07800  0.02468  Biso   1.000  C
  C193     1.0000 0.91030  0.03210  0.03114  Biso   1.000  C
  C194     1.0000 0.83910  0.11010  0.95576  Biso   1.000  C
  C195     1.0000 0.98270  0.10310  0.04461  Biso   1.000  C
  C196     1.0000 0.81400  0.92220  0.01642  Biso   1.000  C
  C197     1.0000 0.83880  0.96130  0.01658  Biso   1.000  C
  C198     1.0000 0.92830  0.02230  0.50590  Biso   1.000  C
  C199     1.0000 0.95250  0.04960  0.48175  Biso   1.000  C
  C200     1.0000 0.92900  0.09630  0.47679  Biso   1.000  C
  C201     1.0000 0.88240  0.11660  0.49508  Biso   1.000  C
  C202     1.0000 0.86140  0.09160  0.52000  Biso   1.000  C
  C203     1.0000 0.88410  0.04400  0.52484  Biso   1.000  C
  C204     1.0000 0.95790  0.12360  0.45072  Biso   1.000  C
  C205     1.0000 0.81250  0.11480  0.54047  Biso   1.000  C
  C206     1.0000 0.00970  0.88780  0.50506  Biso   1.000  C
  C207     1.0000 0.99800  0.84950  0.52491  Biso   1.000  C
  C208     1.0000 0.02840  0.80510  0.52128  Biso   1.000  C
  C209     1.0000 0.07150  0.79810  0.49744  Biso   1.000  C
  C210     1.0000 0.08320  0.83550  0.47766  Biso   1.000  C
  C211     1.0000 0.05270  0.88020  0.48207  Biso   1.000  C
  C212     1.0000 0.01520  0.76340  0.54179  Biso   1.000  C
  C213     1.0000 0.12950  0.82740  0.45192  Biso   1.000  C
  C214     1.0000 0.95390  0.97420  0.50940  Biso   1.000  C
  C215     1.0000 0.97740  0.93460  0.50856  Biso   1.000  C
  C216     1.0000 0.07310  0.69470  0.43040  Biso   1.000  C
  C217     1.0000 0.21410  0.67020  0.36770  Biso   1.000  C
  C218     1.0000 0.30320  0.73680  0.44540  Biso   1.000  C
  C219     1.0000 0.41540  0.74260  0.46620  Biso   1.000  C
  C220     1.0000 0.36560  0.66440  0.44190  Biso   1.000  C
  C221     1.0000 0.53070  0.31420  0.28480  Biso   1.000  C
  C222     1.0000 0.55500  0.30150  0.23370  Biso   1.000  C
  C223     1.0000 0.46110  0.36110  0.24950  Biso   1.000  C
  C224     1.0000 0.54700  0.24600  0.23830  Biso   1.000  C
  C225     1.0000 0.41630  0.39430  0.34890  Biso   1.000  C
  C226     1.0000 0.54550  0.16270  0.11800  Biso   1.000  C
  C227     1.0000 0.49030  0.15630  0.16420  Biso   1.000  C
  C228     1.0000 0.70630  0.19090  0.06990  Biso   1.000  C
  C229     1.0000 0.81710  0.17290  0.05360  Biso   1.000  C
  C230     1.0000 0.83860  0.21160  0.03090  Biso   1.000  C
  C231     1.0000 0.72000  0.12180  0.03610  Biso   1.000  C
  C232     1.0000 0.69630  0.13950  0.00570  Biso   1.000  C
  C233     1.0000 0.51630  0.23950  0.02931  Biso   1.000  C
  C234     1.0000 0.45290  0.16580  0.01480  Biso   1.000  C
  C235     1.0000 0.45640  0.24290  0.98340  Biso   1.000  C
  C236     1.0000 0.50830  0.12860  0.00850  Biso   1.000  C
  C237     1.0000 0.49330  0.22110  0.95730  Biso   1.000  C
  C238     1.0000 0.13730  0.90690  0.06424  Biso   1.000  C
  C239     1.0000 0.02610  0.94050  0.06620  Biso   1.000  C
  C240     1.0000 0.12940  0.99340  0.05670  Biso   1.000  C
  C241     1.0000 0.11590  0.00970  0.02480  Biso   1.000  C
  C242     1.0000 0.00870  0.95360  0.09740  Biso   1.000  C
  C243     1.0000 0.75180  0.78400  0.15150  Biso   1.000  C
  C244     1.0000 0.74870  0.67020  0.21380  Biso   1.000  C
  C245     1.0000 0.72550  0.66680  0.26720  Biso   1.000  C
  C246     1.0000 0.77020  0.74270  0.24460  Biso   1.000  C
  C247     1.0000 0.71200  0.77450  0.23320  Biso   1.000  C
  C248     1.0000 0.65500  0.65050  0.25800  Biso   1.000  C
  C249     1.0000 0.18230  0.18930  0.43800  Biso   1.000  C
  C250     1.0000 0.29620  0.15960  0.44680  Biso   1.000  C
  C251     1.0000 0.28650  0.26470  0.20613  Biso   1.000  C
  C252     1.0000 0.34460  0.27670  0.19089  Biso   1.000  C
  C253     1.0000 0.34590  0.27590  0.16066  Biso   1.000  C
  C254     1.0000 0.28870  0.26320  0.14490  Biso   1.000  C
  C255     1.0000 0.23070  0.25100  0.15991  Biso   1.000  C
  C256     1.0000 0.22950  0.25220  0.19036  Biso   1.000  C
  C257     1.0000 0.40800  0.28930  0.14432  Biso   1.000  C
  C258     1.0000 0.16950  0.23470  0.14381  Biso   1.000  C
  C259     1.0000 0.27680  0.26290  0.29531  Biso   1.000  C
  C260     1.0000 0.21660  0.25380  0.30935  Biso   1.000  C
  C261     1.0000 0.21100  0.25180  0.33950  Biso   1.000  C
  C262     1.0000 0.26870  0.25820  0.35648  Biso   1.000  C
  C263     1.0000 0.32900  0.26630  0.34300  Biso   1.000  C
  C264     1.0000 0.33410  0.26880  0.31254  Biso   1.000  C
  C265     1.0000 0.14570  0.24030  0.35406  Biso   1.000  C
  C266     1.0000 0.39070  0.27110  0.36121  Biso   1.000  C
  C267     1.0000 0.28370  0.26720  0.23810  Biso   1.000  C
  C268     1.0000 0.28110  0.26470  0.26416  Biso   1.000  C
  C269     1.0000 0.65550  0.49500  0.29666  Biso   1.000  C
  C270     1.0000 0.68040  0.53590  0.31103  Biso   1.000  C
  C271     1.0000 0.68020  0.53840  0.34122  Biso   1.000  C
  C272     1.0000 0.65660  0.49900  0.35777  Biso   1.000  C
  C273     1.0000 0.63260  0.45800  0.34408  Biso   1.000  C
  C274     1.0000 0.63300  0.45620  0.31295  Biso   1.000  C
  C275     1.0000 0.70480  0.58280  0.35708  Biso   1.000  C
  C276     1.0000 0.60910  0.41420  0.36088  Biso   1.000  C
  C277     1.0000 0.65170  0.49060  0.20740  Biso   1.000  C
  C278     1.0000 0.62330  0.45190  0.19144  Biso   1.000  C
  C279     1.0000 0.62530  0.45310  0.16077  Biso   1.000  C
  C280     1.0000 0.65290  0.49220  0.14622  Biso   1.000  C
  C281     1.0000 0.68030  0.53020  0.16124  Biso   1.000  C
  C282     1.0000 0.68070  0.52890  0.19228  Biso   1.000  C
  C283     1.0000 0.59440  0.41060  0.14343  Biso   1.000  C
  C284     1.0000 0.71000  0.57400  0.14531  Biso   1.000  C
  C285     1.0000 0.65320  0.49290  0.26543  Biso   1.000  C
  C286     1.0000 0.65110  0.49040  0.23885  Biso   1.000  C
  C287     1.0000 0.49570  0.75810  0.28955  Biso   1.000  C
  C288     1.0000 0.55100  0.74330  0.30517  Biso   1.000  C
  C289     1.0000 0.55020  0.74260  0.33596  Biso   1.000  C
  C290     1.0000 0.49190  0.75510  0.35114  Biso   1.000  C
  C291     1.0000 0.43560  0.76940  0.33549  Biso   1.000  C
  C292     1.0000 0.43880  0.77130  0.30477  Biso   1.000  C
  C293     1.0000 0.61180  0.72610  0.35267  Biso   1.000  C
  C294     1.0000 0.37300  0.78370  0.35145  Biso   1.000  C
  C295     1.0000 0.50120  0.76200  0.20017  Biso   1.000  C
  C296     1.0000 0.45080  0.78130  0.18420  Biso   1.000  C
  C297     1.0000 0.45160  0.78320  0.15345  Biso   1.000  C
  C298     1.0000 0.50610  0.76200  0.13928  Biso   1.000  C
  C299     1.0000 0.55600  0.74040  0.15483  Biso   1.000  C
  C300     1.0000 0.55540  0.74080  0.18490  Biso   1.000  C
  C301     1.0000 0.39750  0.80490  0.13664  Biso   1.000  C
  C302     1.0000 0.61200  0.71650  0.13854  Biso   1.000  C
  C303     1.0000 0.49730  0.76000  0.25845  Biso   1.000  C
  C304     1.0000 0.49900  0.76010  0.23178  Biso   1.000  C
  C305     1.0000 0.27970  0.62290  0.01242  Biso   1.000  C
  C306     1.0000 0.28320  0.66200  0.03143  Biso   1.000  C
  C307     1.0000 0.24640  0.70280  0.02695  Biso   1.000  C
  C308     1.0000 0.20530  0.70750  0.00209  Biso   1.000  C
  C309     1.0000 0.20320  0.66900  0.98166  Biso   1.000  C
  C310     1.0000 0.23880  0.62700  0.98706  Biso   1.000  C
  C311     1.0000 0.24810  0.74570  0.04906  Biso   1.000  C
  C312     1.0000 0.16020  0.67340  0.95475  Biso   1.000  C
  C313     1.0000 0.36450  0.49010  0.01189  Biso   1.000  C
  C314     1.0000 0.34240  0.46430  0.98729  Biso   1.000  C
  C315     1.0000 0.36650  0.41790  0.98134  Biso   1.000  C
  C316     1.0000 0.41270  0.39760  0.99949  Biso   1.000  C
  C317     1.0000 0.43380  0.42200  0.02468  Biso   1.000  C
  C318     1.0000 0.41030  0.46790  0.03114  Biso   1.000  C
  C319     1.0000 0.33910  0.38990  0.95576  Biso   1.000  C
  C320     1.0000 0.48270  0.39690  0.04461  Biso   1.000  C
  C321     1.0000 0.31400  0.57780  0.01642  Biso   1.000  C
  C322     1.0000 0.33880  0.53870  0.01658  Biso   1.000  C
  C323     1.0000 0.42830  0.47770  0.50590  Biso   1.000  C
  C324     1.0000 0.45250  0.45040  0.48175  Biso   1.000  C
  C325     1.0000 0.42900  0.40370  0.47679  Biso   1.000  C
  C326     1.0000 0.38240  0.38340  0.49508  Biso   1.000  C
  C327     1.0000 0.36140  0.40840  0.52000  Biso   1.000  C
  C328     1.0000 0.38410  0.45600  0.52484  Biso   1.000  C
  C329     1.0000 0.45790  0.37640  0.45072  Biso   1.000  C
  C330     1.0000 0.31250  0.38520  0.54047  Biso   1.000  C
  C331     1.0000 0.50970  0.61220  0.50506  Biso   1.000  C
  C332     1.0000 0.49800  0.65050  0.52491  Biso   1.000  C
  C333     1.0000 0.52840  0.69490  0.52128  Biso   1.000  C
  C334     1.0000 0.57150  0.70190  0.49744  Biso   1.000  C
  C335     1.0000 0.58320  0.66450  0.47766  Biso   1.000  C
  C336     1.0000 0.55270  0.61980  0.48207  Biso   1.000  C
  C337     1.0000 0.51520  0.73660  0.54179  Biso   1.000  C
  C338     1.0000 0.62950  0.67260  0.45192  Biso   1.000  C
  C339     1.0000 0.45390  0.52580  0.50940  Biso   1.000  C
  C340     1.0000 0.47740  0.56540  0.50856  Biso   1.000  C
  C341     1.0000 0.57310  0.80530  0.43040  Biso   1.000  C
  C342     1.0000 0.71410  0.82980  0.36770  Biso   1.000  C
  C343     1.0000 0.80320  0.76320  0.44540  Biso   1.000  C
  C344     1.0000 0.91540  0.75740  0.46620  Biso   1.000  C
  C345     1.0000 0.86560  0.83560  0.44190  Biso   1.000  C
  C346     1.0000 0.03070  0.18580  0.28480  Biso   1.000  C
  C347     1.0000 0.05500  0.19850  0.23370  Biso   1.000  C
  C348     1.0000 0.96110  0.13890  0.24950  Biso   1.000  C
  C349     1.0000 0.04700  0.25400  0.23830  Biso   1.000  C
  C350     1.0000 0.91630  0.10570  0.34890  Biso   1.000  C
  C351     1.0000 0.04550  0.33730  0.11800  Biso   1.000  C
  C352     1.0000 0.99030  0.34370  0.16420  Biso   1.000  C
  C353     1.0000 0.20630  0.30910  0.06990  Biso   1.000  C
  C354     1.0000 0.31710  0.32710  0.05360  Biso   1.000  C
  C355     1.0000 0.33860  0.28840  0.03090  Biso   1.000  C
  C356     1.0000 0.22000  0.37820  0.03610  Biso   1.000  C
  C357     1.0000 0.19630  0.36050  0.00570  Biso   1.000  C
  C358     1.0000 0.01630  0.26050  0.02931  Biso   1.000  C
  C359     1.0000 0.95290  0.33420  0.01480  Biso   1.000  C
  C360     1.0000 0.95640  0.25710  0.98340  Biso   1.000  C
  C361     1.0000 0.00830  0.37140  0.00850  Biso   1.000  C
  C362     1.0000 0.99330  0.27890  0.95730  Biso   1.000  C
  C363     1.0000 0.63730  0.59310  0.06424  Biso   1.000  C
  C364     1.0000 0.52610  0.55950  0.06620  Biso   1.000  C
  C365     1.0000 0.62940  0.50660  0.05670  Biso   1.000  C
  C366     1.0000 0.61590  0.49030  0.02480  Biso   1.000  C
  C367     1.0000 0.50870  0.54640  0.09740  Biso   1.000  C
  C368     1.0000 0.25180  0.71600  0.15150  Biso   1.000  C
  C369     1.0000 0.24870  0.82980  0.21380  Biso   1.000  C
  C370     1.0000 0.22550  0.83320  0.26720  Biso   1.000  C
  C371     1.0000 0.27020  0.75730  0.24460  Biso   1.000  C
  C372     1.0000 0.21200  0.72550  0.23320  Biso   1.000  C
  C373     1.0000 0.15500  0.84950  0.25800  Biso   1.000  C
  C374     1.0000 0.68230  0.31070  0.43800  Biso   1.000  C
  C375     1.0000 0.79620  0.34040  0.44680  Biso   1.000  C
  C376     1.0000 0.78650  0.73530  0.79387  Biso   1.000  C
  C377     1.0000 0.84460  0.72330  0.80911  Biso   1.000  C
  C378     1.0000 0.84590  0.72410  0.83934  Biso   1.000  C
  C379     1.0000 0.78870  0.73680  0.85510  Biso   1.000  C
  C380     1.0000 0.73070  0.74900  0.84009  Biso   1.000  C
  C381     1.0000 0.72950  0.74780  0.80964  Biso   1.000  C
  C382     1.0000 0.90800  0.71070  0.85568  Biso   1.000  C
  C383     1.0000 0.66950  0.76530  0.85619  Biso   1.000  C
  C384     1.0000 0.77680  0.73710  0.70469  Biso   1.000  C
  C385     1.0000 0.71660  0.74620  0.69065  Biso   1.000  C
  C386     1.0000 0.71100  0.74820  0.66050  Biso   1.000  C
  C387     1.0000 0.76870  0.74180  0.64352  Biso   1.000  C
  C388     1.0000 0.82900  0.73370  0.65700  Biso   1.000  C
  C389     1.0000 0.83410  0.73120  0.68746  Biso   1.000  C
  C390     1.0000 0.64570  0.75970  0.64594  Biso   1.000  C
  C391     1.0000 0.89070  0.72890  0.63879  Biso   1.000  C
  C392     1.0000 0.78370  0.73280  0.76190  Biso   1.000  C
  C393     1.0000 0.78110  0.73530  0.73584  Biso   1.000  C
  C394     1.0000 0.15550  0.50500  0.70334  Biso   1.000  C
  C395     1.0000 0.18040  0.46410  0.68897  Biso   1.000  C
  C396     1.0000 0.18020  0.46160  0.65878  Biso   1.000  C
  C397     1.0000 0.15660  0.50100  0.64223  Biso   1.000  C
  C398     1.0000 0.13260  0.54200  0.65592  Biso   1.000  C
  C399     1.0000 0.13300  0.54380  0.68705  Biso   1.000  C
  C400     1.0000 0.20480  0.41720  0.64292  Biso   1.000  C
  C401     1.0000 0.10910  0.58580  0.63912  Biso   1.000  C
  C402     1.0000 0.15170  0.50940  0.79260  Biso   1.000  C
  C403     1.0000 0.12330  0.54810  0.80856  Biso   1.000  C
  C404     1.0000 0.12530  0.54690  0.83923  Biso   1.000  C
  C405     1.0000 0.15290  0.50780  0.85378  Biso   1.000  C
  C406     1.0000 0.18030  0.46980  0.83876  Biso   1.000  C
  C407     1.0000 0.18070  0.47110  0.80772  Biso   1.000  C
  C408     1.0000 0.09440  0.58940  0.85657  Biso   1.000  C
  C409     1.0000 0.21000  0.42600  0.85469  Biso   1.000  C
  C410     1.0000 0.15320  0.50710  0.73457  Biso   1.000  C
  C411     1.0000 0.15110  0.50960  0.76115  Biso   1.000  C
  C412     1.0000 0.99570  0.24190  0.71045  Biso   1.000  C
  C413     1.0000 0.05100  0.25670  0.69483  Biso   1.000  C
  C414     1.0000 0.05020  0.25740  0.66404  Biso   1.000  C
  C415     1.0000 0.99190  0.24490  0.64886  Biso   1.000  C
  C416     1.0000 0.93560  0.23060  0.66451  Biso   1.000  C
  C417     1.0000 0.93880  0.22870  0.69523  Biso   1.000  C
  C418     1.0000 0.11180  0.27390  0.64733  Biso   1.000  C
  C419     1.0000 0.87300  0.21630  0.64855  Biso   1.000  C
  C420     1.0000 0.00120  0.23800  0.79983  Biso   1.000  C
  C421     1.0000 0.95080  0.21870  0.81580  Biso   1.000  C
  C422     1.0000 0.95160  0.21680  0.84655  Biso   1.000  C
  C423     1.0000 0.00610  0.23800  0.86072  Biso   1.000  C
  C424     1.0000 0.05600  0.25960  0.84517  Biso   1.000  C
  C425     1.0000 0.05540  0.25920  0.81510  Biso   1.000  C
  C426     1.0000 0.89750  0.19510  0.86336  Biso   1.000  C
  C427     1.0000 0.11200  0.28350  0.86146  Biso   1.000  C
  C428     1.0000 0.99730  0.24000  0.74155  Biso   1.000  C
  C429     1.0000 0.99900  0.23990  0.76822  Biso   1.000  C
  C430     1.0000 0.77970  0.37710  0.98758  Biso   1.000  C
  C431     1.0000 0.78320  0.33800  0.96857  Biso   1.000  C
  C432     1.0000 0.74640  0.29720  0.97305  Biso   1.000  C
  C433     1.0000 0.70530  0.29250  0.99791  Biso   1.000  C
  C434     1.0000 0.70320  0.33100  0.01834  Biso   1.000  C
  C435     1.0000 0.73880  0.37300  0.01294  Biso   1.000  C
  C436     1.0000 0.74810  0.25430  0.95094  Biso   1.000  C
  C437     1.0000 0.66020  0.32660  0.04525  Biso   1.000  C
  C438     1.0000 0.86450  0.50990  0.98811  Biso   1.000  C
  C439     1.0000 0.84240  0.53570  0.01271  Biso   1.000  C
  C440     1.0000 0.86650  0.58210  0.01866  Biso   1.000  C
  C441     1.0000 0.91270  0.60240  0.00051  Biso   1.000  C
  C442     1.0000 0.93380  0.57800  0.97532  Biso   1.000  C
  C443     1.0000 0.91030  0.53210  0.96886  Biso   1.000  C
  C444     1.0000 0.83910  0.61010  0.04424  Biso   1.000  C
  C445     1.0000 0.98270  0.60310  0.95539  Biso   1.000  C
  C446     1.0000 0.81400  0.42220  0.98358  Biso   1.000  C
  C447     1.0000 0.83880  0.46130  0.98342  Biso   1.000  C
  C448     1.0000 0.92830  0.52230  0.49410  Biso   1.000  C
  C449     1.0000 0.95250  0.54960  0.51825  Biso   1.000  C
  C450     1.0000 0.92900  0.59630  0.52321  Biso   1.000  C
  C451     1.0000 0.88240  0.61660  0.50492  Biso   1.000  C
  C452     1.0000 0.86140  0.59160  0.48000  Biso   1.000  C
  C453     1.0000 0.88410  0.54400  0.47516  Biso   1.000  C
  C454     1.0000 0.95790  0.62360  0.54928  Biso   1.000  C
  C455     1.0000 0.81250  0.61480  0.45953  Biso   1.000  C
  C456     1.0000 0.00970  0.38780  0.49494  Biso   1.000  C
  C457     1.0000 0.99800  0.34950  0.47509  Biso   1.000  C
  C458     1.0000 0.02840  0.30510  0.47872  Biso   1.000  C
  C459     1.0000 0.07150  0.29810  0.50256  Biso   1.000  C
  C460     1.0000 0.08320  0.33550  0.52234  Biso   1.000  C
  C461     1.0000 0.05270  0.38020  0.51793  Biso   1.000  C
  C462     1.0000 0.01520  0.26340  0.45821  Biso   1.000  C
  C463     1.0000 0.12950  0.32740  0.54808  Biso   1.000  C
  C464     1.0000 0.95390  0.47420  0.49060  Biso   1.000  C
  C465     1.0000 0.97740  0.43460  0.49144  Biso   1.000  C
  C466     1.0000 0.07310  0.19470  0.56960  Biso   1.000  C
  C467     1.0000 0.21410  0.17020  0.63230  Biso   1.000  C
  C468     1.0000 0.30320  0.23680  0.55460  Biso   1.000  C
  C469     1.0000 0.41540  0.24260  0.53380  Biso   1.000  C
  C470     1.0000 0.36560  0.16440  0.55810  Biso   1.000  C
  C471     1.0000 0.53070  0.81420  0.71520  Biso   1.000  C
  C472     1.0000 0.55500  0.80150  0.76630  Biso   1.000  C
  C473     1.0000 0.46110  0.86110  0.75050  Biso   1.000  C
  C474     1.0000 0.54700  0.74600  0.76170  Biso   1.000  C
  C475     1.0000 0.41630  0.89430  0.65110  Biso   1.000  C
  C476     1.0000 0.54550  0.66270  0.88200  Biso   1.000  C
  C477     1.0000 0.49030  0.65630  0.83580  Biso   1.000  C
  C478     1.0000 0.70630  0.69090  0.93010  Biso   1.000  C
  C479     1.0000 0.81710  0.67290  0.94640  Biso   1.000  C
  C480     1.0000 0.83860  0.71160  0.96910  Biso   1.000  C
  C481     1.0000 0.72000  0.62180  0.96390  Biso   1.000  C
  C482     1.0000 0.69630  0.63950  0.99430  Biso   1.000  C
  C483     1.0000 0.51630  0.73950  0.97069  Biso   1.000  C
  C484     1.0000 0.45290  0.66580  0.98520  Biso   1.000  C
  C485     1.0000 0.45640  0.74290  0.01660  Biso   1.000  C
  C486     1.0000 0.50830  0.62860  0.99150  Biso   1.000  C
  C487     1.0000 0.49330  0.72110  0.04270  Biso   1.000  C
  C488     1.0000 0.13730  0.40690  0.93576  Biso   1.000  C
  C489     1.0000 0.02610  0.44050  0.93380  Biso   1.000  C
  C490     1.0000 0.12940  0.49340  0.94330  Biso   1.000  C
  C491     1.0000 0.11590  0.50970  0.97520  Biso   1.000  C
  C492     1.0000 0.00870  0.45360  0.90260  Biso   1.000  C
  C493     1.0000 0.75180  0.28400  0.84850  Biso   1.000  C
  C494     1.0000 0.74870  0.17020  0.78620  Biso   1.000  C
  C495     1.0000 0.72550  0.16680  0.73280  Biso   1.000  C
  C496     1.0000 0.77020  0.24270  0.75540  Biso   1.000  C
  C497     1.0000 0.71200  0.27450  0.76680  Biso   1.000  C
  C498     1.0000 0.65500  0.15050  0.74200  Biso   1.000  C
  C499     1.0000 0.18230  0.68930  0.56200  Biso   1.000  C
  C500     1.0000 0.29620  0.65960  0.55320  Biso   1.000  C
  N1       1.0000 0.56600  0.33990  0.55010  Biso   1.000  N
  N2       1.0000 0.73760  0.35730  0.65360  Biso   1.000  N
  N3       1.0000 0.85910  0.28490  0.54780  Biso   1.000  N
  N4       1.0000 0.01810  0.67180  0.74250  Biso   1.000  N
  N5       1.0000 0.85850  0.58730  0.64280  Biso   1.000  N
  N6       1.0000 0.03340  0.86560  0.85980  Biso   1.000  N
  N7       1.0000 0.24370  0.83400  0.94730  Biso   1.000  N
  N8       1.0000 0.98680  0.78600  0.99170  Biso   1.000  N
  N9       1.0000 0.59920  0.05540  0.93850  Biso   1.000  N
  N10      1.0000 0.26950  0.17240  0.85620  Biso   1.000  N
  N11      1.0000 0.23940  0.30640  0.76100  Biso   1.000  N
  N12      1.0000 0.74450  0.80050  0.55630  Biso   1.000  N
  N13      1.0000 0.06600  0.66010  0.44990  Biso   1.000  N
  N14      1.0000 0.23760  0.64270  0.34640  Biso   1.000  N
  N15      1.0000 0.35910  0.71510  0.45220  Biso   1.000  N
  N16      1.0000 0.51810  0.32820  0.25750  Biso   1.000  N
  N17      1.0000 0.35850  0.41270  0.35720  Biso   1.000  N
  N18      1.0000 0.53340  0.13440  0.14020  Biso   1.000  N
  N19      1.0000 0.74370  0.16600  0.05270  Biso   1.000  N
  N20      1.0000 0.48680  0.21400  0.00830  Biso   1.000  N
  N21      1.0000 0.09920  0.94460  0.06150  Biso   1.000  N
  N22      1.0000 0.76950  0.82760  0.14380  Biso   1.000  N
  N23      1.0000 0.73940  0.69360  0.23900  Biso   1.000  N
  N24      1.0000 0.24450  0.19950  0.44370  Biso   1.000  N
  N25      1.0000 0.56600  0.83990  0.44990  Biso   1.000  N
  N26      1.0000 0.73760  0.85730  0.34640  Biso   1.000  N
  N27      1.0000 0.85910  0.78490  0.45220  Biso   1.000  N
  N28      1.0000 0.01810  0.17180  0.25750  Biso   1.000  N
  N29      1.0000 0.85850  0.08730  0.35720  Biso   1.000  N
  N30      1.0000 0.03340  0.36560  0.14020  Biso   1.000  N
  N31      1.0000 0.24370  0.33400  0.05270  Biso   1.000  N
  N32      1.0000 0.98680  0.28600  0.00830  Biso   1.000  N
  N33      1.0000 0.59920  0.55540  0.06150  Biso   1.000  N
  N34      1.0000 0.26950  0.67240  0.14380  Biso   1.000  N
  N35      1.0000 0.23940  0.80640  0.23900  Biso   1.000  N
  N36      1.0000 0.74450  0.30050  0.44370  Biso   1.000  N
  N37      1.0000 0.06600  0.16010  0.55010  Biso   1.000  N
  N38      1.0000 0.23760  0.14270  0.65360  Biso   1.000  N
  N39      1.0000 0.35910  0.21510  0.54780  Biso   1.000  N
  N40      1.0000 0.51810  0.82820  0.74250  Biso   1.000  N
  N41      1.0000 0.35850  0.91270  0.64280  Biso   1.000  N
  N42      1.0000 0.53340  0.63440  0.85980  Biso   1.000  N
  N43      1.0000 0.74370  0.66600  0.94730  Biso   1.000  N
  N44      1.0000 0.48680  0.71400  0.99170  Biso   1.000  N
  N45      1.0000 0.09920  0.44460  0.93850  Biso   1.000  N
  N46      1.0000 0.76950  0.32760  0.85620  Biso   1.000  N
  N47      1.0000 0.73940  0.19360  0.76100  Biso   1.000  N
  N48      1.0000 0.24450  0.69950  0.55630  Biso   1.000  N
  O1       1.0000 0.40790  0.79310  0.88244  Biso   1.000  O
  O2       1.0000 0.45970  0.79531  0.83860  Biso   1.000  O
  O3       1.0000 0.17008  0.73576  0.88394  Biso   1.000  O
  O4       1.0000 0.12080  0.72222  0.84026  Biso   1.000  O
  O5       1.0000 0.14300  0.74300  0.61821  Biso   1.000  O
  O6       1.0000 0.09940  0.72732  0.66225  Biso   1.000  O
  O7       1.0000 0.38390  0.77560  0.61104  Biso   1.000  O
  O8       1.0000 0.44650  0.77130  0.65236  Biso   1.000  O
  O9       1.0000 0.74773  0.19146  0.60382  Biso   1.000  O
  O10      1.0000 0.70180  0.08290  0.61553  Biso   1.000  O
  O11      1.0000 0.72730  0.11702  0.65880  Biso   1.000  O
  O12      1.0000 0.60340  0.92050  0.61151  Biso   1.000  O
  O13      1.0000 0.59680  0.87690  0.65269  Biso   1.000  O
  O14      1.0000 0.60280  0.91217  0.88370  Biso   1.000  O
  O15      1.0000 0.56650  0.87821  0.84218  Biso   1.000  O
  O16      1.0000 0.71190  0.07250  0.88171  Biso   1.000  O
  O17      1.0000 0.73340  0.10728  0.83809  Biso   1.000  O
  O18      1.0000 0.61090  0.22810  0.62023  Biso   1.000  O
  O19      1.0000 0.66050  0.21330  0.66379  Biso   1.000  O
  O20      1.0000 0.37400  0.28530  0.62096  Biso   1.000  O
  O21      1.0000 0.32310  0.29347  0.66510  Biso   1.000  O
  O22      1.0000 0.39840  0.29740  0.89095  Biso   1.000  O
  O23      1.0000 0.35440  0.32900  0.85021  Biso   1.000  O
  O24      1.0000 0.61120  0.22180  0.88943  Biso   1.000  O
  O25      1.0000 0.65490  0.19460  0.84660  Biso   1.000  O
  O26      1.0000 0.19470  0.27005  0.94856  Biso   1.000  O
  O27      1.0000 0.30030  0.25204  0.93701  Biso   1.000  O
  O28      1.0000 0.13980  0.21426  0.05191  Biso   1.000  O
  O29      1.0000 0.14890  0.13417  0.05913  Biso   1.000  O
  O30      1.0000 0.36480  0.85005  0.05025  Biso   1.000  O
  O31      1.0000 0.29210  0.90740  0.05800  Biso   1.000  O
  O32      1.0000 0.50340  0.85510  0.96134  Biso   1.000  O
  O33      1.0000 0.50330  0.92023  0.93277  Biso   1.000  O
  O34      1.0000 0.53906  0.80919  0.60565  Biso   1.000  O
  O35      1.0000 0.42600  0.83945  0.55823  Biso   1.000  O
  O36      1.0000 0.51220  0.89195  0.55919  Biso   1.000  O
  O37      1.0000 0.29220  0.84370  0.46447  Biso   1.000  O
  O38      1.0000 0.29630  0.90910  0.43648  Biso   1.000  O
  O39      1.0000 0.54730  0.27452  0.46009  Biso   1.000  O
  O40      1.0000 0.46920  0.22908  0.43892  Biso   1.000  O
  O41      1.0000 0.64610  0.21424  0.55421  Biso   1.000  O
  O42      1.0000 0.64640  0.13375  0.56176  Biso   1.000  O
  O43      1.0000 0.63020  0.30990  0.57871  Biso   1.000  O
  O44      1.0000 0.72660  0.28780  0.62703  Biso   1.000  O
  O45      1.0000 0.75890  0.28270  0.56654  Biso   1.000  O
  O46      1.0000 0.00490  0.66540  0.69491  Biso   1.000  O
  O47      1.0000 0.95660  0.62590  0.63577  Biso   1.000  O
  O48      1.0000 0.04620  0.79270  0.88246  Biso   1.000  O
  O49      1.0000 0.14600  0.81167  0.92914  Biso   1.000  O
  O50      1.0000 0.01760  0.77300  0.94449  Biso   1.000  O
  O51      1.0000 0.61690  0.13480  0.93105  Biso   1.000  O
  O52      1.0000 0.27210  0.24910  0.86330  Biso   1.000  O
  O53      1.0000 0.26030  0.30200  0.80616  Biso   1.000  O
  O54      1.0000 0.66120  0.85190  0.56741  Biso   1.000  O
  O55      1.0000 0.03868  0.68986  0.89917  Biso   1.000  O
  O56      1.0000 0.24910  0.33731  0.89588  Biso   1.000  O
  O57      1.0000 0.90790  0.20690  0.11756  Biso   1.000  O
  O58      1.0000 0.95970  0.20469  0.16140  Biso   1.000  O
  O59      1.0000 0.67008  0.26424  0.11606  Biso   1.000  O
  O60      1.0000 0.62080  0.27778  0.15974  Biso   1.000  O
  O61      1.0000 0.64300  0.25700  0.38179  Biso   1.000  O
  O62      1.0000 0.59940  0.27268  0.33775  Biso   1.000  O
  O63      1.0000 0.88390  0.22440  0.38896  Biso   1.000  O
  O64      1.0000 0.94650  0.22870  0.34764  Biso   1.000  O
  O65      1.0000 0.24773  0.80854  0.39618  Biso   1.000  O
  O66      1.0000 0.20180  0.91710  0.38447  Biso   1.000  O
  O67      1.0000 0.22730  0.88298  0.34120  Biso   1.000  O
  O68      1.0000 0.10340  0.07950  0.38849  Biso   1.000  O
  O69      1.0000 0.09680  0.12310  0.34731  Biso   1.000  O
  O70      1.0000 0.10280  0.08783  0.11630  Biso   1.000  O
  O71      1.0000 0.06650  0.12179  0.15782  Biso   1.000  O
  O72      1.0000 0.21190  0.92750  0.11829  Biso   1.000  O
  O73      1.0000 0.23340  0.89272  0.16191  Biso   1.000  O
  O74      1.0000 0.11090  0.77190  0.37977  Biso   1.000  O
  O75      1.0000 0.16050  0.78670  0.33621  Biso   1.000  O
  O76      1.0000 0.87400  0.71470  0.37904  Biso   1.000  O
  O77      1.0000 0.82310  0.70653  0.33490  Biso   1.000  O
  O78      1.0000 0.89840  0.70260  0.10905  Biso   1.000  O
  O79      1.0000 0.85440  0.67100  0.14979  Biso   1.000  O
  O80      1.0000 0.11120  0.77820  0.11057  Biso   1.000  O
  O81      1.0000 0.15490  0.80540  0.15340  Biso   1.000  O
  O82      1.0000 0.69470  0.72995  0.05144  Biso   1.000  O
  O83      1.0000 0.80030  0.74796  0.06299  Biso   1.000  O
  O84      1.0000 0.63980  0.78574  0.94809  Biso   1.000  O
  O85      1.0000 0.64890  0.86583  0.94087  Biso   1.000  O
  O86      1.0000 0.86480  0.14995  0.94975  Biso   1.000  O
  O87      1.0000 0.79210  0.09260  0.94200  Biso   1.000  O
  O88      1.0000 0.00340  0.14490  0.03866  Biso   1.000  O
  O89      1.0000 0.00330  0.07977  0.06723  Biso   1.000  O
  O90      1.0000 0.03906  0.19081  0.39435  Biso   1.000  O
  O91      1.0000 0.92600  0.16055  0.44177  Biso   1.000  O
  O92      1.0000 0.01220  0.10805  0.44081  Biso   1.000  O
  O93      1.0000 0.79220  0.15630  0.53553  Biso   1.000  O
  O94      1.0000 0.79630  0.09090  0.56352  Biso   1.000  O
  O95      1.0000 0.04730  0.72548  0.53991  Biso   1.000  O
  O96      1.0000 0.96920  0.77092  0.56108  Biso   1.000  O
  O97      1.0000 0.14610  0.78576  0.44579  Biso   1.000  O
  O98      1.0000 0.14640  0.86625  0.43824  Biso   1.000  O
  O99      1.0000 0.13020  0.69010  0.42129  Biso   1.000  O
  O100     1.0000 0.22660  0.71220  0.37297  Biso   1.000  O
  O101     1.0000 0.25890  0.71730  0.43346  Biso   1.000  O
  O102     1.0000 0.50490  0.33460  0.30509  Biso   1.000  O
  O103     1.0000 0.45660  0.37410  0.36423  Biso   1.000  O
  O104     1.0000 0.54620  0.20730  0.11754  Biso   1.000  O
  O105     1.0000 0.64600  0.18833  0.07086  Biso   1.000  O
  O106     1.0000 0.51760  0.22700  0.05551  Biso   1.000  O
  O107     1.0000 0.11690  0.86520  0.06895  Biso   1.000  O
  O108     1.0000 0.77210  0.75090  0.13670  Biso   1.000  O
  O109     1.0000 0.76030  0.69800  0.19384  Biso   1.000  O
  O110     1.0000 0.16120  0.14810  0.43259  Biso   1.000  O
  O111     1.0000 0.53868  0.31014  0.10083  Biso   1.000  O
  O112     1.0000 0.74910  0.66269  0.10412  Biso   1.000  O
  O113     1.0000 0.40790  0.29310  0.11756  Biso   1.000  O
  O114     1.0000 0.45970  0.29531  0.16140  Biso   1.000  O
  O115     1.0000 0.17008  0.23576  0.11606  Biso   1.000  O
  O116     1.0000 0.12080  0.22222  0.15974  Biso   1.000  O
  O117     1.0000 0.14300  0.24300  0.38179  Biso   1.000  O
  O118     1.0000 0.09940  0.22732  0.33775  Biso   1.000  O
  O119     1.0000 0.38390  0.27560  0.38896  Biso   1.000  O
  O120     1.0000 0.44650  0.27130  0.34764  Biso   1.000  O
  O121     1.0000 0.74773  0.69146  0.39618  Biso   1.000  O
  O122     1.0000 0.70180  0.58290  0.38447  Biso   1.000  O
  O123     1.0000 0.72730  0.61702  0.34120  Biso   1.000  O
  O124     1.0000 0.60340  0.42050  0.38849  Biso   1.000  O
  O125     1.0000 0.59680  0.37690  0.34731  Biso   1.000  O
  O126     1.0000 0.60280  0.41217  0.11630  Biso   1.000  O
  O127     1.0000 0.56650  0.37821  0.15782  Biso   1.000  O
  O128     1.0000 0.71190  0.57250  0.11829  Biso   1.000  O
  O129     1.0000 0.73340  0.60728  0.16191  Biso   1.000  O
  O130     1.0000 0.61090  0.72810  0.37977  Biso   1.000  O
  O131     1.0000 0.66050  0.71330  0.33621  Biso   1.000  O
  O132     1.0000 0.37400  0.78530  0.37904  Biso   1.000  O
  O133     1.0000 0.32310  0.79347  0.33490  Biso   1.000  O
  O134     1.0000 0.39840  0.79740  0.10905  Biso   1.000  O
  O135     1.0000 0.35440  0.82900  0.14979  Biso   1.000  O
  O136     1.0000 0.61120  0.72180  0.11057  Biso   1.000  O
  O137     1.0000 0.65490  0.69460  0.15340  Biso   1.000  O
  O138     1.0000 0.19470  0.77005  0.05144  Biso   1.000  O
  O139     1.0000 0.30030  0.75204  0.06299  Biso   1.000  O
  O140     1.0000 0.13980  0.71426  0.94809  Biso   1.000  O
  O141     1.0000 0.14890  0.63417  0.94087  Biso   1.000  O
  O142     1.0000 0.36480  0.35005  0.94975  Biso   1.000  O
  O143     1.0000 0.29210  0.40740  0.94200  Biso   1.000  O
  O144     1.0000 0.50340  0.35510  0.03866  Biso   1.000  O
  O145     1.0000 0.50330  0.42023  0.06723  Biso   1.000  O
  O146     1.0000 0.53906  0.30919  0.39435  Biso   1.000  O
  O147     1.0000 0.42600  0.33945  0.44177  Biso   1.000  O
  O148     1.0000 0.51220  0.39195  0.44081  Biso   1.000  O
  O149     1.0000 0.29220  0.34370  0.53553  Biso   1.000  O
  O150     1.0000 0.29630  0.40910  0.56352  Biso   1.000  O
  O151     1.0000 0.54730  0.77452  0.53991  Biso   1.000  O
  O152     1.0000 0.46920  0.72908  0.56108  Biso   1.000  O
  O153     1.0000 0.64610  0.71424  0.44579  Biso   1.000  O
  O154     1.0000 0.64640  0.63375  0.43824  Biso   1.000  O
  O155     1.0000 0.63020  0.80990  0.42129  Biso   1.000  O
  O156     1.0000 0.72660  0.78780  0.37297  Biso   1.000  O
  O157     1.0000 0.75890  0.78270  0.43346  Biso   1.000  O
  O158     1.0000 0.00490  0.16540  0.30509  Biso   1.000  O
  O159     1.0000 0.95660  0.12590  0.36423  Biso   1.000  O
  O160     1.0000 0.04620  0.29270  0.11754  Biso   1.000  O
  O161     1.0000 0.14600  0.31167  0.07086  Biso   1.000  O
  O162     1.0000 0.01760  0.27300  0.05551  Biso   1.000  O
  O163     1.0000 0.61690  0.63480  0.06895  Biso   1.000  O
  O164     1.0000 0.27210  0.74910  0.13670  Biso   1.000  O
  O165     1.0000 0.26030  0.80200  0.19384  Biso   1.000  O
  O166     1.0000 0.66120  0.35190  0.43259  Biso   1.000  O
  O167     1.0000 0.03868  0.18986  0.10083  Biso   1.000  O
  O168     1.0000 0.24910  0.83731  0.10412  Biso   1.000  O
  O169     1.0000 0.90790  0.70690  0.88244  Biso   1.000  O
  O170     1.0000 0.95970  0.70469  0.83860  Biso   1.000  O
  O171     1.0000 0.67008  0.76424  0.88394  Biso   1.000  O
  O172     1.0000 0.62080  0.77778  0.84026  Biso   1.000  O
  O173     1.0000 0.64300  0.75700  0.61821  Biso   1.000  O
  O174     1.0000 0.59940  0.77268  0.66225  Biso   1.000  O
  O175     1.0000 0.88390  0.72440  0.61104  Biso   1.000  O
  O176     1.0000 0.94650  0.72870  0.65236  Biso   1.000  O
  O177     1.0000 0.24773  0.30854  0.60382  Biso   1.000  O
  O178     1.0000 0.20180  0.41710  0.61553  Biso   1.000  O
  O179     1.0000 0.22730  0.38298  0.65880  Biso   1.000  O
  O180     1.0000 0.10340  0.57950  0.61151  Biso   1.000  O
  O181     1.0000 0.09680  0.62310  0.65269  Biso   1.000  O
  O182     1.0000 0.10280  0.58783  0.88370  Biso   1.000  O
  O183     1.0000 0.06650  0.62179  0.84218  Biso   1.000  O
  O184     1.0000 0.21190  0.42750  0.88171  Biso   1.000  O
  O185     1.0000 0.23340  0.39272  0.83809  Biso   1.000  O
  O186     1.0000 0.11090  0.27190  0.62023  Biso   1.000  O
  O187     1.0000 0.16050  0.28670  0.66379  Biso   1.000  O
  O188     1.0000 0.87400  0.21470  0.62096  Biso   1.000  O
  O189     1.0000 0.82310  0.20653  0.66510  Biso   1.000  O
  O190     1.0000 0.89840  0.20260  0.89095  Biso   1.000  O
  O191     1.0000 0.85440  0.17100  0.85021  Biso   1.000  O
  O192     1.0000 0.11120  0.27820  0.88943  Biso   1.000  O
  O193     1.0000 0.15490  0.30540  0.84660  Biso   1.000  O
  O194     1.0000 0.69470  0.22995  0.94856  Biso   1.000  O
  O195     1.0000 0.80030  0.24796  0.93701  Biso   1.000  O
  O196     1.0000 0.63980  0.28574  0.05191  Biso   1.000  O
  O197     1.0000 0.64890  0.36583  0.05913  Biso   1.000  O
  O198     1.0000 0.86480  0.64995  0.05025  Biso   1.000  O
  O199     1.0000 0.79210  0.59260  0.05800  Biso   1.000  O
  O200     1.0000 0.00340  0.64490  0.96134  Biso   1.000  O
  O201     1.0000 0.00330  0.57977  0.93277  Biso   1.000  O
  O202     1.0000 0.03906  0.69081  0.60565  Biso   1.000  O
  O203     1.0000 0.92600  0.66055  0.55823  Biso   1.000  O
  O204     1.0000 0.01220  0.60805  0.55919  Biso   1.000  O
  O205     1.0000 0.79220  0.65630  0.46447  Biso   1.000  O
  O206     1.0000 0.79630  0.59090  0.43648  Biso   1.000  O
  O207     1.0000 0.04730  0.22548  0.46009  Biso   1.000  O
  O208     1.0000 0.96920  0.27092  0.43892  Biso   1.000  O
  O209     1.0000 0.14610  0.28576  0.55421  Biso   1.000  O
  O210     1.0000 0.14640  0.36625  0.56176  Biso   1.000  O
  O211     1.0000 0.13020  0.19010  0.57871  Biso   1.000  O
  O212     1.0000 0.22660  0.21220  0.62703  Biso   1.000  O
  O213     1.0000 0.25890  0.21730  0.56654  Biso   1.000  O
  O214     1.0000 0.50490  0.83460  0.69491  Biso   1.000  O
  O215     1.0000 0.45660  0.87410  0.63577  Biso   1.000  O
  O216     1.0000 0.54620  0.70730  0.88246  Biso   1.000  O
  O217     1.0000 0.64600  0.68833  0.92914  Biso   1.000  O
  O218     1.0000 0.51760  0.72700  0.94449  Biso   1.000  O
  O219     1.0000 0.11690  0.36520  0.93105  Biso   1.000  O
  O220     1.0000 0.77210  0.25090  0.86330  Biso   1.000  O
  O221     1.0000 0.76030  0.19800  0.80616  Biso   1.000  O
  O222     1.0000 0.16120  0.64810  0.56741  Biso   1.000  O
  O223     1.0000 0.53868  0.81014  0.89917  Biso   1.000  O
  O224     1.0000 0.74910  0.16269  0.89588  Biso   1.000  O
