data_YOZBOF_clean
_audit_creation_date              2015-05-19
_audit_creation_method            'Materials Studio'
_symmetry_space_group_name_H-M    'P1'
_symmetry_Int_Tables_number       1
_symmetry_cell_setting            triclinic
loop_
_symmetry_equiv_pos_as_xyz
  x,y,z
_cell_length_a                    25.7890
_cell_length_b                    25.7890
_cell_length_c                    19.7970
_cell_angle_alpha                 90.0000
_cell_angle_beta                  90.0000
_cell_angle_gamma                 120.0000
loop_
_atom_site_label
_atom_site_type_symbol
_atom_site_fract_x
_atom_site_fract_y
_atom_site_fract_z
_atom_site_U_iso_or_equiv
_atom_site_adp_type
_atom_site_occupancy
Zn1    Zn    0.43191   0.10032   0.59785   0.01267  Uiso   1.00
H2     H     0.29750   0.07560   0.59100   0.01267  Uiso   1.00
H3     H     0.43580   0.12000   0.43900   0.01267  Uiso   1.00
H4     H     0.48310   0.18490   0.29000   0.01267  Uiso   1.00
H5     H     0.41370   0.14110   0.28960   0.01267  Uiso   1.00
H6     H     0.45490   0.12730   0.33520   0.01267  Uiso   1.00
H7     H     0.54930   0.19500   0.52740   0.01267  Uiso   1.00
H8     H     0.32450   0.99800   0.68850   0.01267  Uiso   1.00
C9     C     0.31480   0.02210   0.52700   0.01267  Uiso   1.00
C10    C     0.28260   0.04640   0.55600   0.01267  Uiso   1.00
C11    C     0.22170   0.02120   0.52570   0.01267  Uiso   1.00
C12    C     0.18700   0.05000   0.55800   0.01267  Uiso   1.00
C13    C     0.43230   0.19020   0.49850   0.01267  Uiso   1.00
C14    C     0.43650   0.15710   0.43830   0.01267  Uiso   1.00
C15    C     0.44190   0.19400   0.37550   0.01267  Uiso   1.00
C16    C     0.44900   0.15800   0.31700   0.01267  Uiso   1.00
C17    C     0.55500   0.16420   0.54580   0.01267  Uiso   1.00
C18    C     0.35410   0.02850   0.71620   0.01267  Uiso   1.00
N19    N     0.37130   0.03510   0.54280   0.01267  Uiso   1.00
N20    N     0.43060   0.17080   0.56410   0.01267  Uiso   1.00
N21    N     0.51170   0.11360   0.57580   0.01267  Uiso   1.00
N22    N     0.40420   0.08000   0.69310   0.01267  Uiso   1.00
O23    O     0.54530   0.00840   0.63240   0.01267  Uiso   1.00
O24    O     0.50850   0.18580   0.69470   0.01267  Uiso   1.00
Zn25   Zn    0.89968   0.33159   0.59785   0.01267  Uiso   1.00
H26    H     0.92440   0.22190   0.59100   0.01267  Uiso   1.00
H27    H     0.88000   0.31580   0.43900   0.01267  Uiso   1.00
H28    H     0.81510   0.29820   0.29000   0.01267  Uiso   1.00
H29    H     0.85890   0.27260   0.28960   0.01267  Uiso   1.00
H30    H     0.87270   0.32760   0.33520   0.01267  Uiso   1.00
H31    H     0.80500   0.35430   0.52740   0.01267  Uiso   1.00
H32    H     0.00200   0.32650   0.68850   0.01267  Uiso   1.00
C33    C     0.97790   0.29270   0.52700   0.01267  Uiso   1.00
C34    C     0.95360   0.23620   0.55600   0.01267  Uiso   1.00
C35    C     0.97880   0.20050   0.52570   0.01267  Uiso   1.00
C36    C     0.95000   0.13700   0.55800   0.01267  Uiso   1.00
C37    C     0.80980   0.24210   0.49850   0.01267  Uiso   1.00
C38    C     0.84290   0.27940   0.43830   0.01267  Uiso   1.00
C39    C     0.80600   0.24790   0.37550   0.01267  Uiso   1.00
C40    C     0.84200   0.29100   0.31700   0.01267  Uiso   1.00
C41    C     0.83580   0.39080   0.54580   0.01267  Uiso   1.00
C42    C     0.97150   0.32560   0.71620   0.01267  Uiso   1.00
N43    N     0.96490   0.33620   0.54280   0.01267  Uiso   1.00
N44    N     0.82920   0.25980   0.56410   0.01267  Uiso   1.00
N45    N     0.88640   0.39810   0.57580   0.01267  Uiso   1.00
N46    N     0.92000   0.32420   0.69310   0.01267  Uiso   1.00
O47    O     0.99160   0.53690   0.63240   0.01267  Uiso   1.00
O48    O     0.81420   0.32270   0.69470   0.01267  Uiso   1.00
Zn49   Zn    0.66841   0.56809   0.59785   0.01267  Uiso   1.00
H50    H     0.77810   0.70250   0.59100   0.01267  Uiso   1.00
H51    H     0.68420   0.56420   0.43900   0.01267  Uiso   1.00
H52    H     0.64570   0.45070   0.52740   0.01267  Uiso   1.00
H53    H     0.67350   0.67550   0.68850   0.01267  Uiso   1.00
C54    C     0.70730   0.68520   0.52700   0.01267  Uiso   1.00
C55    C     0.76380   0.71740   0.55600   0.01267  Uiso   1.00
C56    C     0.79950   0.77830   0.52570   0.01267  Uiso   1.00
C57    C     0.86300   0.81300   0.55800   0.01267  Uiso   1.00
C58    C     0.75790   0.56770   0.49850   0.01267  Uiso   1.00
C59    C     0.72060   0.56350   0.43830   0.01267  Uiso   1.00
C60    C     0.75210   0.55810   0.37550   0.01267  Uiso   1.00
C61    C     0.60920   0.44500   0.54580   0.01267  Uiso   1.00
C62    C     0.67440   0.64590   0.71620   0.01267  Uiso   1.00
N63    N     0.66380   0.62870   0.54280   0.01267  Uiso   1.00
N64    N     0.74020   0.56940   0.56410   0.01267  Uiso   1.00
N65    N     0.60190   0.48830   0.57580   0.01267  Uiso   1.00
N66    N     0.67580   0.59580   0.69310   0.01267  Uiso   1.00
O67    O     0.46310   0.45470   0.63240   0.01267  Uiso   1.00
O68    O     0.67730   0.49150   0.69470   0.01267  Uiso   1.00
Zn69   Zn    0.56809   0.89968   0.09785   0.01267  Uiso   1.00
H70    H     0.70250   0.92440   0.09100   0.01267  Uiso   1.00
H71    H     0.56420   0.88000   0.93900   0.01267  Uiso   1.00
H72    H     0.51690   0.81510   0.79000   0.01267  Uiso   1.00
H73    H     0.58630   0.85890   0.78960   0.01267  Uiso   1.00
H74    H     0.54510   0.87270   0.83520   0.01267  Uiso   1.00
H75    H     0.45070   0.80500   0.02740   0.01267  Uiso   1.00
H76    H     0.67550   0.00200   0.18850   0.01267  Uiso   1.00
C77    C     0.68520   0.97790   0.02700   0.01267  Uiso   1.00
C78    C     0.71740   0.95360   0.05600   0.01267  Uiso   1.00
C79    C     0.77830   0.97880   0.02570   0.01267  Uiso   1.00
C80    C     0.81300   0.95000   0.05800   0.01267  Uiso   1.00
C81    C     0.56770   0.80980   0.99850   0.01267  Uiso   1.00
C82    C     0.56350   0.84290   0.93830   0.01267  Uiso   1.00
C83    C     0.55810   0.80600   0.87550   0.01267  Uiso   1.00
C84    C     0.55100   0.84200   0.81700   0.01267  Uiso   1.00
C85    C     0.44500   0.83580   0.04580   0.01267  Uiso   1.00
C86    C     0.64590   0.97150   0.21620   0.01267  Uiso   1.00
N87    N     0.62870   0.96490   0.04280   0.01267  Uiso   1.00
N88    N     0.56940   0.82920   0.06410   0.01267  Uiso   1.00
N89    N     0.48830   0.88640   0.07580   0.01267  Uiso   1.00
N90    N     0.59580   0.92000   0.19310   0.01267  Uiso   1.00
O91    O     0.45470   0.99160   0.13240   0.01267  Uiso   1.00
O92    O     0.49150   0.81420   0.19470   0.01267  Uiso   1.00
Zn93   Zn    0.10032   0.66841   0.09785   0.01267  Uiso   1.00
H94    H     0.07560   0.77810   0.09100   0.01267  Uiso   1.00
H95    H     0.12000   0.68420   0.93900   0.01267  Uiso   1.00
H96    H     0.18490   0.70180   0.79000   0.01267  Uiso   1.00
H97    H     0.14110   0.72740   0.78960   0.01267  Uiso   1.00
H98    H     0.12730   0.67240   0.83520   0.01267  Uiso   1.00
H99    H     0.19500   0.64570   0.02740   0.01267  Uiso   1.00
H100   H     0.99800   0.67350   0.18850   0.01267  Uiso   1.00
C101   C     0.02210   0.70730   0.02700   0.01267  Uiso   1.00
C102   C     0.04640   0.76380   0.05600   0.01267  Uiso   1.00
C103   C     0.02120   0.79950   0.02570   0.01267  Uiso   1.00
C104   C     0.05000   0.86300   0.05800   0.01267  Uiso   1.00
C105   C     0.19020   0.75790   0.99850   0.01267  Uiso   1.00
C106   C     0.15710   0.72060   0.93830   0.01267  Uiso   1.00
C107   C     0.19400   0.75210   0.87550   0.01267  Uiso   1.00
C108   C     0.15800   0.70900   0.81700   0.01267  Uiso   1.00
C109   C     0.16420   0.60920   0.04580   0.01267  Uiso   1.00
C110   C     0.02850   0.67440   0.21620   0.01267  Uiso   1.00
N111   N     0.03510   0.66380   0.04280   0.01267  Uiso   1.00
N112   N     0.17080   0.74020   0.06410   0.01267  Uiso   1.00
N113   N     0.11360   0.60190   0.07580   0.01267  Uiso   1.00
N114   N     0.08000   0.67580   0.19310   0.01267  Uiso   1.00
O115   O     0.00840   0.46310   0.13240   0.01267  Uiso   1.00
O116   O     0.18580   0.67730   0.19470   0.01267  Uiso   1.00
Zn117  Zn    0.33159   0.43191   0.09785   0.01267  Uiso   1.00
H118   H     0.22190   0.29750   0.09100   0.01267  Uiso   1.00
H119   H     0.31580   0.43580   0.93900   0.01267  Uiso   1.00
H120   H     0.29820   0.48310   0.79000   0.01267  Uiso   1.00
H121   H     0.27260   0.41370   0.78960   0.01267  Uiso   1.00
H122   H     0.32760   0.45490   0.83520   0.01267  Uiso   1.00
H123   H     0.35430   0.54930   0.02740   0.01267  Uiso   1.00
H124   H     0.32650   0.32450   0.18850   0.01267  Uiso   1.00
C125   C     0.29270   0.31480   0.02700   0.01267  Uiso   1.00
C126   C     0.23620   0.28260   0.05600   0.01267  Uiso   1.00
C127   C     0.20050   0.22170   0.02570   0.01267  Uiso   1.00
C128   C     0.13700   0.18700   0.05800   0.01267  Uiso   1.00
C129   C     0.24210   0.43230   0.99850   0.01267  Uiso   1.00
C130   C     0.27940   0.43650   0.93830   0.01267  Uiso   1.00
C131   C     0.24790   0.44190   0.87550   0.01267  Uiso   1.00
C132   C     0.29100   0.44900   0.81700   0.01267  Uiso   1.00
C133   C     0.39080   0.55500   0.04580   0.01267  Uiso   1.00
C134   C     0.32560   0.35410   0.21620   0.01267  Uiso   1.00
N135   N     0.33620   0.37130   0.04280   0.01267  Uiso   1.00
N136   N     0.25980   0.43060   0.06410   0.01267  Uiso   1.00
N137   N     0.39810   0.51170   0.07580   0.01267  Uiso   1.00
N138   N     0.32420   0.40420   0.19310   0.01267  Uiso   1.00
O139   O     0.53690   0.54530   0.13240   0.01267  Uiso   1.00
O140   O     0.32270   0.50850   0.19470   0.01267  Uiso   1.00
Zn141  Zn    0.10032   0.43191   0.40215   0.01267  Uiso   1.00
H142   H     0.07560   0.29750   0.40900   0.01267  Uiso   1.00
H143   H     0.12000   0.43580   0.56100   0.01267  Uiso   1.00
H144   H     0.18490   0.48310   0.71000   0.01267  Uiso   1.00
H145   H     0.14110   0.41370   0.71040   0.01267  Uiso   1.00
H146   H     0.12730   0.45490   0.66480   0.01267  Uiso   1.00
H147   H     0.19500   0.54930   0.47260   0.01267  Uiso   1.00
H148   H     0.99800   0.32450   0.31150   0.01267  Uiso   1.00
C149   C     0.02210   0.31480   0.47300   0.01267  Uiso   1.00
C150   C     0.04640   0.28260   0.44400   0.01267  Uiso   1.00
C151   C     0.02120   0.22170   0.47430   0.01267  Uiso   1.00
C152   C     0.19020   0.43230   0.50150   0.01267  Uiso   1.00
C153   C     0.15710   0.43650   0.56170   0.01267  Uiso   1.00
C154   C     0.19400   0.44190   0.62450   0.01267  Uiso   1.00
C155   C     0.15800   0.44900   0.68300   0.01267  Uiso   1.00
C156   C     0.16420   0.55500   0.45420   0.01267  Uiso   1.00
C157   C     0.02850   0.35410   0.28380   0.01267  Uiso   1.00
N158   N     0.03510   0.37130   0.45720   0.01267  Uiso   1.00
N159   N     0.17080   0.43060   0.43590   0.01267  Uiso   1.00
N160   N     0.11360   0.51170   0.42420   0.01267  Uiso   1.00
N161   N     0.08000   0.40420   0.30690   0.01267  Uiso   1.00
O162   O     0.00840   0.54530   0.36760   0.01267  Uiso   1.00
O163   O     0.18580   0.50850   0.30530   0.01267  Uiso   1.00
Zn164  Zn    0.33159   0.89968   0.40215   0.01267  Uiso   1.00
H165   H     0.22190   0.92440   0.40900   0.01267  Uiso   1.00
H166   H     0.31580   0.88000   0.56100   0.01267  Uiso   1.00
H167   H     0.29820   0.81510   0.71000   0.01267  Uiso   1.00
H168   H     0.27260   0.85890   0.71040   0.01267  Uiso   1.00
H169   H     0.32760   0.87270   0.66480   0.01267  Uiso   1.00
H170   H     0.35430   0.80500   0.47260   0.01267  Uiso   1.00
H171   H     0.32650   0.00200   0.31150   0.01267  Uiso   1.00
C172   C     0.29270   0.97790   0.47300   0.01267  Uiso   1.00
C173   C     0.23620   0.95360   0.44400   0.01267  Uiso   1.00
C174   C     0.20050   0.97880   0.47430   0.01267  Uiso   1.00
C175   C     0.24210   0.80980   0.50150   0.01267  Uiso   1.00
C176   C     0.27940   0.84290   0.56170   0.01267  Uiso   1.00
C177   C     0.24790   0.80600   0.62450   0.01267  Uiso   1.00
C178   C     0.29100   0.84200   0.68300   0.01267  Uiso   1.00
C179   C     0.39080   0.83580   0.45420   0.01267  Uiso   1.00
C180   C     0.32560   0.97150   0.28380   0.01267  Uiso   1.00
N181   N     0.33620   0.96490   0.45720   0.01267  Uiso   1.00
N182   N     0.25980   0.82920   0.43590   0.01267  Uiso   1.00
N183   N     0.39810   0.88640   0.42420   0.01267  Uiso   1.00
N184   N     0.32420   0.92000   0.30690   0.01267  Uiso   1.00
O185   O     0.53690   0.99160   0.36760   0.01267  Uiso   1.00
O186   O     0.32270   0.81420   0.30530   0.01267  Uiso   1.00
Zn187  Zn    0.56809   0.66841   0.40215   0.01267  Uiso   1.00
H188   H     0.70250   0.77810   0.40900   0.01267  Uiso   1.00
H189   H     0.56420   0.68420   0.56100   0.01267  Uiso   1.00
H190   H     0.51690   0.70180   0.71000   0.01267  Uiso   1.00
H191   H     0.58630   0.72740   0.71040   0.01267  Uiso   1.00
H192   H     0.54510   0.67240   0.66480   0.01267  Uiso   1.00
H193   H     0.45070   0.64570   0.47260   0.01267  Uiso   1.00
H194   H     0.67550   0.67350   0.31150   0.01267  Uiso   1.00
C195   C     0.68520   0.70730   0.47300   0.01267  Uiso   1.00
C196   C     0.71740   0.76380   0.44400   0.01267  Uiso   1.00
C197   C     0.77830   0.79950   0.47430   0.01267  Uiso   1.00
C198   C     0.56770   0.75790   0.50150   0.01267  Uiso   1.00
C199   C     0.56350   0.72060   0.56170   0.01267  Uiso   1.00
C200   C     0.55810   0.75210   0.62450   0.01267  Uiso   1.00
C201   C     0.55100   0.70900   0.68300   0.01267  Uiso   1.00
C202   C     0.44500   0.60920   0.45420   0.01267  Uiso   1.00
C203   C     0.64590   0.67440   0.28380   0.01267  Uiso   1.00
N204   N     0.62870   0.66380   0.45720   0.01267  Uiso   1.00
N205   N     0.56940   0.74020   0.43590   0.01267  Uiso   1.00
N206   N     0.48830   0.60190   0.42420   0.01267  Uiso   1.00
N207   N     0.59580   0.67580   0.30690   0.01267  Uiso   1.00
O208   O     0.45470   0.46310   0.36760   0.01267  Uiso   1.00
O209   O     0.49150   0.67730   0.30530   0.01267  Uiso   1.00
Zn210  Zn    0.89968   0.56809   0.90215   0.01267  Uiso   1.00
H211   H     0.92440   0.70250   0.90900   0.01267  Uiso   1.00
H212   H     0.88000   0.56420   0.06100   0.01267  Uiso   1.00
H213   H     0.80500   0.45070   0.97260   0.01267  Uiso   1.00
H214   H     0.00200   0.67550   0.81150   0.01267  Uiso   1.00
C215   C     0.97790   0.68520   0.97300   0.01267  Uiso   1.00
C216   C     0.95360   0.71740   0.94400   0.01267  Uiso   1.00
C217   C     0.97880   0.77830   0.97430   0.01267  Uiso   1.00
C218   C     0.80980   0.56770   0.00150   0.01267  Uiso   1.00
C219   C     0.84290   0.56350   0.06170   0.01267  Uiso   1.00
C220   C     0.80600   0.55810   0.12450   0.01267  Uiso   1.00
C221   C     0.83580   0.44500   0.95420   0.01267  Uiso   1.00
C222   C     0.97150   0.64590   0.78380   0.01267  Uiso   1.00
N223   N     0.96490   0.62870   0.95720   0.01267  Uiso   1.00
N224   N     0.82920   0.56940   0.93590   0.01267  Uiso   1.00
N225   N     0.88640   0.48830   0.92420   0.01267  Uiso   1.00
N226   N     0.92000   0.59580   0.80690   0.01267  Uiso   1.00
O227   O     0.99160   0.45470   0.86760   0.01267  Uiso   1.00
O228   O     0.81420   0.49150   0.80530   0.01267  Uiso   1.00
Zn229  Zn    0.66841   0.10032   0.90215   0.01267  Uiso   1.00
H230   H     0.77810   0.07560   0.90900   0.01267  Uiso   1.00
H231   H     0.68420   0.12000   0.06100   0.01267  Uiso   1.00
H232   H     0.70180   0.18490   0.21000   0.01267  Uiso   1.00
H233   H     0.72740   0.14110   0.21040   0.01267  Uiso   1.00
H234   H     0.67240   0.12730   0.16480   0.01267  Uiso   1.00
H235   H     0.64570   0.19500   0.97260   0.01267  Uiso   1.00
H236   H     0.67350   0.99800   0.81150   0.01267  Uiso   1.00
C237   C     0.70730   0.02210   0.97300   0.01267  Uiso   1.00
C238   C     0.76380   0.04640   0.94400   0.01267  Uiso   1.00
C239   C     0.79950   0.02120   0.97430   0.01267  Uiso   1.00
C240   C     0.75790   0.19020   0.00150   0.01267  Uiso   1.00
C241   C     0.72060   0.15710   0.06170   0.01267  Uiso   1.00
C242   C     0.75210   0.19400   0.12450   0.01267  Uiso   1.00
C243   C     0.70900   0.15800   0.18300   0.01267  Uiso   1.00
C244   C     0.60920   0.16420   0.95420   0.01267  Uiso   1.00
C245   C     0.67440   0.02850   0.78380   0.01267  Uiso   1.00
N246   N     0.66380   0.03510   0.95720   0.01267  Uiso   1.00
N247   N     0.74020   0.17080   0.93590   0.01267  Uiso   1.00
N248   N     0.60190   0.11360   0.92420   0.01267  Uiso   1.00
N249   N     0.67580   0.08000   0.80690   0.01267  Uiso   1.00
O250   O     0.46310   0.00840   0.86760   0.01267  Uiso   1.00
O251   O     0.67730   0.18580   0.80530   0.01267  Uiso   1.00
Zn252  Zn    0.43191   0.33159   0.90215   0.01267  Uiso   1.00
H253   H     0.29750   0.22190   0.90900   0.01267  Uiso   1.00
H254   H     0.43580   0.31580   0.06100   0.01267  Uiso   1.00
H255   H     0.48310   0.29820   0.21000   0.01267  Uiso   1.00
H256   H     0.41370   0.27260   0.21040   0.01267  Uiso   1.00
H257   H     0.45490   0.32760   0.16480   0.01267  Uiso   1.00
H258   H     0.54930   0.35430   0.97260   0.01267  Uiso   1.00
H259   H     0.32450   0.32650   0.81150   0.01267  Uiso   1.00
C260   C     0.31480   0.29270   0.97300   0.01267  Uiso   1.00
C261   C     0.28260   0.23620   0.94400   0.01267  Uiso   1.00
C262   C     0.22170   0.20050   0.97430   0.01267  Uiso   1.00
C263   C     0.43230   0.24210   0.00150   0.01267  Uiso   1.00
C264   C     0.43650   0.27940   0.06170   0.01267  Uiso   1.00
C265   C     0.44190   0.24790   0.12450   0.01267  Uiso   1.00
C266   C     0.44900   0.29100   0.18300   0.01267  Uiso   1.00
C267   C     0.55500   0.39080   0.95420   0.01267  Uiso   1.00
C268   C     0.35410   0.32560   0.78380   0.01267  Uiso   1.00
N269   N     0.37130   0.33620   0.95720   0.01267  Uiso   1.00
N270   N     0.43060   0.25980   0.93590   0.01267  Uiso   1.00
N271   N     0.51170   0.39810   0.92420   0.01267  Uiso   1.00
N272   N     0.40420   0.32420   0.80690   0.01267  Uiso   1.00
O273   O     0.54530   0.53690   0.86760   0.01267  Uiso   1.00
O274   O     0.50850   0.32270   0.80530   0.01267  Uiso   1.00
Zn275  Zn    0.56809   0.89968   0.40215   0.01267  Uiso   1.00
H276   H     0.70250   0.92440   0.40900   0.01267  Uiso   1.00
H277   H     0.56420   0.88000   0.56100   0.01267  Uiso   1.00
H278   H     0.45070   0.80500   0.47260   0.01267  Uiso   1.00
H279   H     0.67550   0.00200   0.31150   0.01267  Uiso   1.00
C280   C     0.68520   0.97790   0.47300   0.01267  Uiso   1.00
C281   C     0.71740   0.95360   0.44400   0.01267  Uiso   1.00
C282   C     0.77830   0.97880   0.47430   0.01267  Uiso   1.00
C283   C     0.81300   0.95000   0.44200   0.01267  Uiso   1.00
C284   C     0.56770   0.80980   0.50150   0.01267  Uiso   1.00
C285   C     0.56350   0.84290   0.56170   0.01267  Uiso   1.00
C286   C     0.55810   0.80600   0.62450   0.01267  Uiso   1.00
C287   C     0.44500   0.83580   0.45420   0.01267  Uiso   1.00
C288   C     0.64590   0.97150   0.28380   0.01267  Uiso   1.00
N289   N     0.62870   0.96490   0.45720   0.01267  Uiso   1.00
N290   N     0.56940   0.82920   0.43590   0.01267  Uiso   1.00
N291   N     0.48830   0.88640   0.42420   0.01267  Uiso   1.00
N292   N     0.59580   0.92000   0.30690   0.01267  Uiso   1.00
O293   O     0.45470   0.99160   0.36760   0.01267  Uiso   1.00
O294   O     0.49150   0.81420   0.30530   0.01267  Uiso   1.00
Zn295  Zn    0.10032   0.66841   0.40215   0.01267  Uiso   1.00
H296   H     0.07560   0.77810   0.40900   0.01267  Uiso   1.00
H297   H     0.12000   0.68420   0.56100   0.01267  Uiso   1.00
H298   H     0.19500   0.64570   0.47260   0.01267  Uiso   1.00
H299   H     0.99800   0.67350   0.31150   0.01267  Uiso   1.00
C300   C     0.02210   0.70730   0.47300   0.01267  Uiso   1.00
C301   C     0.04640   0.76380   0.44400   0.01267  Uiso   1.00
C302   C     0.02120   0.79950   0.47430   0.01267  Uiso   1.00
C303   C     0.05000   0.86300   0.44200   0.01267  Uiso   1.00
C304   C     0.19020   0.75790   0.50150   0.01267  Uiso   1.00
C305   C     0.15710   0.72060   0.56170   0.01267  Uiso   1.00
C306   C     0.19400   0.75210   0.62450   0.01267  Uiso   1.00
C307   C     0.16420   0.60920   0.45420   0.01267  Uiso   1.00
C308   C     0.02850   0.67440   0.28380   0.01267  Uiso   1.00
N309   N     0.03510   0.66380   0.45720   0.01267  Uiso   1.00
N310   N     0.17080   0.74020   0.43590   0.01267  Uiso   1.00
N311   N     0.11360   0.60190   0.42420   0.01267  Uiso   1.00
N312   N     0.08000   0.67580   0.30690   0.01267  Uiso   1.00
O313   O     0.00840   0.46310   0.36760   0.01267  Uiso   1.00
O314   O     0.18580   0.67730   0.30530   0.01267  Uiso   1.00
Zn315  Zn    0.33159   0.43191   0.40215   0.01267  Uiso   1.00
H316   H     0.22190   0.29750   0.40900   0.01267  Uiso   1.00
H317   H     0.31580   0.43580   0.56100   0.01267  Uiso   1.00
H318   H     0.35430   0.54930   0.47260   0.01267  Uiso   1.00
H319   H     0.32650   0.32450   0.31150   0.01267  Uiso   1.00
C320   C     0.29270   0.31480   0.47300   0.01267  Uiso   1.00
C321   C     0.23620   0.28260   0.44400   0.01267  Uiso   1.00
C322   C     0.20050   0.22170   0.47430   0.01267  Uiso   1.00
C323   C     0.13700   0.18700   0.44200   0.01267  Uiso   1.00
C324   C     0.24210   0.43230   0.50150   0.01267  Uiso   1.00
C325   C     0.27940   0.43650   0.56170   0.01267  Uiso   1.00
C326   C     0.24790   0.44190   0.62450   0.01267  Uiso   1.00
C327   C     0.39080   0.55500   0.45420   0.01267  Uiso   1.00
C328   C     0.32560   0.35410   0.28380   0.01267  Uiso   1.00
N329   N     0.33620   0.37130   0.45720   0.01267  Uiso   1.00
N330   N     0.25980   0.43060   0.43590   0.01267  Uiso   1.00
N331   N     0.39810   0.51170   0.42420   0.01267  Uiso   1.00
N332   N     0.32420   0.40420   0.30690   0.01267  Uiso   1.00
O333   O     0.53690   0.54530   0.36760   0.01267  Uiso   1.00
O334   O     0.32270   0.50850   0.30530   0.01267  Uiso   1.00
Zn335  Zn    0.43191   0.10032   0.90215   0.01267  Uiso   1.00
H336   H     0.29750   0.07560   0.90900   0.01267  Uiso   1.00
H337   H     0.43580   0.12000   0.06100   0.01267  Uiso   1.00
H338   H     0.54930   0.19500   0.97260   0.01267  Uiso   1.00
H339   H     0.32450   0.99800   0.81150   0.01267  Uiso   1.00
C340   C     0.31480   0.02210   0.97300   0.01267  Uiso   1.00
C341   C     0.28260   0.04640   0.94400   0.01267  Uiso   1.00
C342   C     0.22170   0.02120   0.97430   0.01267  Uiso   1.00
C343   C     0.18700   0.05000   0.94200   0.01267  Uiso   1.00
C344   C     0.43230   0.19020   0.00150   0.01267  Uiso   1.00
C345   C     0.43650   0.15710   0.06170   0.01267  Uiso   1.00
C346   C     0.44190   0.19400   0.12450   0.01267  Uiso   1.00
C347   C     0.55500   0.16420   0.95420   0.01267  Uiso   1.00
C348   C     0.35410   0.02850   0.78380   0.01267  Uiso   1.00
N349   N     0.37130   0.03510   0.95720   0.01267  Uiso   1.00
N350   N     0.43060   0.17080   0.93590   0.01267  Uiso   1.00
N351   N     0.51170   0.11360   0.92420   0.01267  Uiso   1.00
N352   N     0.40420   0.08000   0.80690   0.01267  Uiso   1.00
O353   O     0.54530   0.00840   0.86760   0.01267  Uiso   1.00
O354   O     0.50850   0.18580   0.80530   0.01267  Uiso   1.00
Zn355  Zn    0.89968   0.33159   0.90215   0.01267  Uiso   1.00
H356   H     0.92440   0.22190   0.90900   0.01267  Uiso   1.00
H357   H     0.88000   0.31580   0.06100   0.01267  Uiso   1.00
H358   H     0.80500   0.35430   0.97260   0.01267  Uiso   1.00
H359   H     0.00200   0.32650   0.81150   0.01267  Uiso   1.00
C360   C     0.97790   0.29270   0.97300   0.01267  Uiso   1.00
C361   C     0.95360   0.23620   0.94400   0.01267  Uiso   1.00
C362   C     0.97880   0.20050   0.97430   0.01267  Uiso   1.00
C363   C     0.95000   0.13700   0.94200   0.01267  Uiso   1.00
C364   C     0.80980   0.24210   0.00150   0.01267  Uiso   1.00
C365   C     0.84290   0.27940   0.06170   0.01267  Uiso   1.00
C366   C     0.80600   0.24790   0.12450   0.01267  Uiso   1.00
C367   C     0.83580   0.39080   0.95420   0.01267  Uiso   1.00
C368   C     0.97150   0.32560   0.78380   0.01267  Uiso   1.00
N369   N     0.96490   0.33620   0.95720   0.01267  Uiso   1.00
N370   N     0.82920   0.25980   0.93590   0.01267  Uiso   1.00
N371   N     0.88640   0.39810   0.92420   0.01267  Uiso   1.00
N372   N     0.92000   0.32420   0.80690   0.01267  Uiso   1.00
O373   O     0.99160   0.53690   0.86760   0.01267  Uiso   1.00
O374   O     0.81420   0.32270   0.80530   0.01267  Uiso   1.00
Zn375  Zn    0.66841   0.56809   0.90215   0.01267  Uiso   1.00
H376   H     0.77810   0.70250   0.90900   0.01267  Uiso   1.00
H377   H     0.68420   0.56420   0.06100   0.01267  Uiso   1.00
H378   H     0.70180   0.51690   0.21000   0.01267  Uiso   1.00
H379   H     0.72740   0.58630   0.21040   0.01267  Uiso   1.00
H380   H     0.67240   0.54510   0.16480   0.01267  Uiso   1.00
H381   H     0.64570   0.45070   0.97260   0.01267  Uiso   1.00
H382   H     0.67350   0.67550   0.81150   0.01267  Uiso   1.00
C383   C     0.70730   0.68520   0.97300   0.01267  Uiso   1.00
C384   C     0.76380   0.71740   0.94400   0.01267  Uiso   1.00
C385   C     0.79950   0.77830   0.97430   0.01267  Uiso   1.00
C386   C     0.86300   0.81300   0.94200   0.01267  Uiso   1.00
C387   C     0.75790   0.56770   0.00150   0.01267  Uiso   1.00
C388   C     0.72060   0.56350   0.06170   0.01267  Uiso   1.00
C389   C     0.75210   0.55810   0.12450   0.01267  Uiso   1.00
C390   C     0.70900   0.55100   0.18300   0.01267  Uiso   1.00
C391   C     0.60920   0.44500   0.95420   0.01267  Uiso   1.00
C392   C     0.67440   0.64590   0.78380   0.01267  Uiso   1.00
N393   N     0.66380   0.62870   0.95720   0.01267  Uiso   1.00
N394   N     0.74020   0.56940   0.93590   0.01267  Uiso   1.00
N395   N     0.60190   0.48830   0.92420   0.01267  Uiso   1.00
N396   N     0.67580   0.59580   0.80690   0.01267  Uiso   1.00
O397   O     0.46310   0.45470   0.86760   0.01267  Uiso   1.00
O398   O     0.67730   0.49150   0.80530   0.01267  Uiso   1.00
Zn399  Zn    0.89968   0.56809   0.59785   0.01267  Uiso   1.00
H400   H     0.92440   0.70250   0.59100   0.01267  Uiso   1.00
H401   H     0.88000   0.56420   0.43900   0.01267  Uiso   1.00
H402   H     0.81510   0.51690   0.29000   0.01267  Uiso   1.00
H403   H     0.85890   0.58630   0.28960   0.01267  Uiso   1.00
H404   H     0.87270   0.54510   0.33520   0.01267  Uiso   1.00
H405   H     0.80500   0.45070   0.52740   0.01267  Uiso   1.00
H406   H     0.00200   0.67550   0.68850   0.01267  Uiso   1.00
C407   C     0.97790   0.68520   0.52700   0.01267  Uiso   1.00
C408   C     0.95360   0.71740   0.55600   0.01267  Uiso   1.00
C409   C     0.97880   0.77830   0.52570   0.01267  Uiso   1.00
C410   C     0.80980   0.56770   0.49850   0.01267  Uiso   1.00
C411   C     0.84290   0.56350   0.43830   0.01267  Uiso   1.00
C412   C     0.80600   0.55810   0.37550   0.01267  Uiso   1.00
C413   C     0.84200   0.55100   0.31700   0.01267  Uiso   1.00
C414   C     0.83580   0.44500   0.54580   0.01267  Uiso   1.00
C415   C     0.97150   0.64590   0.71620   0.01267  Uiso   1.00
N416   N     0.96490   0.62870   0.54280   0.01267  Uiso   1.00
N417   N     0.82920   0.56940   0.56410   0.01267  Uiso   1.00
N418   N     0.88640   0.48830   0.57580   0.01267  Uiso   1.00
N419   N     0.92000   0.59580   0.69310   0.01267  Uiso   1.00
O420   O     0.99160   0.45470   0.63240   0.01267  Uiso   1.00
O421   O     0.81420   0.49150   0.69470   0.01267  Uiso   1.00
Zn422  Zn    0.66841   0.10032   0.59785   0.01267  Uiso   1.00
H423   H     0.77810   0.07560   0.59100   0.01267  Uiso   1.00
H424   H     0.68420   0.12000   0.43900   0.01267  Uiso   1.00
H425   H     0.64570   0.19500   0.52740   0.01267  Uiso   1.00
H426   H     0.67350   0.99800   0.68850   0.01267  Uiso   1.00
C427   C     0.70730   0.02210   0.52700   0.01267  Uiso   1.00
C428   C     0.76380   0.04640   0.55600   0.01267  Uiso   1.00
C429   C     0.79950   0.02120   0.52570   0.01267  Uiso   1.00
C430   C     0.75790   0.19020   0.49850   0.01267  Uiso   1.00
C431   C     0.72060   0.15710   0.43830   0.01267  Uiso   1.00
C432   C     0.75210   0.19400   0.37550   0.01267  Uiso   1.00
C433   C     0.60920   0.16420   0.54580   0.01267  Uiso   1.00
C434   C     0.67440   0.02850   0.71620   0.01267  Uiso   1.00
N435   N     0.66380   0.03510   0.54280   0.01267  Uiso   1.00
N436   N     0.74020   0.17080   0.56410   0.01267  Uiso   1.00
N437   N     0.60190   0.11360   0.57580   0.01267  Uiso   1.00
N438   N     0.67580   0.08000   0.69310   0.01267  Uiso   1.00
O439   O     0.46310   0.00840   0.63240   0.01267  Uiso   1.00
O440   O     0.67730   0.18580   0.69470   0.01267  Uiso   1.00
Zn441  Zn    0.43191   0.33159   0.59785   0.01267  Uiso   1.00
H442   H     0.29750   0.22190   0.59100   0.01267  Uiso   1.00
H443   H     0.43580   0.31580   0.43900   0.01267  Uiso   1.00
H444   H     0.54930   0.35430   0.52740   0.01267  Uiso   1.00
H445   H     0.32450   0.32650   0.68850   0.01267  Uiso   1.00
C446   C     0.31480   0.29270   0.52700   0.01267  Uiso   1.00
C447   C     0.28260   0.23620   0.55600   0.01267  Uiso   1.00
C448   C     0.22170   0.20050   0.52570   0.01267  Uiso   1.00
C449   C     0.43230   0.24210   0.49850   0.01267  Uiso   1.00
C450   C     0.43650   0.27940   0.43830   0.01267  Uiso   1.00
C451   C     0.44190   0.24790   0.37550   0.01267  Uiso   1.00
C452   C     0.55500   0.39080   0.54580   0.01267  Uiso   1.00
C453   C     0.35410   0.32560   0.71620   0.01267  Uiso   1.00
N454   N     0.37130   0.33620   0.54280   0.01267  Uiso   1.00
N455   N     0.43060   0.25980   0.56410   0.01267  Uiso   1.00
N456   N     0.51170   0.39810   0.57580   0.01267  Uiso   1.00
N457   N     0.40420   0.32420   0.69310   0.01267  Uiso   1.00
O458   O     0.54530   0.53690   0.63240   0.01267  Uiso   1.00
O459   O     0.50850   0.32270   0.69470   0.01267  Uiso   1.00
Zn460  Zn    0.10032   0.43191   0.09785   0.01267  Uiso   1.00
H461   H     0.07560   0.29750   0.09100   0.01267  Uiso   1.00
H462   H     0.12000   0.43580   0.93900   0.01267  Uiso   1.00
H463   H     0.19500   0.54930   0.02740   0.01267  Uiso   1.00
H464   H     0.99800   0.32450   0.18850   0.01267  Uiso   1.00
C465   C     0.02210   0.31480   0.02700   0.01267  Uiso   1.00
C466   C     0.04640   0.28260   0.05600   0.01267  Uiso   1.00
C467   C     0.02120   0.22170   0.02570   0.01267  Uiso   1.00
C468   C     0.19020   0.43230   0.99850   0.01267  Uiso   1.00
C469   C     0.15710   0.43650   0.93830   0.01267  Uiso   1.00
C470   C     0.19400   0.44190   0.87550   0.01267  Uiso   1.00
C471   C     0.16420   0.55500   0.04580   0.01267  Uiso   1.00
C472   C     0.02850   0.35410   0.21620   0.01267  Uiso   1.00
N473   N     0.03510   0.37130   0.04280   0.01267  Uiso   1.00
N474   N     0.17080   0.43060   0.06410   0.01267  Uiso   1.00
N475   N     0.11360   0.51170   0.07580   0.01267  Uiso   1.00
N476   N     0.08000   0.40420   0.19310   0.01267  Uiso   1.00
O477   O     0.00840   0.54530   0.13240   0.01267  Uiso   1.00
O478   O     0.18580   0.50850   0.19470   0.01267  Uiso   1.00
Zn479  Zn    0.33159   0.89968   0.09785   0.01267  Uiso   1.00
H480   H     0.22190   0.92440   0.09100   0.01267  Uiso   1.00
H481   H     0.31580   0.88000   0.93900   0.01267  Uiso   1.00
H482   H     0.35430   0.80500   0.02740   0.01267  Uiso   1.00
H483   H     0.32650   0.00200   0.18850   0.01267  Uiso   1.00
C484   C     0.29270   0.97790   0.02700   0.01267  Uiso   1.00
C485   C     0.23620   0.95360   0.05600   0.01267  Uiso   1.00
C486   C     0.20050   0.97880   0.02570   0.01267  Uiso   1.00
C487   C     0.24210   0.80980   0.99850   0.01267  Uiso   1.00
C488   C     0.27940   0.84290   0.93830   0.01267  Uiso   1.00
C489   C     0.24790   0.80600   0.87550   0.01267  Uiso   1.00
C490   C     0.39080   0.83580   0.04580   0.01267  Uiso   1.00
C491   C     0.32560   0.97150   0.21620   0.01267  Uiso   1.00
N492   N     0.33620   0.96490   0.04280   0.01267  Uiso   1.00
N493   N     0.25980   0.82920   0.06410   0.01267  Uiso   1.00
N494   N     0.39810   0.88640   0.07580   0.01267  Uiso   1.00
N495   N     0.32420   0.92000   0.19310   0.01267  Uiso   1.00
O496   O     0.53690   0.99160   0.13240   0.01267  Uiso   1.00
O497   O     0.32270   0.81420   0.19470   0.01267  Uiso   1.00
Zn498  Zn    0.56809   0.66841   0.09785   0.01267  Uiso   1.00
H499   H     0.70250   0.77810   0.09100   0.01267  Uiso   1.00
H500   H     0.56420   0.68420   0.93900   0.01267  Uiso   1.00
H501   H     0.45070   0.64570   0.02740   0.01267  Uiso   1.00
H502   H     0.67550   0.67350   0.18850   0.01267  Uiso   1.00
C503   C     0.68520   0.70730   0.02700   0.01267  Uiso   1.00
C504   C     0.71740   0.76380   0.05600   0.01267  Uiso   1.00
C505   C     0.77830   0.79950   0.02570   0.01267  Uiso   1.00
C506   C     0.56770   0.75790   0.99850   0.01267  Uiso   1.00
C507   C     0.56350   0.72060   0.93830   0.01267  Uiso   1.00
C508   C     0.55810   0.75210   0.87550   0.01267  Uiso   1.00
C509   C     0.44500   0.60920   0.04580   0.01267  Uiso   1.00
C510   C     0.64590   0.67440   0.21620   0.01267  Uiso   1.00
N511   N     0.62870   0.66380   0.04280   0.01267  Uiso   1.00
N512   N     0.56940   0.74020   0.06410   0.01267  Uiso   1.00
N513   N     0.48830   0.60190   0.07580   0.01267  Uiso   1.00
N514   N     0.59580   0.67580   0.19310   0.01267  Uiso   1.00
O515   O     0.45470   0.46310   0.13240   0.01267  Uiso   1.00
O516   O     0.49150   0.67730   0.19470   0.01267  Uiso   1.00
H517   H     0.42100  -0.00000   0.50000   0.01267  Uiso   1.00
C518   C     0.38420  -0.00000   0.50000   0.01267  Uiso   1.00
H519   H    -0.00000   0.42100   0.50000   0.01267  Uiso   1.00
C520   C    -0.00000   0.38420   0.50000   0.01267  Uiso   1.00
H521   H     0.57900   0.57900   0.50000   0.01267  Uiso   1.00
C522   C     0.61580   0.61580   0.50000   0.01267  Uiso   1.00
H523   H     0.57900  -0.00000  -0.00000   0.01267  Uiso   1.00
C524   C     0.61580  -0.00000  -0.00000   0.01267  Uiso   1.00
H525   H     0.00000   0.57900   0.00000   0.01267  Uiso   1.00
C526   C    -0.00000   0.61580   0.00000   0.01267  Uiso   1.00
H527   H     0.42100   0.42100  -0.00000   0.01267  Uiso   1.00
C528   C     0.38420   0.38420  -0.00000   0.01267  Uiso   1.00
H529   H     0.57900  -0.00000   0.50000   0.01267  Uiso   1.00
C530   C     0.61580  -0.00000   0.50000   0.01267  Uiso   1.00
H531   H     0.00000   0.57900   0.50000   0.01267  Uiso   1.00
C532   C    -0.00000   0.61580   0.50000   0.01267  Uiso   1.00
H533   H     0.42100   0.42100   0.50000   0.01267  Uiso   1.00
C534   C     0.38420   0.38420   0.50000   0.01267  Uiso   1.00
H535   H     0.42100  -0.00000  -0.00000   0.01267  Uiso   1.00
C536   C     0.38420  -0.00000  -0.00000   0.01267  Uiso   1.00
H537   H    -0.00000   0.42100  -0.00000   0.01267  Uiso   1.00
C538   C    -0.00000   0.38420  -0.00000   0.01267  Uiso   1.00
H539   H     0.57900   0.57900   0.00000   0.01267  Uiso   1.00
C540   C     0.61580   0.61580   0.00000   0.01267  Uiso   1.00
H541   H     0.43410   0.21705   0.65060   0.01267  Uiso   1.00
C542   C     0.43210   0.21605   0.60260   0.01267  Uiso   1.00
H543   H     0.78295   0.21705   0.65060   0.01267  Uiso   1.00
C544   C     0.78395   0.21605   0.60260   0.01267  Uiso   1.00
H545   H     0.78295   0.56590   0.65060   0.01267  Uiso   1.00
C546   C     0.78395   0.56790   0.60260   0.01267  Uiso   1.00
H547   H     0.56590   0.78295   0.15060   0.01267  Uiso   1.00
C548   C     0.56790   0.78395   0.10260   0.01267  Uiso   1.00
H549   H     0.21705   0.78295   0.15060   0.01267  Uiso   1.00
C550   C     0.21605   0.78395   0.10260   0.01267  Uiso   1.00
H551   H     0.21705   0.43410   0.15060   0.01267  Uiso   1.00
C552   C     0.21605   0.43210   0.10260   0.01267  Uiso   1.00
H553   H     0.21705   0.43410   0.34940   0.01267  Uiso   1.00
C554   C     0.21605   0.43210   0.39740   0.01267  Uiso   1.00
H555   H     0.21705   0.78295   0.34940   0.01267  Uiso   1.00
C556   C     0.21605   0.78395   0.39740   0.01267  Uiso   1.00
H557   H     0.56590   0.78295   0.34940   0.01267  Uiso   1.00
C558   C     0.56790   0.78395   0.39740   0.01267  Uiso   1.00
H559   H     0.78295   0.56590   0.84940   0.01267  Uiso   1.00
C560   C     0.78395   0.56790   0.89740   0.01267  Uiso   1.00
H561   H     0.78295   0.21705   0.84940   0.01267  Uiso   1.00
C562   C     0.78395   0.21605   0.89740   0.01267  Uiso   1.00
H563   H     0.43410   0.21705   0.84940   0.01267  Uiso   1.00
C564   C     0.43210   0.21605   0.89740   0.01267  Uiso   1.00
C565   C     0.54585   0.09170   0.59130   0.01267  Uiso   1.00
N566   N     0.51950   0.03900   0.63000   0.01267  Uiso   1.00
C567   C     0.90830   0.45415   0.59130   0.01267  Uiso   1.00
N568   N     0.96100   0.48050   0.63000   0.01267  Uiso   1.00
C569   C     0.54585   0.45415   0.59130   0.01267  Uiso   1.00
N570   N     0.51950   0.48050   0.63000   0.01267  Uiso   1.00
C571   C     0.45415   0.90830   0.09130   0.01267  Uiso   1.00
N572   N     0.48050   0.96100   0.13000   0.01267  Uiso   1.00
C573   C     0.09170   0.54585   0.09130   0.01267  Uiso   1.00
N574   N     0.03900   0.51950   0.13000   0.01267  Uiso   1.00
C575   C     0.45415   0.54585   0.09130   0.01267  Uiso   1.00
N576   N     0.48050   0.51950   0.13000   0.01267  Uiso   1.00
C577   C     0.09170   0.54585   0.40870   0.01267  Uiso   1.00
N578   N     0.03900   0.51950   0.37000   0.01267  Uiso   1.00
C579   C     0.45415   0.90830   0.40870   0.01267  Uiso   1.00
N580   N     0.48050   0.96100   0.37000   0.01267  Uiso   1.00
C581   C     0.45415   0.54585   0.40870   0.01267  Uiso   1.00
N582   N     0.48050   0.51950   0.37000   0.01267  Uiso   1.00
C583   C     0.90830   0.45415   0.90870   0.01267  Uiso   1.00
N584   N     0.96100   0.48050   0.87000   0.01267  Uiso   1.00
C585   C     0.54585   0.09170   0.90870   0.01267  Uiso   1.00
N586   N     0.51950   0.03900   0.87000   0.01267  Uiso   1.00
C587   C     0.54585   0.45415   0.90870   0.01267  Uiso   1.00
N588   N     0.51950   0.48050   0.87000   0.01267  Uiso   1.00
C589   C     0.42960   0.10620   0.75000   0.01267  Uiso   1.00
N590   N     0.48660   0.16200   0.75000   0.01267  Uiso   1.00
C591   C     0.89380   0.32340   0.75000   0.01267  Uiso   1.00
N592   N     0.83800   0.32460   0.75000   0.01267  Uiso   1.00
C593   C     0.67660   0.57040   0.75000   0.01267  Uiso   1.00
N594   N     0.67540   0.51340   0.75000   0.01267  Uiso   1.00
C595   C     0.57040   0.89380   0.25000   0.01267  Uiso   1.00
N596   N     0.51340   0.83800   0.25000   0.01267  Uiso   1.00
C597   C     0.10620   0.67660   0.25000   0.01267  Uiso   1.00
N598   N     0.16200   0.67540   0.25000   0.01267  Uiso   1.00
C599   C     0.32340   0.42960   0.25000   0.01267  Uiso   1.00
N600   N     0.32460   0.48660   0.25000   0.01267  Uiso   1.00
C601   C     0.10620   0.42960   0.25000   0.01267  Uiso   1.00
N602   N     0.16200   0.48660   0.25000   0.01267  Uiso   1.00
C603   C     0.32340   0.89380   0.25000   0.01267  Uiso   1.00
N604   N     0.32460   0.83800   0.25000   0.01267  Uiso   1.00
C605   C     0.57040   0.67660   0.25000   0.01267  Uiso   1.00
N606   N     0.51340   0.67540   0.25000   0.01267  Uiso   1.00
C607   C     0.89380   0.57040   0.75000   0.01267  Uiso   1.00
N608   N     0.83800   0.51340   0.75000   0.01267  Uiso   1.00
C609   C     0.67660   0.10620   0.75000   0.01267  Uiso   1.00
N610   N     0.67540   0.16200   0.75000   0.01267  Uiso   1.00
C611   C     0.42960   0.32340   0.75000   0.01267  Uiso   1.00
N612   N     0.48660   0.32460   0.75000   0.01267  Uiso   1.00
H613   H     0.78294   0.91446   0.09611   0.00000  Uiso   1.00
H614   H     0.85466   0.98606   0.08472   0.00000  Uiso   1.00
H615   H     0.82680   0.92841   0.01681   0.00000  Uiso   1.00
H616   H     0.82597   0.27214   0.17414   0.00000  Uiso   1.00
H617   H     0.44637   0.17771   0.17654   0.00000  Uiso   1.00
H618   H     0.72786   0.17403   0.32586   0.00000  Uiso   1.00
H619   H     0.44637   0.26866   0.32346   0.00000  Uiso   1.00
H620   H     0.18989   0.15323   0.54464   0.00000  Uiso   1.00
H621   H     0.55383   0.82597   0.67414   0.00000  Uiso   1.00
H622   H     0.17403   0.72786   0.67414   0.00000  Uiso   1.00
H623   H     0.27214   0.82597   0.82586   0.00000  Uiso   1.00
H624   H     0.55383   0.72786   0.82586   0.00000  Uiso   1.00
H625   H     0.73134   0.55363   0.32346   0.00000  Uiso   1.00
H626   H     0.82229   0.55363   0.17654   0.00000  Uiso   1.00
H627   H     0.03666   0.18989   0.45536   0.00000  Uiso   1.00
H628   H     0.15323   0.96334   0.45536   0.00000  Uiso   1.00
H629   H     0.80793   0.84643   0.45313   0.00000  Uiso   1.00
H630   H     0.96150   0.80793   0.95313   0.00000  Uiso   1.00
H631   H     0.84643   0.03850   0.95313   0.00000  Uiso   1.00
H632   H     0.18989   0.15323   0.95536   0.00000  Uiso   1.00
H633   H     0.26866   0.44637   0.67654   0.00000  Uiso   1.00
H634   H     0.96150   0.80793   0.54687   0.00000  Uiso   1.00
H635   H     0.84643   0.03850   0.54687   0.00000  Uiso   1.00
H636   H     0.03666   0.18989   0.04464   0.00000  Uiso   1.00
H637   H     0.17771   0.44637   0.82346   0.00000  Uiso   1.00
H638   H     0.15323   0.96334   0.04464   0.00000  Uiso   1.00
H639   H     0.81011   0.84677   0.04464   0.00000  Uiso   1.00
H640   H     0.10168   0.16971   0.01643   0.00000  Uiso   1.00
H641   H     0.13002   0.21828   0.09268   0.00000  Uiso   1.00
H642   H     0.13283   0.14761   0.08853   0.00000  Uiso   1.00
H643   H     0.01626   0.87930   0.05749   0.00000  Uiso   1.00
H644   H     0.09135   0.89531   0.02782   0.00000  Uiso   1.00
H645   H     0.06348   0.86087   0.11233   0.00000  Uiso   1.00
H646   H     0.14001   0.02851   0.53565   0.00000  Uiso   1.00
H647   H     0.21172   0.10011   0.54704   0.00000  Uiso   1.00
H648   H     0.18387   0.04246   0.61495   0.00000  Uiso   1.00
H649   H     0.13002   0.21828   0.40732   0.00000  Uiso   1.00
H650   H     0.10168   0.16971   0.48357   0.00000  Uiso   1.00
H651   H     0.13283   0.14761   0.41147   0.00000  Uiso   1.00
H652   H     0.21172   0.10011   0.95296   0.00000  Uiso   1.00
H653   H     0.14001   0.02851   0.96435   0.00000  Uiso   1.00
H654   H     0.18387   0.04246   0.88505   0.00000  Uiso   1.00
H655   H     0.90221   0.12231   0.57427   0.00000  Uiso   1.00
H656   H     0.97729   0.13832   0.60394   0.00000  Uiso   1.00
H657   H     0.94942   0.10389   0.51943   0.00000  Uiso   1.00
H658   H     0.97729   0.13832   0.89606   0.00000  Uiso   1.00
H659   H     0.90221   0.12231   0.92573   0.00000  Uiso   1.00
H660   H     0.94942   0.10389   0.98057   0.00000  Uiso   1.00
H661   H     0.09135   0.89531   0.47218   0.00000  Uiso   1.00
H662   H     0.01626   0.87930   0.44251   0.00000  Uiso   1.00
H663   H     0.06348   0.86087   0.38767   0.00000  Uiso   1.00
H664   H     0.85866   0.81265   0.61533   0.00000  Uiso   1.00
H665   H     0.88700   0.86121   0.53909   0.00000  Uiso   1.00
H666   H     0.88981   0.79054   0.54323   0.00000  Uiso   1.00
H667   H     0.85466   0.98606   0.41528   0.00000  Uiso   1.00
H668   H     0.78294   0.91446   0.40389   0.00000  Uiso   1.00
H669   H     0.82680   0.92841   0.48319   0.00000  Uiso   1.00
H670   H     0.88700   0.86121   0.96091   0.00000  Uiso   1.00
H671   H     0.85866   0.81265   0.88467   0.00000  Uiso   1.00
H672   H     0.88981   0.79054   0.95677   0.00000  Uiso   1.00
