data_YOZCAS_clean5b
_audit_creation_date              2014-07-02
_audit_creation_method            'Materials Studio'
_symmetry_space_group_name_H-M    'P1'
_symmetry_Int_Tables_number       1
_symmetry_cell_setting            triclinic
loop_
_symmetry_equiv_pos_as_xyz
  x,y,z
_cell_length_a                    19.6997
_cell_length_b                    25.9929
_cell_length_c                    25.9929
_cell_angle_alpha                 120.0000
_cell_angle_beta                  90.0000
_cell_angle_gamma                 90.0000
loop_
_atom_site_label
_atom_site_type_symbol
_atom_site_fract_x
_atom_site_fract_y
_atom_site_fract_z
_atom_site_U_iso_or_equiv
_atom_site_adp_type
_atom_site_occupancy
Zn1    Zn    0.59713   0.89822   0.33209   0.01267  Uiso   1.00
Zn2    Zn    0.59713   0.43387   0.10178   0.01267  Uiso   1.00
Zn3    Zn    0.59713   0.66791   0.56613   0.01267  Uiso   1.00
Zn4    Zn    0.09713   0.10178   0.66791   0.01267  Uiso   1.00
Zn5    Zn    0.09713   0.56613   0.89822   0.01267  Uiso   1.00
Zn6    Zn    0.09713   0.33209   0.43387   0.01267  Uiso   1.00
Zn7    Zn    0.40287   0.56613   0.66791   0.01267  Uiso   1.00
Zn8    Zn    0.40287   0.33209   0.89822   0.01267  Uiso   1.00
Zn9    Zn    0.40287   0.10178   0.43387   0.01267  Uiso   1.00
Zn10   Zn    0.90287   0.43387   0.33209   0.01267  Uiso   1.00
Zn11   Zn    0.90287   0.66791   0.10178   0.01267  Uiso   1.00
Zn12   Zn    0.90287   0.89822   0.56613   0.01267  Uiso   1.00
Zn13   Zn    0.40287   0.10178   0.66791   0.01267  Uiso   1.00
Zn14   Zn    0.40287   0.56613   0.89822   0.01267  Uiso   1.00
Zn15   Zn    0.40287   0.33209   0.43387   0.01267  Uiso   1.00
Zn16   Zn    0.90287   0.89822   0.33209   0.01267  Uiso   1.00
Zn17   Zn    0.90287   0.43387   0.10178   0.01267  Uiso   1.00
Zn18   Zn    0.90287   0.66791   0.56613   0.01267  Uiso   1.00
Zn19   Zn    0.59713   0.43387   0.33209   0.01267  Uiso   1.00
Zn20   Zn    0.59713   0.66791   0.10178   0.01267  Uiso   1.00
Zn21   Zn    0.59713   0.89822   0.56613   0.01267  Uiso   1.00
Zn22   Zn    0.09713   0.56613   0.66791   0.01267  Uiso   1.00
Zn23   Zn    0.09713   0.33209   0.89822   0.01267  Uiso   1.00
Zn24   Zn    0.09713   0.10178   0.43387   0.01267  Uiso   1.00
H25    H     0.43650   0.88502   0.31414   0.01267  Uiso   1.00
H26    H     0.68597   1.00365   0.32147   0.01267  Uiso   1.00
H27    H     0.59169   0.91464   0.22081   0.01267  Uiso   1.00
H28    H     0.51142   0.79650   0.34737   0.01267  Uiso   1.00
H29    H     0.43650   0.42912   0.11498   0.01267  Uiso   1.00
H30    H     0.68597   0.31782  -0.00365   0.01267  Uiso   1.00
H31    H     0.59169   0.30617   0.08536   0.01267  Uiso   1.00
H32    H     0.51142   0.55087   0.20350   0.01267  Uiso   1.00
H33    H     0.43650   0.68586   0.57088   0.01267  Uiso   1.00
H34    H     0.68597   0.67853   0.68218   0.01267  Uiso   1.00
H35    H     0.59169   0.77919   0.69383   0.01267  Uiso   1.00
H36    H     0.51142   0.65263   0.44913   0.01267  Uiso   1.00
H37    H     0.93650   0.11498   0.68586   0.01267  Uiso   1.00
H38    H     0.18597  -0.00365   0.67853   0.01267  Uiso   1.00
H39    H     0.09169   0.08536   0.77919   0.01267  Uiso   1.00
H40    H     0.01142   0.20350   0.65263   0.01267  Uiso   1.00
H41    H     0.93650   0.57088   0.88502   0.01267  Uiso   1.00
H42    H     0.18597   0.68218   1.00365   0.01267  Uiso   1.00
H43    H     0.09169   0.69383   0.91464   0.01267  Uiso   1.00
H44    H     0.01142   0.44913   0.79650   0.01267  Uiso   1.00
H45    H     0.93650   0.31414   0.42912   0.01267  Uiso   1.00
H46    H     0.18597   0.32147   0.31782   0.01267  Uiso   1.00
H47    H     0.09169   0.22081   0.30617   0.01267  Uiso   1.00
H48    H     0.01142   0.34737   0.55087   0.01267  Uiso   1.00
H49    H     0.56350   0.57088   0.68586   0.01267  Uiso   1.00
H50    H     0.31403   0.68218   0.67853   0.01267  Uiso   1.00
H51    H     0.40831   0.69383   0.77919   0.01267  Uiso   1.00
H52    H     0.48858   0.44913   0.65263   0.01267  Uiso   1.00
H53    H     0.56350   0.31414   0.88502   0.01267  Uiso   1.00
H54    H     0.31403   0.32147   1.00365   0.01267  Uiso   1.00
H55    H     0.40831   0.22081   0.91464   0.01267  Uiso   1.00
H56    H     0.48858   0.34737   0.79650   0.01267  Uiso   1.00
H57    H     0.56350   0.11498   0.42912   0.01267  Uiso   1.00
H58    H     0.31403  -0.00365   0.31782   0.01267  Uiso   1.00
H59    H     0.40831   0.08536   0.30617   0.01267  Uiso   1.00
H60    H     0.48858   0.20350   0.55087   0.01267  Uiso   1.00
H61    H     0.06350   0.42912   0.31414   0.01267  Uiso   1.00
H62    H     0.81403   0.31782   0.32147   0.01267  Uiso   1.00
H63    H     0.90831   0.30617   0.22081   0.01267  Uiso   1.00
H64    H     0.98858   0.55087   0.34737   0.01267  Uiso   1.00
H65    H     0.06350   0.68586   0.11498   0.01267  Uiso   1.00
H66    H     0.81403   0.67853  -0.00365   0.01267  Uiso   1.00
H67    H     0.90831   0.77919   0.08536   0.01267  Uiso   1.00
H68    H     0.98858   0.65263   0.20350   0.01267  Uiso   1.00
H69    H     0.06350   0.88502   0.57088   0.01267  Uiso   1.00
H70    H     0.81403   1.00365   0.68218   0.01267  Uiso   1.00
H71    H     0.90831   0.91464   0.69383   0.01267  Uiso   1.00
H72    H     0.98858   0.79650   0.44913   0.01267  Uiso   1.00
H73    H     0.56350   0.11498   0.68586   0.01267  Uiso   1.00
H74    H     0.31403  -0.00365   0.67853   0.01267  Uiso   1.00
H75    H     0.40831   0.08536   0.77919   0.01267  Uiso   1.00
H76    H     0.48858   0.20350   0.65263   0.01267  Uiso   1.00
H77    H     0.56350   0.57088   0.88502   0.01267  Uiso   1.00
H78    H     0.31403   0.68218   1.00365   0.01267  Uiso   1.00
H79    H     0.40831   0.69383   0.91464   0.01267  Uiso   1.00
H80    H     0.48858   0.44913   0.79650   0.01267  Uiso   1.00
H81    H     0.56350   0.31414   0.42912   0.01267  Uiso   1.00
H82    H     0.31403   0.32147   0.31782   0.01267  Uiso   1.00
H83    H     0.40831   0.22081   0.30617   0.01267  Uiso   1.00
H84    H     0.48858   0.34737   0.55087   0.01267  Uiso   1.00
H85    H     0.06350   0.88502   0.31414   0.01267  Uiso   1.00
H86    H     0.81403   1.00365   0.32147   0.01267  Uiso   1.00
H87    H     0.90831   0.91464   0.22081   0.01267  Uiso   1.00
H88    H     0.98858   0.79650   0.34737   0.01267  Uiso   1.00
H89    H     0.06350   0.42912   0.11498   0.01267  Uiso   1.00
H90    H     0.81403   0.31782  -0.00365   0.01267  Uiso   1.00
H91    H     0.90831   0.30617   0.08536   0.01267  Uiso   1.00
H92    H     0.98858   0.55087   0.20350   0.01267  Uiso   1.00
H93    H     0.06350   0.68586   0.57088   0.01267  Uiso   1.00
H94    H     0.81403   0.67853   0.68218   0.01267  Uiso   1.00
H95    H     0.90831   0.77919   0.69383   0.01267  Uiso   1.00
H96    H     0.98858   0.65263   0.44913   0.01267  Uiso   1.00
H97    H     0.43650   0.42912   0.31414   0.01267  Uiso   1.00
H98    H     0.68597   0.31782   0.32147   0.01267  Uiso   1.00
H99    H     0.59169   0.30617   0.22081   0.01267  Uiso   1.00
H100   H     0.51142   0.55087   0.34737   0.01267  Uiso   1.00
H101   H     0.43650   0.68586   0.11498   0.01267  Uiso   1.00
H102   H     0.68597   0.67853  -0.00365   0.01267  Uiso   1.00
H103   H     0.59169   0.77919   0.08536   0.01267  Uiso   1.00
H104   H     0.51142   0.65263   0.20350   0.01267  Uiso   1.00
H105   H     0.43650   0.88502   0.57088   0.01267  Uiso   1.00
H106   H     0.68597   1.00365   0.68218   0.01267  Uiso   1.00
H107   H     0.59169   0.91464   0.69383   0.01267  Uiso   1.00
H108   H     0.51142   0.79650   0.44913   0.01267  Uiso   1.00
H109   H     0.93650   0.57088   0.68586   0.01267  Uiso   1.00
H110   H     0.18597   0.68218   0.67853   0.01267  Uiso   1.00
H111   H     0.09169   0.69383   0.77919   0.01267  Uiso   1.00
H112   H     0.01142   0.44913   0.65263   0.01267  Uiso   1.00
H113   H     0.93650   0.31414   0.88502   0.01267  Uiso   1.00
H114   H     0.18597   0.32147   1.00365   0.01267  Uiso   1.00
H115   H     0.09169   0.22081   0.91464   0.01267  Uiso   1.00
H116   H     0.01142   0.34737   0.79650   0.01267  Uiso   1.00
H117   H     0.93650   0.11498   0.42912   0.01267  Uiso   1.00
H118   H     0.18597  -0.00365   0.31782   0.01267  Uiso   1.00
H119   H     0.09169   0.08536   0.30617   0.01267  Uiso   1.00
H120   H     0.01142   0.20350   0.55087   0.01267  Uiso   1.00
H121   H     0.65633   0.78282   0.21867   0.01267  Uiso   1.00
H122   H     0.65633   0.43585   0.21718   0.01267  Uiso   1.00
H123   H     0.65633   0.78133   0.56415   0.01267  Uiso   1.00
H124   H     0.15633   0.21718   0.78133   0.01267  Uiso   1.00
H125   H     0.15633   0.56415   0.78282   0.01267  Uiso   1.00
H126   H     0.15633   0.21867   0.43585   0.01267  Uiso   1.00
H127   H     0.34367   0.56415   0.78133   0.01267  Uiso   1.00
H128   H     0.34367   0.21867   0.78282   0.01267  Uiso   1.00
H129   H     0.34367   0.21718   0.43585   0.01267  Uiso   1.00
H130   H     0.84367   0.43585   0.21867   0.01267  Uiso   1.00
H131   H     0.84367   0.78133   0.21718   0.01267  Uiso   1.00
H132   H     0.84367   0.78282   0.56415   0.01267  Uiso   1.00
H133   H     0.50169  -0.00146   0.42769   0.01267  Uiso   1.00
H134   H     0.50169   0.42915   0.00146   0.01267  Uiso   1.00
H135   H     0.50169   0.57231   0.57085   0.01267  Uiso   1.00
H136   H     0.00169   0.00146   0.57231   0.01267  Uiso   1.00
H137   H     0.00169   0.57085  -0.00146   0.01267  Uiso   1.00
H138   H     0.00169   0.42769   0.42915   0.01267  Uiso   1.00
H139   H     0.49831   0.00146   0.57231   0.01267  Uiso   1.00
H140   H     0.49831   0.57085  -0.00146   0.01267  Uiso   1.00
H141   H     0.49831   0.42769   0.42915   0.01267  Uiso   1.00
H142   H    -0.00169  -0.00146   0.42769   0.01267  Uiso   1.00
H143   H    -0.00169   0.42915   0.00146   0.01267  Uiso   1.00
H144   H    -0.00169   0.57231   0.57085   0.01267  Uiso   1.00
C145   C     0.49800   0.81200   0.23990   0.01267  Uiso   1.00
C146   C     0.43480   0.84310   0.26860   0.01267  Uiso   1.00
C147   C     0.37870   0.81570   0.23450   0.01267  Uiso   1.00
C148   C     0.71490   0.96630   0.32270   0.01267  Uiso   1.00
C149   C     0.52610   0.97840   0.29480   0.01267  Uiso   1.00
C150   C     0.55480   0.95350   0.23720   0.01267  Uiso   1.00
C151   C     0.53060   0.98370   0.20840   0.01267  Uiso   1.00
C152   C     0.53760   0.83390   0.38800   0.01267  Uiso   1.00
C153   C     0.49800   0.42790   0.18800   0.01267  Uiso   1.00
C154   C     0.43480   0.42550   0.15690   0.01267  Uiso   1.00
C155   C     0.37870   0.41880   0.18430   0.01267  Uiso   1.00
C156   C     0.71490   0.35640   0.03370   0.01267  Uiso   1.00
C157   C     0.52610   0.31640   0.02160   0.01267  Uiso   1.00
C158   C     0.55480   0.28370   0.04650   0.01267  Uiso   1.00
C159   C     0.53060   0.22470   0.01630   0.01267  Uiso   1.00
C160   C     0.53760   0.55410   0.16610   0.01267  Uiso   1.00
C161   C     0.49800   0.76010   0.57210   0.01267  Uiso   1.00
C162   C     0.43480   0.73140   0.57450   0.01267  Uiso   1.00
C163   C     0.37870   0.76550   0.58120   0.01267  Uiso   1.00
C164   C     0.71490   0.67730   0.64360   0.01267  Uiso   1.00
C165   C     0.52610   0.70520   0.68360   0.01267  Uiso   1.00
C166   C     0.55480   0.76280   0.71630   0.01267  Uiso   1.00
C167   C     0.53060   0.79160   0.77530   0.01267  Uiso   1.00
C168   C     0.53760   0.61200   0.44590   0.01267  Uiso   1.00
C169   C     0.99800   0.18800   0.76010   0.01267  Uiso   1.00
C170   C     0.93480   0.15690   0.73140   0.01267  Uiso   1.00
C171   C     0.87870   0.18430   0.76550   0.01267  Uiso   1.00
C172   C     0.21490   0.03370   0.67730   0.01267  Uiso   1.00
C173   C     0.02610   0.02160   0.70520   0.01267  Uiso   1.00
C174   C     0.05480   0.04650   0.76280   0.01267  Uiso   1.00
C175   C     0.03060   0.01630   0.79160   0.01267  Uiso   1.00
C176   C     0.03760   0.16610   0.61200   0.01267  Uiso   1.00
C177   C     0.99800   0.57210   0.81200   0.01267  Uiso   1.00
C178   C     0.93480   0.57450   0.84310   0.01267  Uiso   1.00
C179   C     0.87870   0.58120   0.81570   0.01267  Uiso   1.00
C180   C     0.21490   0.64360   0.96630   0.01267  Uiso   1.00
C181   C     0.02610   0.68360   0.97840   0.01267  Uiso   1.00
C182   C     0.05480   0.71630   0.95350   0.01267  Uiso   1.00
C183   C     0.03060   0.77530   0.98370   0.01267  Uiso   1.00
C184   C     0.03760   0.44590   0.83390   0.01267  Uiso   1.00
C185   C     0.99800   0.23990   0.42790   0.01267  Uiso   1.00
C186   C     0.93480   0.26860   0.42550   0.01267  Uiso   1.00
C187   C     0.87870   0.23450   0.41880   0.01267  Uiso   1.00
C188   C     0.21490   0.32270   0.35640   0.01267  Uiso   1.00
C189   C     0.02610   0.29480   0.31640   0.01267  Uiso   1.00
C190   C     0.05480   0.23720   0.28370   0.01267  Uiso   1.00
C191   C     0.03060   0.20840   0.22470   0.01267  Uiso   1.00
C192   C     0.03760   0.38800   0.55410   0.01267  Uiso   1.00
C193   C     0.50200   0.57210   0.76010   0.01267  Uiso   1.00
C194   C     0.56520   0.57450   0.73140   0.01267  Uiso   1.00
C195   C     0.62130   0.58120   0.76550   0.01267  Uiso   1.00
C196   C     0.28510   0.64360   0.67730   0.01267  Uiso   1.00
C197   C     0.47390   0.68360   0.70520   0.01267  Uiso   1.00
C198   C     0.44520   0.71630   0.76280   0.01267  Uiso   1.00
C199   C     0.46940   0.77530   0.79160   0.01267  Uiso   1.00
C200   C     0.46240   0.44590   0.61200   0.01267  Uiso   1.00
C201   C     0.50200   0.23990   0.81200   0.01267  Uiso   1.00
C202   C     0.56520   0.26860   0.84310   0.01267  Uiso   1.00
C203   C     0.62130   0.23450   0.81570   0.01267  Uiso   1.00
C204   C     0.28510   0.32270   0.96630   0.01267  Uiso   1.00
C205   C     0.47390   0.29480   0.97840   0.01267  Uiso   1.00
C206   C     0.44520   0.23720   0.95350   0.01267  Uiso   1.00
C207   C     0.46940   0.20840   0.98370   0.01267  Uiso   1.00
C208   C     0.46240   0.38800   0.83390   0.01267  Uiso   1.00
C209   C     0.50200   0.18800   0.42790   0.01267  Uiso   1.00
C210   C     0.56520   0.15690   0.42550   0.01267  Uiso   1.00
C211   C     0.62130   0.18430   0.41880   0.01267  Uiso   1.00
C212   C     0.28510   0.03370   0.35640   0.01267  Uiso   1.00
C213   C     0.47390   0.02160   0.31640   0.01267  Uiso   1.00
C214   C     0.44520   0.04650   0.28370   0.01267  Uiso   1.00
C215   C     0.46940   0.01630   0.22470   0.01267  Uiso   1.00
C216   C     0.46240   0.16610   0.55410   0.01267  Uiso   1.00
C217   C     0.00200   0.42790   0.23990   0.01267  Uiso   1.00
C218   C     0.06520   0.42550   0.26860   0.01267  Uiso   1.00
C219   C     0.12130   0.41880   0.23450   0.01267  Uiso   1.00
C220   C     0.78510   0.35640   0.32270   0.01267  Uiso   1.00
C221   C     0.97390   0.31640   0.29480   0.01267  Uiso   1.00
C222   C     0.94520   0.28370   0.23720   0.01267  Uiso   1.00
C223   C     0.96940   0.22470   0.20840   0.01267  Uiso   1.00
C224   C     0.96240   0.55410   0.38800   0.01267  Uiso   1.00
C225   C     0.00200   0.76010   0.18800   0.01267  Uiso   1.00
C226   C     0.06520   0.73140   0.15690   0.01267  Uiso   1.00
C227   C     0.12130   0.76550   0.18430   0.01267  Uiso   1.00
C228   C     0.78510   0.67730   0.03370   0.01267  Uiso   1.00
C229   C     0.97390   0.70520   0.02160   0.01267  Uiso   1.00
C230   C     0.94520   0.76280   0.04650   0.01267  Uiso   1.00
C231   C     0.96940   0.79160   0.01630   0.01267  Uiso   1.00
C232   C     0.96240   0.61200   0.16610   0.01267  Uiso   1.00
C233   C     0.00200   0.81200   0.57210   0.01267  Uiso   1.00
C234   C     0.06520   0.84310   0.57450   0.01267  Uiso   1.00
C235   C     0.12130   0.81570   0.58120   0.01267  Uiso   1.00
C236   C     0.78510   0.96630   0.64360   0.01267  Uiso   1.00
C237   C     0.97390   0.97840   0.68360   0.01267  Uiso   1.00
C238   C     0.94520   0.95350   0.71630   0.01267  Uiso   1.00
C239   C     0.96940   0.98370   0.77530   0.01267  Uiso   1.00
C240   C     0.96240   0.83390   0.44590   0.01267  Uiso   1.00
C241   C     0.50200   0.18800   0.76010   0.01267  Uiso   1.00
C242   C     0.56520   0.15690   0.73140   0.01267  Uiso   1.00
C243   C     0.62130   0.18430   0.76550   0.01267  Uiso   1.00
C244   C     0.28510   0.03370   0.67730   0.01267  Uiso   1.00
C245   C     0.47390   0.02160   0.70520   0.01267  Uiso   1.00
C246   C     0.44520   0.04650   0.76280   0.01267  Uiso   1.00
C247   C     0.46940   0.01630   0.79160   0.01267  Uiso   1.00
C248   C     0.46240   0.16610   0.61200   0.01267  Uiso   1.00
C249   C     0.50200   0.57210   0.81200   0.01267  Uiso   1.00
C250   C     0.56520   0.57450   0.84310   0.01267  Uiso   1.00
C251   C     0.62130   0.58120   0.81570   0.01267  Uiso   1.00
C252   C     0.28510   0.64360   0.96630   0.01267  Uiso   1.00
C253   C     0.47390   0.68360   0.97840   0.01267  Uiso   1.00
C254   C     0.44520   0.71630   0.95350   0.01267  Uiso   1.00
C255   C     0.46940   0.77530   0.98370   0.01267  Uiso   1.00
C256   C     0.46240   0.44590   0.83390   0.01267  Uiso   1.00
C257   C     0.50200   0.23990   0.42790   0.01267  Uiso   1.00
C258   C     0.56520   0.26860   0.42550   0.01267  Uiso   1.00
C259   C     0.62130   0.23450   0.41880   0.01267  Uiso   1.00
C260   C     0.28510   0.32270   0.35640   0.01267  Uiso   1.00
C261   C     0.47390   0.29480   0.31640   0.01267  Uiso   1.00
C262   C     0.44520   0.23720   0.28370   0.01267  Uiso   1.00
C263   C     0.46940   0.20840   0.22470   0.01267  Uiso   1.00
C264   C     0.46240   0.38800   0.55410   0.01267  Uiso   1.00
C265   C     0.00200   0.81200   0.23990   0.01267  Uiso   1.00
C266   C     0.06520   0.84310   0.26860   0.01267  Uiso   1.00
C267   C     0.12130   0.81570   0.23450   0.01267  Uiso   1.00
C268   C     0.78510   0.96630   0.32270   0.01267  Uiso   1.00
C269   C     0.97390   0.97840   0.29480   0.01267  Uiso   1.00
C270   C     0.94520   0.95350   0.23720   0.01267  Uiso   1.00
C271   C     0.96940   0.98370   0.20840   0.01267  Uiso   1.00
C272   C     0.96240   0.83390   0.38800   0.01267  Uiso   1.00
C273   C     0.00200   0.42790   0.18800   0.01267  Uiso   1.00
C274   C     0.06520   0.42550   0.15690   0.01267  Uiso   1.00
C275   C     0.12130   0.41880   0.18430   0.01267  Uiso   1.00
C276   C     0.78510   0.35640   0.03370   0.01267  Uiso   1.00
C277   C     0.97390   0.31640   0.02160   0.01267  Uiso   1.00
C278   C     0.94520   0.28370   0.04650   0.01267  Uiso   1.00
C279   C     0.96940   0.22470   0.01630   0.01267  Uiso   1.00
C280   C     0.96240   0.55410   0.16610   0.01267  Uiso   1.00
C281   C     0.00200   0.76010   0.57210   0.01267  Uiso   1.00
C282   C     0.06520   0.73140   0.57450   0.01267  Uiso   1.00
C283   C     0.12130   0.76550   0.58120   0.01267  Uiso   1.00
C284   C     0.78510   0.67730   0.64360   0.01267  Uiso   1.00
C285   C     0.97390   0.70520   0.68360   0.01267  Uiso   1.00
C286   C     0.94520   0.76280   0.71630   0.01267  Uiso   1.00
C287   C     0.96940   0.79160   0.77530   0.01267  Uiso   1.00
C288   C     0.96240   0.61200   0.44590   0.01267  Uiso   1.00
C289   C     0.49800   0.42790   0.23990   0.01267  Uiso   1.00
C290   C     0.43480   0.42550   0.26860   0.01267  Uiso   1.00
C291   C     0.37870   0.41880   0.23450   0.01267  Uiso   1.00
C292   C     0.71490   0.35640   0.32270   0.01267  Uiso   1.00
C293   C     0.52610   0.31640   0.29480   0.01267  Uiso   1.00
C294   C     0.55480   0.28370   0.23720   0.01267  Uiso   1.00
C295   C     0.53060   0.22470   0.20840   0.01267  Uiso   1.00
C296   C     0.53760   0.55410   0.38800   0.01267  Uiso   1.00
C297   C     0.49800   0.76010   0.18800   0.01267  Uiso   1.00
C298   C     0.43480   0.73140   0.15690   0.01267  Uiso   1.00
C299   C     0.37870   0.76550   0.18430   0.01267  Uiso   1.00
C300   C     0.71490   0.67730   0.03370   0.01267  Uiso   1.00
C301   C     0.52610   0.70520   0.02160   0.01267  Uiso   1.00
C302   C     0.55480   0.76280   0.04650   0.01267  Uiso   1.00
C303   C     0.53060   0.79160   0.01630   0.01267  Uiso   1.00
C304   C     0.53760   0.61200   0.16610   0.01267  Uiso   1.00
C305   C     0.49800   0.81200   0.57210   0.01267  Uiso   1.00
C306   C     0.43480   0.84310   0.57450   0.01267  Uiso   1.00
C307   C     0.37870   0.81570   0.58120   0.01267  Uiso   1.00
C308   C     0.71490   0.96630   0.64360   0.01267  Uiso   1.00
C309   C     0.52610   0.97840   0.68360   0.01267  Uiso   1.00
C310   C     0.55480   0.95350   0.71630   0.01267  Uiso   1.00
C311   C     0.53060   0.98370   0.77530   0.01267  Uiso   1.00
C312   C     0.53760   0.83390   0.44590   0.01267  Uiso   1.00
C313   C     0.99800   0.57210   0.76010   0.01267  Uiso   1.00
C314   C     0.93480   0.57450   0.73140   0.01267  Uiso   1.00
C315   C     0.87870   0.58120   0.76550   0.01267  Uiso   1.00
C316   C     0.21490   0.64360   0.67730   0.01267  Uiso   1.00
C317   C     0.02610   0.68360   0.70520   0.01267  Uiso   1.00
C318   C     0.05480   0.71630   0.76280   0.01267  Uiso   1.00
C319   C     0.03060   0.77530   0.79160   0.01267  Uiso   1.00
C320   C     0.03760   0.44590   0.61200   0.01267  Uiso   1.00
C321   C     0.99800   0.23990   0.81200   0.01267  Uiso   1.00
C322   C     0.93480   0.26860   0.84310   0.01267  Uiso   1.00
C323   C     0.87870   0.23450   0.81570   0.01267  Uiso   1.00
C324   C     0.21490   0.32270   0.96630   0.01267  Uiso   1.00
C325   C     0.02610   0.29480   0.97840   0.01267  Uiso   1.00
C326   C     0.05480   0.23720   0.95350   0.01267  Uiso   1.00
C327   C     0.03060   0.20840   0.98370   0.01267  Uiso   1.00
C328   C     0.03760   0.38800   0.83390   0.01267  Uiso   1.00
C329   C     0.99800   0.18800   0.42790   0.01267  Uiso   1.00
C330   C     0.93480   0.15690   0.42550   0.01267  Uiso   1.00
C331   C     0.87870   0.18430   0.41880   0.01267  Uiso   1.00
C332   C     0.21490   0.03370   0.35640   0.01267  Uiso   1.00
C333   C     0.02610   0.02160   0.31640   0.01267  Uiso   1.00
C334   C     0.05480   0.04650   0.28370   0.01267  Uiso   1.00
C335   C     0.03060   0.01630   0.22470   0.01267  Uiso   1.00
C336   C     0.03760   0.16610   0.55410   0.01267  Uiso   1.00
C337   C     0.59860   0.78375   0.21625   0.01267  Uiso   1.00
C338   C     0.59860   0.43250   0.21625   0.01267  Uiso   1.00
C339   C     0.59860   0.78375   0.56750   0.01267  Uiso   1.00
C340   C     0.09860   0.21625   0.78375   0.01267  Uiso   1.00
C341   C     0.09860   0.56750   0.78375   0.01267  Uiso   1.00
C342   C     0.09860   0.21625   0.43250   0.01267  Uiso   1.00
C343   C     0.40140   0.56750   0.78375   0.01267  Uiso   1.00
C344   C     0.40140   0.21625   0.78375   0.01267  Uiso   1.00
C345   C     0.40140   0.21625   0.43250   0.01267  Uiso   1.00
C346   C     0.90140   0.43250   0.21625   0.01267  Uiso   1.00
C347   C     0.90140   0.78375   0.21625   0.01267  Uiso   1.00
C348   C     0.90140   0.78375   0.56750   0.01267  Uiso   1.00
C349   C     0.75000   0.89080   0.32260   0.01267  Uiso   1.00
C350   C     0.75000   0.43180   0.10920   0.01267  Uiso   1.00
C351   C     0.75000   0.67740   0.56820   0.01267  Uiso   1.00
C352   C     0.25000   0.10920   0.67740   0.01267  Uiso   1.00
C353   C     0.25000   0.56820   0.89080   0.01267  Uiso   1.00
C354   C     0.25000   0.32260   0.43180   0.01267  Uiso   1.00
C355   C     0.25000   0.56820   0.67740   0.01267  Uiso   1.00
C356   C     0.25000   0.32260   0.89080   0.01267  Uiso   1.00
C357   C     0.25000   0.10920   0.43180   0.01267  Uiso   1.00
C358   C     0.75000   0.43180   0.32260   0.01267  Uiso   1.00
C359   C     0.75000   0.67740   0.10920   0.01267  Uiso   1.00
C360   C     0.75000   0.89080   0.56820   0.01267  Uiso   1.00
C361   C     0.50000  -0.00000   0.38460   0.01267  Uiso   1.00
C362   C     0.50000   0.38460  -0.00000   0.01267  Uiso   1.00
C363   C     0.50000   0.61540   0.61540   0.01267  Uiso   1.00
C364   C     0.00000   0.00000   0.61540   0.01267  Uiso   1.00
C365   C     0.00000   0.61540  -0.00000   0.01267  Uiso   1.00
C366   C     0.00000   0.38460   0.38460   0.01267  Uiso   1.00
C367   C     0.50000  -0.00000   0.61540   0.01267  Uiso   1.00
C368   C     0.50000   0.61540   0.00000   0.01267  Uiso   1.00
C369   C     0.50000   0.38460   0.38460   0.01267  Uiso   1.00
C370   C     0.00000   0.00000   0.38460   0.01267  Uiso   1.00
C371   C     0.00000   0.38460  -0.00000   0.01267  Uiso   1.00
C372   C     0.00000   0.61540   0.61540   0.01267  Uiso   1.00
C373   C     0.59270   0.90900   0.45450   0.01267  Uiso   1.00
C374   C     0.59270   0.54550   0.09100   0.01267  Uiso   1.00
C375   C     0.59270   0.54550   0.45450   0.01267  Uiso   1.00
C376   C     0.09270   0.09100   0.54550   0.01267  Uiso   1.00
C377   C     0.09270   0.45450   0.90900   0.01267  Uiso   1.00
C378   C     0.09270   0.45450   0.54550   0.01267  Uiso   1.00
C379   C     0.40730   0.45450   0.54550   0.01267  Uiso   1.00
C380   C     0.40730   0.45450   0.90900   0.01267  Uiso   1.00
C381   C     0.40730   0.09100   0.54550   0.01267  Uiso   1.00
C382   C     0.90730   0.54550   0.45450   0.01267  Uiso   1.00
C383   C     0.90730   0.54550   0.09100   0.01267  Uiso   1.00
C384   C     0.90730   0.90900   0.45450   0.01267  Uiso   1.00
Br385  Br    0.29890   0.71640   0.58400   0.01267  Uiso   1.00
Br386  Br    0.55410   0.86870   0.83160   0.01267  Uiso   1.00
Br387  Br    0.79890   0.13240   0.71640   0.01267  Uiso   1.00
Br388  Br    0.05410   0.03710   0.86870   0.01267  Uiso   1.00
Br389  Br    0.79890   0.58400   0.86760   0.01267  Uiso   1.00
Br390  Br    0.05410   0.83160   0.96290   0.01267  Uiso   1.00
Br391  Br    0.05410   0.13130   0.16840   0.01267  Uiso   1.00
Br392  Br    0.70110   0.58400   0.71640   0.01267  Uiso   1.00
Br393  Br    0.70110   0.28360   0.86760   0.01267  Uiso   1.00
Br394  Br    0.94590   0.16840   0.13130   0.01267  Uiso   1.00
Br395  Br    0.94590   0.86870   0.03710   0.01267  Uiso   1.00
Br396  Br    0.20110   0.86760   0.58400   0.01267  Uiso   1.00
Br397  Br    0.44590   0.03710   0.86870   0.01267  Uiso   1.00
Br398  Br    0.44590   0.83160   0.96290   0.01267  Uiso   1.00
Br399  Br    0.70110   0.28360   0.41600   0.01267  Uiso   1.00
Br400  Br    0.44590   0.13130   0.16840   0.01267  Uiso   1.00
Br401  Br    0.20110   0.86760   0.28360   0.01267  Uiso   1.00
Br402  Br    0.20110   0.41600   0.13240   0.01267  Uiso   1.00
Br403  Br    0.94590   0.86870   0.83160   0.01267  Uiso   1.00
Br404  Br    0.29890   0.41600   0.28360   0.01267  Uiso   1.00
Br405  Br    0.55410   0.16840   0.13130   0.01267  Uiso   1.00
Br406  Br    0.29890   0.71640   0.13240   0.01267  Uiso   1.00
Br407  Br    0.55410   0.86870   0.03710   0.01267  Uiso   1.00
Br408  Br    0.79890   0.13240   0.41600   0.01267  Uiso   1.00
N409   N     0.56410   0.82840   0.25890   0.01267  Uiso   1.00
N410   N     0.69170   0.91780   0.32430   0.01267  Uiso   1.00
N411   N     0.54210   0.96350   0.33790   0.01267  Uiso   1.00
N412   N     0.57380   0.88560   0.39940   0.01267  Uiso   1.00
N413   N     0.56410   0.43050   0.17160   0.01267  Uiso   1.00
N414   N     0.69170   0.40650   0.08220   0.01267  Uiso   1.00
N415   N     0.54210   0.37440   0.03650   0.01267  Uiso   1.00
N416   N     0.57380   0.51380   0.11440   0.01267  Uiso   1.00
N417   N     0.56410   0.74110   0.56950   0.01267  Uiso   1.00
N418   N     0.69170   0.67570   0.59350   0.01267  Uiso   1.00
N419   N     0.54210   0.66210   0.62560   0.01267  Uiso   1.00
N420   N     0.57380   0.60060   0.48620   0.01267  Uiso   1.00
N421   N     0.06410   0.17160   0.74110   0.01267  Uiso   1.00
N422   N     0.19170   0.08220   0.67570   0.01267  Uiso   1.00
N423   N     0.04210   0.03650   0.66210   0.01267  Uiso   1.00
N424   N     0.07380   0.11440   0.60060   0.01267  Uiso   1.00
N425   N     0.06410   0.56950   0.82840   0.01267  Uiso   1.00
N426   N     0.19170   0.59350   0.91780   0.01267  Uiso   1.00
N427   N     0.04210   0.62560   0.96350   0.01267  Uiso   1.00
N428   N     0.07380   0.48620   0.88560   0.01267  Uiso   1.00
N429   N     0.06410   0.25890   0.43050   0.01267  Uiso   1.00
N430   N     0.19170   0.32430   0.40650   0.01267  Uiso   1.00
N431   N     0.04210   0.33790   0.37440   0.01267  Uiso   1.00
N432   N     0.07380   0.39940   0.51380   0.01267  Uiso   1.00
N433   N     0.43590   0.56950   0.74110   0.01267  Uiso   1.00
N434   N     0.30830   0.59350   0.67570   0.01267  Uiso   1.00
N435   N     0.45790   0.62560   0.66210   0.01267  Uiso   1.00
N436   N     0.42620   0.48620   0.60060   0.01267  Uiso   1.00
N437   N     0.43590   0.25890   0.82840   0.01267  Uiso   1.00
N438   N     0.30830   0.32430   0.91780   0.01267  Uiso   1.00
N439   N     0.45790   0.33790   0.96350   0.01267  Uiso   1.00
N440   N     0.42620   0.39940   0.88560   0.01267  Uiso   1.00
N441   N     0.43590   0.17160   0.43050   0.01267  Uiso   1.00
N442   N     0.30830   0.08220   0.40650   0.01267  Uiso   1.00
N443   N     0.45790   0.03650   0.37440   0.01267  Uiso   1.00
N444   N     0.42620   0.11440   0.51380   0.01267  Uiso   1.00
N445   N     0.93590   0.43050   0.25890   0.01267  Uiso   1.00
N446   N     0.80830   0.40650   0.32430   0.01267  Uiso   1.00
N447   N     0.95790   0.37440   0.33790   0.01267  Uiso   1.00
N448   N     0.92620   0.51380   0.39940   0.01267  Uiso   1.00
N449   N     0.93590   0.74110   0.17160   0.01267  Uiso   1.00
N450   N     0.80830   0.67570   0.08220   0.01267  Uiso   1.00
N451   N     0.95790   0.66210   0.03650   0.01267  Uiso   1.00
N452   N     0.92620   0.60060   0.11440   0.01267  Uiso   1.00
N453   N     0.93590   0.82840   0.56950   0.01267  Uiso   1.00
N454   N     0.80830   0.91780   0.59350   0.01267  Uiso   1.00
N455   N     0.95790   0.96350   0.62560   0.01267  Uiso   1.00
N456   N     0.92620   0.88560   0.48620   0.01267  Uiso   1.00
N457   N     0.43590   0.17160   0.74110   0.01267  Uiso   1.00
N458   N     0.30830   0.08220   0.67570   0.01267  Uiso   1.00
N459   N     0.45790   0.03650   0.66210   0.01267  Uiso   1.00
N460   N     0.42620   0.11440   0.60060   0.01267  Uiso   1.00
N461   N     0.43590   0.56950   0.82840   0.01267  Uiso   1.00
N462   N     0.30830   0.59350   0.91780   0.01267  Uiso   1.00
N463   N     0.45790   0.62560   0.96350   0.01267  Uiso   1.00
N464   N     0.42620   0.48620   0.88560   0.01267  Uiso   1.00
N465   N     0.43590   0.25890   0.43050   0.01267  Uiso   1.00
N466   N     0.30830   0.32430   0.40650   0.01267  Uiso   1.00
N467   N     0.45790   0.33790   0.37440   0.01267  Uiso   1.00
N468   N     0.42620   0.39940   0.51380   0.01267  Uiso   1.00
N469   N     0.93590   0.82840   0.25890   0.01267  Uiso   1.00
N470   N     0.80830   0.91780   0.32430   0.01267  Uiso   1.00
N471   N     0.95790   0.96350   0.33790   0.01267  Uiso   1.00
N472   N     0.92620   0.88560   0.39940   0.01267  Uiso   1.00
N473   N     0.93590   0.43050   0.17160   0.01267  Uiso   1.00
N474   N     0.80830   0.40650   0.08220   0.01267  Uiso   1.00
N475   N     0.95790   0.37440   0.03650   0.01267  Uiso   1.00
N476   N     0.92620   0.51380   0.11440   0.01267  Uiso   1.00
N477   N     0.93590   0.74110   0.56950   0.01267  Uiso   1.00
N478   N     0.80830   0.67570   0.59350   0.01267  Uiso   1.00
N479   N     0.95790   0.66210   0.62560   0.01267  Uiso   1.00
N480   N     0.92620   0.60060   0.48620   0.01267  Uiso   1.00
N481   N     0.56410   0.43050   0.25890   0.01267  Uiso   1.00
N482   N     0.69170   0.40650   0.32430   0.01267  Uiso   1.00
N483   N     0.54210   0.37440   0.33790   0.01267  Uiso   1.00
N484   N     0.57380   0.51380   0.39940   0.01267  Uiso   1.00
N485   N     0.56410   0.74110   0.17160   0.01267  Uiso   1.00
N486   N     0.69170   0.67570   0.08220   0.01267  Uiso   1.00
N487   N     0.54210   0.66210   0.03650   0.01267  Uiso   1.00
N488   N     0.57380   0.60060   0.11440   0.01267  Uiso   1.00
N489   N     0.56410   0.82840   0.56950   0.01267  Uiso   1.00
N490   N     0.69170   0.91780   0.59350   0.01267  Uiso   1.00
N491   N     0.54210   0.96350   0.62560   0.01267  Uiso   1.00
N492   N     0.57380   0.88560   0.48620   0.01267  Uiso   1.00
N493   N     0.06410   0.56950   0.74110   0.01267  Uiso   1.00
N494   N     0.19170   0.59350   0.67570   0.01267  Uiso   1.00
N495   N     0.04210   0.62560   0.66210   0.01267  Uiso   1.00
N496   N     0.07380   0.48620   0.60060   0.01267  Uiso   1.00
N497   N     0.06410   0.25890   0.82840   0.01267  Uiso   1.00
N498   N     0.19170   0.32430   0.91780   0.01267  Uiso   1.00
N499   N     0.04210   0.33790   0.96350   0.01267  Uiso   1.00
N500   N     0.07380   0.39940   0.88560   0.01267  Uiso   1.00
N501   N     0.06410   0.17160   0.43050   0.01267  Uiso   1.00
N502   N     0.19170   0.08220   0.40650   0.01267  Uiso   1.00
N503   N     0.04210   0.03650   0.37440   0.01267  Uiso   1.00
N504   N     0.07380   0.11440   0.51380   0.01267  Uiso   1.00
N505   N     0.75000   0.83650   0.32380   0.01267  Uiso   1.00
N506   N     0.75000   0.48730   0.16350   0.01267  Uiso   1.00
N507   N     0.75000   0.67620   0.51270   0.01267  Uiso   1.00
N508   N     0.25000   0.16350   0.67620   0.01267  Uiso   1.00
N509   N     0.25000   0.51270   0.83650   0.01267  Uiso   1.00
N510   N     0.25000   0.32380   0.48730   0.01267  Uiso   1.00
N511   N     0.25000   0.51270   0.67620   0.01267  Uiso   1.00
N512   N     0.25000   0.32380   0.83650   0.01267  Uiso   1.00
N513   N     0.25000   0.16350   0.48730   0.01267  Uiso   1.00
N514   N     0.75000   0.48730   0.32380   0.01267  Uiso   1.00
N515   N     0.75000   0.67620   0.16350   0.01267  Uiso   1.00
N516   N     0.75000   0.83650   0.51270   0.01267  Uiso   1.00
N517   N     0.62730   0.96080   0.48040   0.01267  Uiso   1.00
N518   N     0.62730   0.51960   0.03920   0.01267  Uiso   1.00
N519   N     0.62730   0.51960   0.48040   0.01267  Uiso   1.00
N520   N     0.12730   0.03920   0.51960   0.01267  Uiso   1.00
N521   N     0.12730   0.48040   0.96080   0.01267  Uiso   1.00
N522   N     0.12730   0.48040   0.51960   0.01267  Uiso   1.00
N523   N     0.37270   0.48040   0.51960   0.01267  Uiso   1.00
N524   N     0.37270   0.48040   0.96080   0.01267  Uiso   1.00
N525   N     0.37270   0.03920   0.51960   0.01267  Uiso   1.00
N526   N     0.87270   0.51960   0.48040   0.01267  Uiso   1.00
N527   N     0.87270   0.51960   0.03920   0.01267  Uiso   1.00
N528   N     0.87270   0.96080   0.48040   0.01267  Uiso   1.00
O529   O     0.69560   0.81430   0.32500   0.01267  Uiso   1.00
O530   O     0.63980   0.98500   0.45070   0.01267  Uiso   1.00
O531   O     0.69560   0.51070   0.18570   0.01267  Uiso   1.00
O532   O     0.63980   0.46570   0.01500   0.01267  Uiso   1.00
O533   O     0.69560   0.67500   0.48930   0.01267  Uiso   1.00
O534   O     0.63980   0.54930   0.53430   0.01267  Uiso   1.00
O535   O     0.19560   0.18570   0.67500   0.01267  Uiso   1.00
O536   O     0.13980   0.01500   0.54930   0.01267  Uiso   1.00
O537   O     0.19560   0.48930   0.81430   0.01267  Uiso   1.00
O538   O     0.13980   0.53430   0.98500   0.01267  Uiso   1.00
O539   O     0.19560   0.32500   0.51070   0.01267  Uiso   1.00
O540   O     0.13980   0.45070   0.46570   0.01267  Uiso   1.00
O541   O     0.30440   0.48930   0.67500   0.01267  Uiso   1.00
O542   O     0.36020   0.53430   0.54930   0.01267  Uiso   1.00
O543   O     0.30440   0.32500   0.81430   0.01267  Uiso   1.00
O544   O     0.36020   0.45070   0.98500   0.01267  Uiso   1.00
O545   O     0.30440   0.18570   0.51070   0.01267  Uiso   1.00
O546   O     0.36020   0.01500   0.46570   0.01267  Uiso   1.00
O547   O     0.80440   0.51070   0.32500   0.01267  Uiso   1.00
O548   O     0.86020   0.46570   0.45070   0.01267  Uiso   1.00
O549   O     0.80440   0.67500   0.18570   0.01267  Uiso   1.00
O550   O     0.86020   0.54930   0.01500   0.01267  Uiso   1.00
O551   O     0.80440   0.81430   0.48930   0.01267  Uiso   1.00
O552   O     0.86020   0.98500   0.53430   0.01267  Uiso   1.00
O553   O     0.30440   0.18570   0.67500   0.01267  Uiso   1.00
O554   O     0.36020   0.01500   0.54930   0.01267  Uiso   1.00
O555   O     0.30440   0.48930   0.81430   0.01267  Uiso   1.00
O556   O     0.36020   0.53430   0.98500   0.01267  Uiso   1.00
O557   O     0.30440   0.32500   0.51070   0.01267  Uiso   1.00
O558   O     0.36020   0.45070   0.46570   0.01267  Uiso   1.00
O559   O     0.80440   0.81430   0.32500   0.01267  Uiso   1.00
O560   O     0.86020   0.98500   0.45070   0.01267  Uiso   1.00
O561   O     0.80440   0.51070   0.18570   0.01267  Uiso   1.00
O562   O     0.86020   0.46570   0.01500   0.01267  Uiso   1.00
O563   O     0.80440   0.67500   0.48930   0.01267  Uiso   1.00
O564   O     0.86020   0.54930   0.53430   0.01267  Uiso   1.00
O565   O     0.69560   0.51070   0.32500   0.01267  Uiso   1.00
O566   O     0.63980   0.46570   0.45070   0.01267  Uiso   1.00
O567   O     0.69560   0.67500   0.18570   0.01267  Uiso   1.00
O568   O     0.63980   0.54930   0.01500   0.01267  Uiso   1.00
O569   O     0.69560   0.81430   0.48930   0.01267  Uiso   1.00
O570   O     0.63980   0.98500   0.53430   0.01267  Uiso   1.00
O571   O     0.19560   0.48930   0.67500   0.01267  Uiso   1.00
O572   O     0.13980   0.53430   0.54930   0.01267  Uiso   1.00
O573   O     0.19560   0.32500   0.81430   0.01267  Uiso   1.00
O574   O     0.13980   0.45070   0.98500   0.01267  Uiso   1.00
O575   O     0.19560   0.18570   0.51070   0.01267  Uiso   1.00
O576   O     0.13980   0.01500   0.46570   0.01267  Uiso   1.00
H577   H     0.32647   0.83692   0.24948   0.00000  Uiso   1.00
H578   H     0.56082   0.98235   0.17034   0.00000  Uiso   1.00
H579   H     0.32647   0.41256   0.16308   0.00000  Uiso   1.00
H580   H     0.56082   0.18799   0.01765   0.00000  Uiso   1.00
H581   H     0.82647   0.24948   0.41256   0.00000  Uiso   1.00
H582   H     0.43739   0.81043   0.82940   0.00000  Uiso   1.00
H583   H     0.43739   0.17060   0.98102   0.00000  Uiso   1.00
H584   H     0.67353   0.16308   0.41256   0.00000  Uiso   1.00
H585   H     0.43918   0.01765   0.18799   0.00000  Uiso   1.00
H586   H     0.17353   0.41256   0.24948   0.00000  Uiso   1.00
H587   H     0.17353   0.75052   0.16308   0.00000  Uiso   1.00
H588   H     0.93918   0.98235   0.81201   0.00000  Uiso   1.00
H589   H     0.67096   0.15941   0.74654   0.00000  Uiso   1.00
H590   H     0.67096   0.58713   0.84059   0.00000  Uiso   1.00
H591   H     0.93918   0.98235   0.17034   0.00000  Uiso   1.00
H592   H     0.93918   0.18799   0.01765   0.00000  Uiso   1.00
H593   H     0.17096   0.74654   0.58713   0.00000  Uiso   1.00
H594   H     0.32904   0.84059   0.58713   0.00000  Uiso   1.00
H595   H     0.56082   0.98235   0.81201   0.00000  Uiso   1.00
H596   H     0.82904   0.58713   0.74654   0.00000  Uiso   1.00
H597   H     0.06261   0.81043   0.82940   0.00000  Uiso   1.00
H598   H     0.82904   0.25346   0.84059   0.00000  Uiso   1.00
H599   H     0.06261   0.17060   0.98102   0.00000  Uiso   1.00
H600   H     0.06082   0.01765   0.18799   0.00000  Uiso   1.00
loop_
_geom_bond_atom_site_label_1
_geom_bond_atom_site_label_2
_geom_bond_distance
_geom_bond_site_symmetry_2
_ccdc_geom_bond_type
Zn1    N409    1.971   .     S
Zn1    N410    1.968   .     S
Zn1    N411    1.955   .     S
Zn1    N412    1.988   .     S
Zn2    N413    1.971   .     S
Zn2    N414    1.968   .     S
Zn2    N415    1.955   .     S
Zn2    N416    1.988   .     S
Zn3    N417    1.971   .     S
Zn3    N418    1.968   .     S
Zn3    N419    1.955   .     S
Zn3    N420    1.988   .     S
Zn4    N421    1.971   .     S
Zn4    N422    1.968   .     S
Zn4    N423    1.955   .     S
Zn4    N424    1.988   .     S
Zn5    N425    1.971   .     S
Zn5    N426    1.968   .     S
Zn5    N427    1.955   .     S
Zn5    N428    1.988   .     S
Zn6    N429    1.971   .     S
Zn6    N430    1.968   .     S
Zn6    N431    1.955   .     S
Zn6    N432    1.988   .     S
Zn7    N433    1.971   .     S
Zn7    N434    1.968   .     S
Zn7    N435    1.955   .     S
Zn7    N436    1.988   .     S
Zn8    N437    1.971   .     S
Zn8    N438    1.968   .     S
Zn8    N439    1.955   .     S
Zn8    N440    1.988   .     S
Zn9    N441    1.971   .     S
Zn9    N442    1.968   .     S
Zn9    N443    1.955   .     S
Zn9    N444    1.988   .     S
Zn10   N445    1.971   .     S
Zn10   N446    1.968   .     S
Zn10   N447    1.955   .     S
Zn10   N448    1.988   .     S
Zn11   N449    1.971   .     S
Zn11   N450    1.968   .     S
Zn11   N451    1.955   .     S
Zn11   N452    1.988   .     S
Zn12   N453    1.971   .     S
Zn12   N454    1.968   .     S
Zn12   N455    1.955   .     S
Zn12   N456    1.988   .     S
Zn13   N457    1.971   .     S
Zn13   N458    1.968   .     S
Zn13   N459    1.955   .     S
Zn13   N460    1.988   .     S
Zn14   N461    1.971   .     S
Zn14   N462    1.968   .     S
Zn14   N463    1.955   .     S
Zn14   N464    1.988   .     S
Zn15   N465    1.971   .     S
Zn15   N466    1.968   .     S
Zn15   N467    1.955   .     S
Zn15   N468    1.988   .     S
Zn16   N469    1.971   .     S
Zn16   N470    1.968   .     S
Zn16   N471    1.955   .     S
Zn16   N472    1.988   .     S
Zn17   N473    1.971   .     S
Zn17   N474    1.968   .     S
Zn17   N475    1.955   .     S
Zn17   N476    1.988   .     S
Zn18   N477    1.971   .     S
Zn18   N478    1.968   .     S
Zn18   N479    1.955   .     S
Zn18   N480    1.988   .     S
Zn19   N481    1.971   .     S
Zn19   N482    1.968   .     S
Zn19   N483    1.955   .     S
Zn19   N484    1.988   .     S
Zn20   N485    1.971   .     S
Zn20   N486    1.968   .     S
Zn20   N487    1.955   .     S
Zn20   N488    1.988   .     S
Zn21   N489    1.971   .     S
Zn21   N490    1.968   .     S
Zn21   N491    1.955   .     S
Zn21   N492    1.988   .     S
Zn22   N493    1.971   .     S
Zn22   N494    1.968   .     S
Zn22   N495    1.955   .     S
Zn22   N496    1.988   .     S
Zn23   N497    1.971   .     S
Zn23   N498    1.968   .     S
Zn23   N499    1.955   .     S
Zn23   N500    1.988   .     S
Zn24   N501    1.971   .     S
Zn24   N502    1.968   .     S
Zn24   N503    1.955   .     S
Zn24   N504    1.988   .     S
H25    C146    1.140   .     S
H26    C148    1.140   .     S
H27    C150    1.140   .     S
H28    C152    1.140   .     S
H29    C154    1.140   .     S
H30    C156    1.140   .     S
H31    C158    1.140   .     S
H32    C160    1.140   .     S
H33    C162    1.140   .     S
H34    C164    1.140   .     S
H35    C166    1.140   .     S
H36    C168    1.140   .     S
H37    C170    1.140   .     S
H38    C172    1.140   .     S
H39    C174    1.140   .     S
H40    C176    1.140   .     S
H41    C178    1.140   .     S
H42    C180    1.140   .     S
H43    C182    1.140   .     S
H44    C184    1.140   .     S
H45    C186    1.140   .     S
H46    C188    1.140   .     S
H47    C190    1.140   .     S
H48    C192    1.140   .     S
H49    C194    1.140   .     S
H50    C196    1.140   .     S
H51    C198    1.140   .     S
H52    C200    1.140   .     S
H53    C202    1.140   .     S
H54    C204    1.140   .     S
H55    C206    1.140   .     S
H56    C208    1.140   .     S
H57    C210    1.140   .     S
H58    C212    1.140   .     S
H59    C214    1.140   .     S
H60    C216    1.140   .     S
H61    C218    1.140   .     S
H62    C220    1.140   .     S
H63    C222    1.140   .     S
H64    C224    1.140   .     S
H65    C226    1.140   .     S
H66    C228    1.140   .     S
H67    C230    1.140   .     S
H68    C232    1.140   .     S
H69    C234    1.140   .     S
H70    C236    1.140   .     S
H71    C238    1.140   .     S
H72    C240    1.140   .     S
H73    C242    1.140   .     S
H74    C244    1.140   .     S
H75    C246    1.140   .     S
H76    C248    1.140   .     S
H77    C250    1.140   .     S
H78    C252    1.140   .     S
H79    C254    1.140   .     S
H80    C256    1.140   .     S
H81    C258    1.140   .     S
H82    C260    1.140   .     S
H83    C262    1.140   .     S
H84    C264    1.140   .     S
H85    C266    1.140   .     S
H86    C268    1.140   .     S
H87    C270    1.140   .     S
H88    C272    1.140   .     S
H89    C274    1.140   .     S
H90    C276    1.140   .     S
H91    C278    1.140   .     S
H92    C280    1.140   .     S
H93    C282    1.140   .     S
H94    C284    1.140   .     S
H95    C286    1.140   .     S
H96    C288    1.140   .     S
H97    C290    1.140   .     S
H98    C292    1.140   .     S
H99    C294    1.140   .     S
H100   C296    1.140   .     S
H101   C298    1.140   .     S
H102   C300    1.140   .     S
H103   C302    1.140   .     S
H104   C304    1.140   .     S
H105   C306    1.140   .     S
H106   C308    1.140   .     S
H107   C310    1.140   .     S
H108   C312    1.140   .     S
H109   C314    1.140   .     S
H110   C316    1.140   .     S
H111   C318    1.140   .     S
H112   C320    1.140   .     S
H113   C322    1.140   .     S
H114   C324    1.140   .     S
H115   C326    1.140   .     S
H116   C328    1.140   .     S
H117   C330    1.140   .     S
H118   C332    1.140   .     S
H119   C334    1.140   .     S
H120   C336    1.140   .     S
H121   C337    1.140   .     S
H122   C338    1.140   .     S
H123   C339    1.140   .     S
H124   C340    1.140   .     S
H125   C341    1.140   .     S
H126   C342    1.140   .     S
H127   C343    1.140   .     S
H128   C344    1.140   .     S
H129   C345    1.140   .     S
H130   C346    1.140   .     S
H131   C347    1.140   .     S
H132   C348    1.140   .     S
H133   C361    1.140   .     S
H134   C362    1.140   .     S
H135   C363    1.140   .     S
H136   C364    1.140   .     S
H137   C365    1.140   .     S
H138   C366    1.140   .     S
H139   C367    1.140   .     S
H140   C368    1.140   .     S
H141   C369    1.140   .     S
H142   C370    1.140   .     S
H143   C371    1.140   .     S
H144   C372    1.140   .     S
C145   C146    1.469   .     A
C145   C297    1.349   .     S
C145   N409    1.382   .     A
C146   C147    1.372   .     A
C147   C299    1.305   .     S
C147   H577    1.140   .     S
C148   C268    1.383   .     A
C148   N410    1.361   .     A
C149   C150    1.418   .     A
C149   N411    1.392   .     A
C149   C213    1.415   1_565 S
C150   C151    1.411   .     A
C151   H578    1.140   .     S
C151   C215    1.411   1_565 S
C152   C312    1.505   .     A
C152   N412    1.416   .     A
C153   C154    1.469   .     A
C153   C289    1.349   .     S
C153   N413    1.382   .     A
C154   C155    1.372   .     A
C155   C291    1.305   .     S
C155   H579    1.140   .     S
C156   C276    1.383   .     A
C156   N414    1.361   .     A
C157   C158    1.418   .     A
C157   N415    1.392   .     A
C157   C205    1.415   1_554 S
C158   C159    1.411   .     A
C159   H580    1.140   .     S
C159   C207    1.411   1_554 S
C160   C304    1.505   .     A
C160   N416    1.416   .     A
C161   C162    1.469   .     A
C161   C305    1.349   .     S
C161   N417    1.382   .     A
C162   C163    1.372   .     A
C163   C307    1.305   .     S
C163   Br385   2.049   .     A
C164   C284    1.383   .     A
C164   N418    1.361   .     A
C165   C166    1.418   .     A
C165   C197    1.415   .     S
C165   N419    1.392   .     A
C166   C167    1.411   .     A
C167   C199    1.411   .     S
C167   Br386   1.855   .     A
C168   C296    1.505   .     A
C168   N420    1.416   .     A
C169   C170    1.469   .     A
C169   C321    1.349   .     S
C169   N421    1.382   1_655 S
C170   C171    1.372   .     A
C171   C323    1.305   .     S
C171   Br387   2.049   .     A
C172   C244    1.383   .     A
C172   N422    1.361   .     A
C173   C174    1.418   .     A
C173   N423    1.392   .     A
C173   C237    1.415   1_445 S
C174   C175    1.411   .     A
C175   Br388   1.855   .     A
C175   C239    1.411   1_445 S
C176   C336    1.505   .     A
C176   N424    1.416   .     A
C177   C178    1.469   .     A
C177   C313    1.349   .     S
C177   N425    1.382   1_655 S
C178   C179    1.372   .     A
C179   C315    1.305   .     S
C179   Br389   2.049   .     A
C180   C252    1.383   .     A
C180   N426    1.361   .     A
C181   C182    1.418   .     A
C181   N427    1.392   .     A
C181   C229    1.415   1_456 S
C182   C183    1.411   .     A
C183   Br390   1.855   .     A
C183   C231    1.411   1_456 S
C184   C328    1.505   .     A
C184   N428    1.416   .     A
C185   C186    1.469   .     A
C185   C329    1.349   .     S
C185   N429    1.382   1_655 S
C186   C187    1.372   .     A
C187   C331    1.305   .     S
C187   H581    1.140   .     S
C188   C260    1.383   .     A
C188   N430    1.361   .     A
C189   C190    1.418   .     A
C189   N431    1.392   .     A
C189   C221    1.415   1_455 S
C190   C191    1.411   .     A
C191   Br391   1.855   .     A
C191   C223    1.411   1_455 S
C192   C320    1.505   .     A
C192   N432    1.416   .     A
C193   C194    1.469   .     A
C193   C249    1.349   .     S
C193   N433    1.382   .     A
C194   C195    1.372   .     A
C195   C251    1.305   .     S
C195   Br392   2.049   .     A
C196   C316    1.383   .     A
C196   N434    1.361   .     A
C197   C198    1.418   .     A
C197   N435    1.392   .     A
C198   C199    1.411   .     A
C199   H582    1.140   .     S
C200   C264    1.505   .     A
C200   N436    1.416   .     A
C201   C202    1.469   .     A
C201   C241    1.349   .     S
C201   N437    1.382   .     A
C202   C203    1.372   .     A
C203   C243    1.305   .     S
C203   Br393   2.049   .     A
C204   C324    1.383   .     A
C204   N438    1.361   .     A
C205   C206    1.418   .     A
C205   N439    1.392   .     A
C205   C157    1.415   1_556 S
C206   C207    1.411   .     A
C207   H583    1.140   .     S
C207   C159    1.411   1_556 S
C208   C256    1.505   .     A
C208   N440    1.416   .     A
C209   C210    1.469   .     A
C209   C257    1.349   .     S
C209   N441    1.382   .     A
C210   C211    1.372   .     A
C211   C259    1.305   .     S
C211   H584    1.140   .     S
C212   C332    1.383   .     A
C212   N442    1.361   .     A
C213   C214    1.418   .     A
C213   N443    1.392   .     A
C213   C149    1.415   1_545 S
C214   C215    1.411   .     A
C215   H585    1.140   .     S
C215   C151    1.411   1_545 S
C216   C248    1.505   .     A
C216   N444    1.416   .     A
C217   C218    1.469   .     A
C217   C273    1.349   .     S
C217   N445    1.382   1_455 S
C218   C219    1.372   .     A
C219   C275    1.305   .     S
C219   H586    1.140   .     S
C220   C292    1.383   .     A
C220   N446    1.361   .     A
C221   C222    1.418   .     A
C221   N447    1.392   .     A
C221   C189    1.415   1_655 S
C222   C223    1.411   .     A
C223   Br394   1.855   .     A
C223   C191    1.411   1_655 S
C224   C288    1.505   .     A
C224   N448    1.416   .     A
C225   C226    1.469   .     A
C225   C265    1.349   .     S
C225   N449    1.382   1_455 S
C226   C227    1.372   .     A
C227   C267    1.305   .     S
C227   H587    1.140   .     S
C228   C300    1.383   .     A
C228   N450    1.361   .     A
C229   C230    1.418   .     A
C229   N451    1.392   .     A
C229   C181    1.415   1_654 S
C230   C231    1.411   .     A
C231   Br395   1.855   .     A
C231   C183    1.411   1_654 S
C232   C280    1.505   .     A
C232   N452    1.416   .     A
C233   C234    1.469   .     A
C233   C281    1.349   .     S
C233   N453    1.382   1_455 S
C234   C235    1.372   .     A
C235   C283    1.305   .     S
C235   Br396   2.049   .     A
C236   C308    1.383   .     A
C236   N454    1.361   .     A
C237   C238    1.418   .     A
C237   N455    1.392   .     A
C237   C173    1.415   1_665 S
C238   C239    1.411   .     A
C239   H588    1.140   .     S
C239   C175    1.411   1_665 S
C240   C272    1.505   .     A
C240   N456    1.416   .     A
C241   C242    1.469   .     A
C241   N457    1.382   .     A
C242   C243    1.372   .     A
C243   H589    1.140   .     S
C244   N458    1.361   .     A
C245   C246    1.418   .     A
C245   N459    1.392   .     A
C245   C309    1.415   1_545 S
C246   C247    1.411   .     A
C247   Br397   1.855   .     A
C247   C311    1.411   1_545 S
C248   N460    1.416   .     A
C249   C250    1.469   .     A
C249   N461    1.382   .     A
C250   C251    1.372   .     A
C251   H590    1.140   .     S
C252   N462    1.361   .     A
C253   C254    1.418   .     A
C253   N463    1.392   .     A
C253   C301    1.415   1_556 S
C254   C255    1.411   .     A
C255   Br398   1.855   .     A
C255   C303    1.411   1_556 S
C256   N464    1.416   .     A
C257   C258    1.469   .     A
C257   N465    1.382   .     A
C258   C259    1.372   .     A
C259   Br399   2.049   .     A
C260   N466    1.361   .     A
C261   C262    1.418   .     A
C261   C293    1.415   .     S
C261   N467    1.392   .     A
C262   C263    1.411   .     A
C263   C295    1.411   .     S
C263   Br400   1.855   .     A
C264   N468    1.416   .     A
C265   C266    1.469   .     A
C265   N469    1.382   1_455 S
C266   C267    1.372   .     A
C267   Br401   2.049   .     A
C268   N470    1.361   .     A
C269   C270    1.418   .     A
C269   N471    1.392   .     A
C269   C333    1.415   1_665 S
C270   C271    1.411   .     A
C271   H591    1.140   .     S
C271   C335    1.411   1_665 S
C272   N472    1.416   .     A
C273   C274    1.469   .     A
C273   N473    1.382   1_455 S
C274   C275    1.372   .     A
C275   Br402   2.049   .     A
C276   N474    1.361   .     A
C277   C278    1.418   .     A
C277   N475    1.392   .     A
C277   C325    1.415   1_654 S
C278   C279    1.411   .     A
C279   H592    1.140   .     S
C279   C327    1.411   1_654 S
C280   N476    1.416   .     A
C281   C282    1.469   .     A
C281   N477    1.382   1_455 S
C282   C283    1.372   .     A
C283   H593    1.140   .     S
C284   N478    1.361   .     A
C285   C286    1.418   .     A
C285   N479    1.392   .     A
C285   C317    1.415   1_655 S
C286   C287    1.411   .     A
C287   Br403   1.855   .     A
C287   C319    1.411   1_655 S
C288   N480    1.416   .     A
C289   C290    1.469   .     A
C289   N481    1.382   .     A
C290   C291    1.372   .     A
C291   Br404   2.049   .     A
C292   N482    1.361   .     A
C293   C294    1.418   .     A
C293   N483    1.392   .     A
C294   C295    1.411   .     A
C295   Br405   1.855   .     A
C296   N484    1.416   .     A
C297   C298    1.469   .     A
C297   N485    1.382   .     A
C298   C299    1.372   .     A
C299   Br406   2.049   .     A
C300   N486    1.361   .     A
C301   C302    1.418   .     A
C301   N487    1.392   .     A
C301   C253    1.415   1_554 S
C302   C303    1.411   .     A
C303   Br407   1.855   .     A
C303   C255    1.411   1_554 S
C304   N488    1.416   .     A
C305   C306    1.469   .     A
C305   N489    1.382   .     A
C306   C307    1.372   .     A
C307   H594    1.140   .     S
C308   N490    1.361   .     A
C309   C310    1.418   .     A
C309   N491    1.392   .     A
C309   C245    1.415   1_565 S
C310   C311    1.411   .     A
C311   H595    1.140   .     S
C311   C247    1.411   1_565 S
C312   N492    1.416   .     A
C313   C314    1.469   .     A
C313   N493    1.382   1_655 S
C314   C315    1.372   .     A
C315   H596    1.140   .     S
C316   N494    1.361   .     A
C317   C318    1.418   .     A
C317   N495    1.392   .     A
C317   C285    1.415   1_455 S
C318   C319    1.411   .     A
C319   H597    1.140   .     S
C319   C287    1.411   1_455 S
C320   N496    1.416   .     A
C321   C322    1.469   .     A
C321   N497    1.382   1_655 S
C322   C323    1.372   .     A
C323   H598    1.140   .     S
C324   N498    1.361   .     A
C325   C326    1.418   .     A
C325   N499    1.392   .     A
C325   C277    1.415   1_456 S
C326   C327    1.411   .     A
C327   H599    1.140   .     S
C327   C279    1.411   1_456 S
C328   N500    1.416   .     A
C329   C330    1.469   .     A
C329   N501    1.382   1_655 S
C330   C331    1.372   .     A
C331   Br408   2.049   .     A
C332   N502    1.361   .     A
C333   C334    1.418   .     A
C333   N503    1.392   .     A
C333   C269    1.415   1_445 S
C334   C335    1.411   .     A
C335   H600    1.140   .     S
C335   C271    1.411   1_445 S
C336   N504    1.416   .     A
C337   N409    1.323   .     A
C337   N485    1.323   .     A
C338   N413    1.323   .     A
C338   N481    1.323   .     A
C339   N417    1.323   .     A
C339   N489    1.323   .     A
C340   N421    1.323   .     A
C340   N497    1.323   .     A
C341   N425    1.323   .     A
C341   N493    1.323   .     A
C342   N429    1.323   .     A
C342   N501    1.323   .     A
C343   N433    1.323   .     A
C343   N461    1.323   .     A
C344   N437    1.323   .     A
C344   N457    1.323   .     A
C345   N441    1.323   .     A
C345   N465    1.323   .     A
C346   N445    1.323   .     A
C346   N473    1.323   .     A
C347   N449    1.323   .     A
C347   N469    1.323   .     A
C348   N453    1.323   .     A
C348   N477    1.323   .     A
C349   N410    1.335   .     A
C349   N470    1.335   .     A
C349   N505    1.427   .     S
C350   N414    1.335   .     A
C350   N474    1.335   .     A
C350   N506    1.427   .     S
C351   N418    1.335   .     A
C351   N478    1.335   .     A
C351   N507    1.427   .     S
C352   N422    1.335   .     A
C352   N458    1.335   .     A
C352   N508    1.427   .     S
C353   N426    1.335   .     A
C353   N462    1.335   .     A
C353   N509    1.427   .     S
C354   N430    1.335   .     A
C354   N466    1.335   .     A
C354   N510    1.427   .     S
C355   N434    1.335   .     A
C355   N494    1.335   .     A
C355   N511    1.427   .     S
C356   N438    1.335   .     A
C356   N498    1.335   .     A
C356   N512    1.427   .     S
C357   N442    1.335   .     A
C357   N502    1.335   .     A
C357   N513    1.427   .     S
C358   N446    1.335   .     A
C358   N482    1.335   .     A
C358   N514    1.427   .     S
C359   N450    1.335   .     A
C359   N486    1.335   .     A
C359   N515    1.427   .     S
C360   N454    1.335   .     A
C360   N490    1.335   .     A
C360   N516    1.427   .     S
C361   N443    1.382   .     A
C361   N411    1.382   1_545 S
C362   N415    1.382   .     A
C362   N439    1.382   1_554 S
C363   N419    1.382   .     A
C363   N435    1.382   .     A
C364   N423    1.382   .     A
C364   N455    1.382   1_445 S
C365   N427    1.382   1_554 S
C365   N451    1.382   1_455 S
C366   N431    1.382   .     A
C366   N447    1.382   1_455 S
C367   N459    1.382   .     A
C367   N491    1.382   1_545 S
C368   N487    1.382   .     A
C368   N463    1.382   1_554 S
C369   N467    1.382   .     A
C369   N483    1.382   .     A
C370   N503    1.382   .     A
C370   N471    1.382   1_445 S
C371   N475    1.382   1_455 S
C371   N499    1.382   1_554 S
C372   N495    1.382   .     A
C372   N479    1.382   1_455 S
C373   N412    1.299   .     A
C373   N492    1.299   .     A
C373   N517    1.351   .     S
C374   N416    1.299   .     A
C374   N488    1.299   .     A
C374   N518    1.351   .     S
C375   N420    1.299   .     A
C375   N484    1.299   .     A
C375   N519    1.351   .     S
C376   N424    1.299   .     A
C376   N504    1.299   .     A
C376   N520    1.351   .     S
C377   N428    1.299   .     A
C377   N500    1.299   .     A
C377   N521    1.351   .     S
C378   N432    1.299   .     A
C378   N496    1.299   .     A
C378   N522    1.351   .     S
C379   N436    1.299   .     A
C379   N468    1.299   .     A
C379   N523    1.351   .     S
C380   N440    1.299   .     A
C380   N464    1.299   .     A
C380   N524    1.351   .     S
C381   N444    1.299   .     A
C381   N460    1.299   .     A
C381   N525    1.351   .     S
C382   N448    1.299   .     A
C382   N480    1.299   .     A
C382   N526    1.351   .     S
C383   N452    1.299   .     A
C383   N476    1.299   .     A
C383   N527    1.351   .     S
C384   N456    1.299   .     A
C384   N472    1.299   .     A
C384   N528    1.351   .     S
N411   C361    1.382   1_565 S
N421   C169    1.382   1_455 S
N425   C177    1.382   1_455 S
N427   C365    1.382   1_556 S
N429   C185    1.382   1_455 S
N439   C362    1.382   1_556 S
N445   C217    1.382   1_655 S
N447   C366    1.382   1_655 S
N449   C225    1.382   1_655 S
N451   C365    1.382   1_655 S
N453   C233    1.382   1_655 S
N455   C364    1.382   1_665 S
N463   C368    1.382   1_556 S
N469   C265    1.382   1_655 S
N471   C370    1.382   1_665 S
N473   C273    1.382   1_655 S
N475   C371    1.382   1_655 S
N477   C281    1.382   1_655 S
N479   C372    1.382   1_655 S
N491   C367    1.382   1_565 S
N493   C313    1.382   1_455 S
N497   C321    1.382   1_455 S
N499   C371    1.382   1_556 S
N501   C329    1.382   1_455 S
N505   O529    1.225   .     A
N505   O559    1.225   .     A
N506   O531    1.225   .     A
N506   O561    1.225   .     A
N507   O533    1.225   .     A
N507   O563    1.225   .     A
N508   O535    1.225   .     A
N508   O553    1.225   .     A
N509   O537    1.225   .     A
N509   O555    1.225   .     A
N510   O539    1.225   .     A
N510   O557    1.225   .     A
N511   O541    1.225   .     A
N511   O571    1.225   .     A
N512   O543    1.225   .     A
N512   O573    1.225   .     A
N513   O545    1.225   .     A
N513   O575    1.225   .     A
N514   O547    1.225   .     A
N514   O565    1.225   .     A
N515   O549    1.225   .     A
N515   O567    1.225   .     A
N516   O551    1.225   .     A
N516   O569    1.225   .     A
N517   O530    1.240   .     A
N517   O570    1.240   .     A
N518   O532    1.240   .     A
N518   O568    1.240   .     A
N519   O534    1.240   .     A
N519   O566    1.240   .     A
N520   O536    1.240   .     A
N520   O576    1.240   .     A
N521   O538    1.240   .     A
N521   O574    1.240   .     A
N522   O540    1.240   .     A
N522   O572    1.240   .     A
N523   O542    1.240   .     A
N523   O558    1.240   .     A
N524   O544    1.240   .     A
N524   O556    1.240   .     A
N525   O546    1.240   .     A
N525   O554    1.240   .     A
N526   O548    1.240   .     A
N526   O564    1.240   .     A
N527   O550    1.240   .     A
N527   O562    1.240   .     A
N528   O552    1.240   .     A
N528   O560    1.240   .     A
