data_image0
_cell_length_a       26.115
_cell_length_b       26.436
_cell_length_c       26.3473
_cell_angle_alpha    90
_cell_angle_beta     90
_cell_angle_gamma    90

_symmetry_space_group_name_H-M    P 1
_symmetry_int_tables_number       1

loop_
  _symmetry_equiv_pos_as_xyz
  'x, y, z'

loop_
  _atom_site_label
  _atom_site_occupancy
  _atom_site_fract_x
  _atom_site_fract_y
  _atom_site_fract_z
  _atom_site_thermal_displace_type
  _atom_site_B_iso_or_equiv
  _atom_site_type_symbol
  Zn1      1.0000 0.24608  0.52730  0.75325  Biso   1.000  Zn
  Zn2      1.0000 0.29034  0.59861  0.85093  Biso   1.000  Zn
  Zn3      1.0000 0.90524  0.72118  0.16614  Biso   1.000  Zn
  Zn4      1.0000 0.97163  0.73136  0.76372  Biso   1.000  Zn
  Zn5      1.0000 0.25392  0.97270  0.75325  Biso   1.000  Zn
  Zn6      1.0000 0.20966  0.90139  0.85093  Biso   1.000  Zn
  Zn7      1.0000 0.59476  0.77882  0.16614  Biso   1.000  Zn
  Zn8      1.0000 0.52837  0.76864  0.76372  Biso   1.000  Zn
  Zn9      1.0000 0.74608  0.47270  0.74675  Biso   1.000  Zn
  Zn10     1.0000 0.79034  0.40139  0.64907  Biso   1.000  Zn
  Zn11     1.0000 0.40524  0.27882  0.33386  Biso   1.000  Zn
  Zn12     1.0000 0.47163  0.26864  0.73628  Biso   1.000  Zn
  Zn13     1.0000 0.75392  0.02730  0.74675  Biso   1.000  Zn
  Zn14     1.0000 0.70966  0.09861  0.64907  Biso   1.000  Zn
  Zn15     1.0000 0.09476  0.22118  0.33386  Biso   1.000  Zn
  Zn16     1.0000 0.02837  0.23136  0.73628  Biso   1.000  Zn
  Zn17     1.0000 0.75392  0.47270  0.24675  Biso   1.000  Zn
  Zn18     1.0000 0.70966  0.40139  0.14907  Biso   1.000  Zn
  Zn19     1.0000 0.09476  0.27882  0.83386  Biso   1.000  Zn
  Zn20     1.0000 0.02837  0.26864  0.23628  Biso   1.000  Zn
  Zn21     1.0000 0.74608  0.02730  0.24675  Biso   1.000  Zn
  Zn22     1.0000 0.79034  0.09861  0.14907  Biso   1.000  Zn
  Zn23     1.0000 0.40524  0.22118  0.83386  Biso   1.000  Zn
  Zn24     1.0000 0.47163  0.23136  0.23628  Biso   1.000  Zn
  Zn25     1.0000 0.25392  0.52730  0.25325  Biso   1.000  Zn
  Zn26     1.0000 0.20966  0.59861  0.35093  Biso   1.000  Zn
  Zn27     1.0000 0.59476  0.72118  0.66614  Biso   1.000  Zn
  Zn28     1.0000 0.52837  0.73136  0.26372  Biso   1.000  Zn
  Zn29     1.0000 0.24608  0.97270  0.25325  Biso   1.000  Zn
  Zn30     1.0000 0.29034  0.90139  0.35093  Biso   1.000  Zn
  Zn31     1.0000 0.90524  0.77882  0.66614  Biso   1.000  Zn
  Zn32     1.0000 0.97163  0.76864  0.26372  Biso   1.000  Zn
  H1       1.0000 0.09960  0.63210  0.78660  Biso   1.000  H
  H2       1.0000 0.04390  0.64960  0.92900  Biso   1.000  H
  H3       1.0000 0.17440  0.56870  0.90550  Biso   1.000  H
  H4       1.0000 0.08240  0.66020  0.01680  Biso   1.000  H
  H5       1.0000 0.03650  0.65230  0.10510  Biso   1.000  H
  H6       1.0000 0.09690  0.66140  0.24640  Biso   1.000  H
  H7       1.0000 0.17150  0.58320  0.13680  Biso   1.000  H
  H8       1.0000 0.15820  0.38860  0.73600  Biso   1.000  H
  H9       1.0000 0.08980  0.31700  0.61840  Biso   1.000  H
  H10      1.0000 0.16640  0.44840  0.59520  Biso   1.000  H
  H11      1.0000 0.16200  0.42260  0.50420  Biso   1.000  H
  H12      1.0000 0.14850  0.46380  0.41920  Biso   1.000  H
  H13      1.0000 0.13550  0.41610  0.27380  Biso   1.000  H
  H14      1.0000 0.07640  0.33110  0.38770  Biso   1.000  H
  H15      1.0000 0.23590  0.67340  0.77920  Biso   1.000  H
  H16      1.0000 0.18320  0.73510  0.74460  Biso   1.000  H
  H17      1.0000 0.16980  0.78170  0.78100  Biso   1.000  H
  H18      1.0000 0.13060  0.73540  0.77580  Biso   1.000  H
  H19      1.0000 0.14550  0.71300  0.87820  Biso   1.000  H
  H20      1.0000 0.16330  0.76990  0.86760  Biso   1.000  H
  H21      1.0000 0.20240  0.73040  0.89250  Biso   1.000  H
  H22      1.0000 0.31890  0.55430  0.95040  Biso   1.000  H
  H23      1.0000 0.23910  0.64440  0.00440  Biso   1.000  H
  H24      1.0000 0.26110  0.63460  0.06020  Biso   1.000  H
  H25      1.0000 0.21440  0.60130  0.03940  Biso   1.000  H
  H26      1.0000 0.32450  0.52200  0.03070  Biso   1.000  H
  H27      1.0000 0.28490  0.54090  0.07300  Biso   1.000  H
  H28      1.0000 0.33620  0.57230  0.06260  Biso   1.000  H
  H29      1.0000 0.39730  0.58180  0.83840  Biso   1.000  H
  H30      1.0000 0.42920  0.69050  0.90240  Biso   1.000  H
  H31      1.0000 0.46020  0.70910  0.85340  Biso   1.000  H
  H32      1.0000 0.48940  0.68000  0.89810  Biso   1.000  H
  H33      1.0000 0.47800  0.57870  0.81130  Biso   1.000  H
  H34      1.0000 0.51800  0.60440  0.84940  Biso   1.000  H
  H35      1.0000 0.50070  0.63370  0.79910  Biso   1.000  H
  H36      1.0000 0.93160  0.61920  0.17640  Biso   1.000  H
  H37      1.0000 0.93990  0.54030  0.20130  Biso   1.000  H
  H38      1.0000 0.88570  0.51700  0.21710  Biso   1.000  H
  H39      1.0000 0.91390  0.49770  0.16680  Biso   1.000  H
  H40      1.0000 0.82320  0.58090  0.11210  Biso   1.000  H
  H41      1.0000 0.83200  0.52190  0.12220  Biso   1.000  H
  H42      1.0000 0.80590  0.55640  0.16490  Biso   1.000  H
  H43      1.0000 0.96570  0.71680  0.06440  Biso   1.000  H
  H44      1.0000 0.93190  0.68790  0.94460  Biso   1.000  H
  H45      1.0000 0.95490  0.74400  0.94450  Biso   1.000  H
  H46      1.0000 0.98220  0.70050  0.97690  Biso   1.000  H
  H47      1.0000 0.84600  0.75240  0.02040  Biso   1.000  H
  H48      1.0000 0.87750  0.78450  0.97950  Biso   1.000  H
  H49      1.0000 0.85490  0.73020  0.96460  Biso   1.000  H
  H50      1.0000 0.82110  0.77090  0.22870  Biso   1.000  H
  H51      1.0000 0.78050  0.80190  0.11020  Biso   1.000  H
  H52      1.0000 0.72650  0.82340  0.12930  Biso   1.000  H
  H53      1.0000 0.77520  0.86000  0.12620  Biso   1.000  H
  H54      1.0000 0.76870  0.83070  0.25760  Biso   1.000  H
  H55      1.0000 0.74910  0.87330  0.21910  Biso   1.000  H
  H56      1.0000 0.71570  0.82330  0.22800  Biso   1.000  H
  H57      1.0000 0.40040  0.86790  0.78660  Biso   1.000  H
  H58      1.0000 0.45610  0.85040  0.92900  Biso   1.000  H
  H59      1.0000 0.32560  0.93130  0.90550  Biso   1.000  H
  H60      1.0000 0.41760  0.83980  0.01680  Biso   1.000  H
  H61      1.0000 0.46350  0.84770  0.10510  Biso   1.000  H
  H62      1.0000 0.40310  0.83860  0.24640  Biso   1.000  H
  H63      1.0000 0.32850  0.91680  0.13680  Biso   1.000  H
  H64      1.0000 0.34180  0.11140  0.73600  Biso   1.000  H
  H65      1.0000 0.41020  0.18300  0.61840  Biso   1.000  H
  H66      1.0000 0.33360  0.05160  0.59520  Biso   1.000  H
  H67      1.0000 0.33800  0.07740  0.50420  Biso   1.000  H
  H68      1.0000 0.35150  0.03620  0.41920  Biso   1.000  H
  H69      1.0000 0.36450  0.08390  0.27380  Biso   1.000  H
  H70      1.0000 0.42360  0.16890  0.38770  Biso   1.000  H
  H71      1.0000 0.26410  0.82660  0.77920  Biso   1.000  H
  H72      1.0000 0.31680  0.76490  0.74460  Biso   1.000  H
  H73      1.0000 0.33020  0.71830  0.78100  Biso   1.000  H
  H74      1.0000 0.36940  0.76460  0.77580  Biso   1.000  H
  H75      1.0000 0.35450  0.78700  0.87820  Biso   1.000  H
  H76      1.0000 0.33670  0.73010  0.86760  Biso   1.000  H
  H77      1.0000 0.29760  0.76960  0.89250  Biso   1.000  H
  H78      1.0000 0.18110  0.94570  0.95040  Biso   1.000  H
  H79      1.0000 0.26090  0.85560  0.00440  Biso   1.000  H
  H80      1.0000 0.23890  0.86540  0.06020  Biso   1.000  H
  H81      1.0000 0.28560  0.89870  0.03940  Biso   1.000  H
  H82      1.0000 0.17550  0.97800  0.03070  Biso   1.000  H
  H83      1.0000 0.21510  0.95910  0.07300  Biso   1.000  H
  H84      1.0000 0.16380  0.92770  0.06260  Biso   1.000  H
  H85      1.0000 0.10270  0.91820  0.83840  Biso   1.000  H
  H86      1.0000 0.07080  0.80950  0.90240  Biso   1.000  H
  H87      1.0000 0.03980  0.79090  0.85340  Biso   1.000  H
  H88      1.0000 0.01060  0.82000  0.89810  Biso   1.000  H
  H89      1.0000 0.02200  0.92130  0.81130  Biso   1.000  H
  H90      1.0000 0.98200  0.89560  0.84940  Biso   1.000  H
  H91      1.0000 0.99930  0.86630  0.79910  Biso   1.000  H
  H92      1.0000 0.56840  0.88080  0.17640  Biso   1.000  H
  H93      1.0000 0.56010  0.95970  0.20130  Biso   1.000  H
  H94      1.0000 0.61430  0.98300  0.21710  Biso   1.000  H
  H95      1.0000 0.58610  0.00230  0.16680  Biso   1.000  H
  H96      1.0000 0.67680  0.91910  0.11210  Biso   1.000  H
  H97      1.0000 0.66800  0.97810  0.12220  Biso   1.000  H
  H98      1.0000 0.69410  0.94360  0.16490  Biso   1.000  H
  H99      1.0000 0.53430  0.78320  0.06440  Biso   1.000  H
  H100     1.0000 0.56810  0.81210  0.94460  Biso   1.000  H
  H101     1.0000 0.54510  0.75600  0.94450  Biso   1.000  H
  H102     1.0000 0.51780  0.79950  0.97690  Biso   1.000  H
  H103     1.0000 0.65400  0.74760  0.02040  Biso   1.000  H
  H104     1.0000 0.62250  0.71550  0.97950  Biso   1.000  H
  H105     1.0000 0.64510  0.76980  0.96460  Biso   1.000  H
  H106     1.0000 0.67890  0.72910  0.22870  Biso   1.000  H
  H107     1.0000 0.71950  0.69810  0.11020  Biso   1.000  H
  H108     1.0000 0.77350  0.67660  0.12930  Biso   1.000  H
  H109     1.0000 0.72480  0.64000  0.12620  Biso   1.000  H
  H110     1.0000 0.73130  0.66930  0.25760  Biso   1.000  H
  H111     1.0000 0.75090  0.62670  0.21910  Biso   1.000  H
  H112     1.0000 0.78430  0.67670  0.22800  Biso   1.000  H
  H113     1.0000 0.59960  0.36790  0.71340  Biso   1.000  H
  H114     1.0000 0.54390  0.35040  0.57100  Biso   1.000  H
  H115     1.0000 0.67440  0.43130  0.59450  Biso   1.000  H
  H116     1.0000 0.58240  0.33980  0.48320  Biso   1.000  H
  H117     1.0000 0.53650  0.34770  0.39490  Biso   1.000  H
  H118     1.0000 0.59690  0.33860  0.25360  Biso   1.000  H
  H119     1.0000 0.67150  0.41680  0.36320  Biso   1.000  H
  H120     1.0000 0.65820  0.61140  0.76400  Biso   1.000  H
  H121     1.0000 0.58980  0.68300  0.88160  Biso   1.000  H
  H122     1.0000 0.66640  0.55160  0.90480  Biso   1.000  H
  H123     1.0000 0.66200  0.57740  0.99580  Biso   1.000  H
  H124     1.0000 0.64850  0.53620  0.08080  Biso   1.000  H
  H125     1.0000 0.63550  0.58390  0.22620  Biso   1.000  H
  H126     1.0000 0.57640  0.66890  0.11230  Biso   1.000  H
  H127     1.0000 0.73590  0.32660  0.72080  Biso   1.000  H
  H128     1.0000 0.68320  0.26490  0.75540  Biso   1.000  H
  H129     1.0000 0.66980  0.21830  0.71900  Biso   1.000  H
  H130     1.0000 0.63060  0.26460  0.72420  Biso   1.000  H
  H131     1.0000 0.64550  0.28700  0.62180  Biso   1.000  H
  H132     1.0000 0.66330  0.23010  0.63240  Biso   1.000  H
  H133     1.0000 0.70240  0.26960  0.60750  Biso   1.000  H
  H134     1.0000 0.81890  0.44570  0.54960  Biso   1.000  H
  H135     1.0000 0.73910  0.35560  0.49560  Biso   1.000  H
  H136     1.0000 0.76110  0.36540  0.43980  Biso   1.000  H
  H137     1.0000 0.71440  0.39870  0.46060  Biso   1.000  H
  H138     1.0000 0.82450  0.47800  0.46930  Biso   1.000  H
  H139     1.0000 0.78490  0.45910  0.42700  Biso   1.000  H
  H140     1.0000 0.83620  0.42770  0.43740  Biso   1.000  H
  H141     1.0000 0.89730  0.41820  0.66160  Biso   1.000  H
  H142     1.0000 0.92920  0.30950  0.59760  Biso   1.000  H
  H143     1.0000 0.96020  0.29090  0.64660  Biso   1.000  H
  H144     1.0000 0.98940  0.32000  0.60190  Biso   1.000  H
  H145     1.0000 0.97800  0.42130  0.68870  Biso   1.000  H
  H146     1.0000 0.01800  0.39560  0.65060  Biso   1.000  H
  H147     1.0000 0.00070  0.36630  0.70090  Biso   1.000  H
  H148     1.0000 0.43160  0.38080  0.32360  Biso   1.000  H
  H149     1.0000 0.43990  0.45970  0.29870  Biso   1.000  H
  H150     1.0000 0.38570  0.48300  0.28290  Biso   1.000  H
  H151     1.0000 0.41390  0.50230  0.33320  Biso   1.000  H
  H152     1.0000 0.32320  0.41910  0.38790  Biso   1.000  H
  H153     1.0000 0.33200  0.47810  0.37780  Biso   1.000  H
  H154     1.0000 0.30590  0.44360  0.33510  Biso   1.000  H
  H155     1.0000 0.46570  0.28320  0.43560  Biso   1.000  H
  H156     1.0000 0.43190  0.31210  0.55540  Biso   1.000  H
  H157     1.0000 0.45490  0.25600  0.55550  Biso   1.000  H
  H158     1.0000 0.48220  0.29950  0.52310  Biso   1.000  H
  H159     1.0000 0.34600  0.24760  0.47960  Biso   1.000  H
  H160     1.0000 0.37750  0.21550  0.52050  Biso   1.000  H
  H161     1.0000 0.35490  0.26980  0.53540  Biso   1.000  H
  H162     1.0000 0.32110  0.22910  0.27130  Biso   1.000  H
  H163     1.0000 0.28050  0.19810  0.38980  Biso   1.000  H
  H164     1.0000 0.22650  0.17660  0.37070  Biso   1.000  H
  H165     1.0000 0.27520  0.14000  0.37380  Biso   1.000  H
  H166     1.0000 0.26870  0.16930  0.24240  Biso   1.000  H
  H167     1.0000 0.24910  0.12670  0.28090  Biso   1.000  H
  H168     1.0000 0.21570  0.17670  0.27200  Biso   1.000  H
  H169     1.0000 0.90040  0.13210  0.71340  Biso   1.000  H
  H170     1.0000 0.95610  0.14960  0.57100  Biso   1.000  H
  H171     1.0000 0.82560  0.06870  0.59450  Biso   1.000  H
  H172     1.0000 0.91760  0.16020  0.48320  Biso   1.000  H
  H173     1.0000 0.96350  0.15230  0.39490  Biso   1.000  H
  H174     1.0000 0.90310  0.16140  0.25360  Biso   1.000  H
  H175     1.0000 0.82850  0.08320  0.36320  Biso   1.000  H
  H176     1.0000 0.84180  0.88860  0.76400  Biso   1.000  H
  H177     1.0000 0.91020  0.81700  0.88160  Biso   1.000  H
  H178     1.0000 0.83360  0.94840  0.90480  Biso   1.000  H
  H179     1.0000 0.83800  0.92260  0.99580  Biso   1.000  H
  H180     1.0000 0.85150  0.96380  0.08080  Biso   1.000  H
  H181     1.0000 0.86450  0.91610  0.22620  Biso   1.000  H
  H182     1.0000 0.92360  0.83110  0.11230  Biso   1.000  H
  H183     1.0000 0.76410  0.17340  0.72080  Biso   1.000  H
  H184     1.0000 0.81680  0.23510  0.75540  Biso   1.000  H
  H185     1.0000 0.83020  0.28170  0.71900  Biso   1.000  H
  H186     1.0000 0.86940  0.23540  0.72420  Biso   1.000  H
  H187     1.0000 0.85450  0.21300  0.62180  Biso   1.000  H
  H188     1.0000 0.83670  0.26990  0.63240  Biso   1.000  H
  H189     1.0000 0.79760  0.23040  0.60750  Biso   1.000  H
  H190     1.0000 0.68110  0.05430  0.54960  Biso   1.000  H
  H191     1.0000 0.76090  0.14440  0.49560  Biso   1.000  H
  H192     1.0000 0.73890  0.13460  0.43980  Biso   1.000  H
  H193     1.0000 0.78560  0.10130  0.46060  Biso   1.000  H
  H194     1.0000 0.67550  0.02200  0.46930  Biso   1.000  H
  H195     1.0000 0.71510  0.04090  0.42700  Biso   1.000  H
  H196     1.0000 0.66380  0.07230  0.43740  Biso   1.000  H
  H197     1.0000 0.60270  0.08180  0.66160  Biso   1.000  H
  H198     1.0000 0.57080  0.19050  0.59760  Biso   1.000  H
  H199     1.0000 0.53980  0.20910  0.64660  Biso   1.000  H
  H200     1.0000 0.51060  0.18000  0.60190  Biso   1.000  H
  H201     1.0000 0.52200  0.07870  0.68870  Biso   1.000  H
  H202     1.0000 0.48200  0.10440  0.65060  Biso   1.000  H
  H203     1.0000 0.49930  0.13370  0.70090  Biso   1.000  H
  H204     1.0000 0.06840  0.11920  0.32360  Biso   1.000  H
  H205     1.0000 0.06010  0.04030  0.29870  Biso   1.000  H
  H206     1.0000 0.11430  0.01700  0.28290  Biso   1.000  H
  H207     1.0000 0.08610  0.99770  0.33320  Biso   1.000  H
  H208     1.0000 0.17680  0.08090  0.38790  Biso   1.000  H
  H209     1.0000 0.16800  0.02190  0.37780  Biso   1.000  H
  H210     1.0000 0.19410  0.05640  0.33510  Biso   1.000  H
  H211     1.0000 0.03430  0.21680  0.43560  Biso   1.000  H
  H212     1.0000 0.06810  0.18790  0.55540  Biso   1.000  H
  H213     1.0000 0.04510  0.24400  0.55550  Biso   1.000  H
  H214     1.0000 0.01780  0.20050  0.52310  Biso   1.000  H
  H215     1.0000 0.15400  0.25240  0.47960  Biso   1.000  H
  H216     1.0000 0.12250  0.28450  0.52050  Biso   1.000  H
  H217     1.0000 0.14510  0.23020  0.53540  Biso   1.000  H
  H218     1.0000 0.17890  0.27090  0.27130  Biso   1.000  H
  H219     1.0000 0.21950  0.30190  0.38980  Biso   1.000  H
  H220     1.0000 0.27350  0.32340  0.37070  Biso   1.000  H
  H221     1.0000 0.22480  0.36000  0.37380  Biso   1.000  H
  H222     1.0000 0.23130  0.33070  0.24240  Biso   1.000  H
  H223     1.0000 0.25090  0.37330  0.28090  Biso   1.000  H
  H224     1.0000 0.28430  0.32330  0.27200  Biso   1.000  H
  H225     1.0000 0.90040  0.36790  0.21340  Biso   1.000  H
  H226     1.0000 0.95610  0.35040  0.07100  Biso   1.000  H
  H227     1.0000 0.82560  0.43130  0.09450  Biso   1.000  H
  H228     1.0000 0.91760  0.33980  0.98320  Biso   1.000  H
  H229     1.0000 0.96350  0.34770  0.89490  Biso   1.000  H
  H230     1.0000 0.90310  0.33860  0.75360  Biso   1.000  H
  H231     1.0000 0.82850  0.41680  0.86320  Biso   1.000  H
  H232     1.0000 0.84180  0.61140  0.26400  Biso   1.000  H
  H233     1.0000 0.91020  0.68300  0.38160  Biso   1.000  H
  H234     1.0000 0.83360  0.55160  0.40480  Biso   1.000  H
  H235     1.0000 0.83800  0.57740  0.49580  Biso   1.000  H
  H236     1.0000 0.85150  0.53620  0.58080  Biso   1.000  H
  H237     1.0000 0.86450  0.58390  0.72620  Biso   1.000  H
  H238     1.0000 0.92360  0.66890  0.61230  Biso   1.000  H
  H239     1.0000 0.76410  0.32660  0.22080  Biso   1.000  H
  H240     1.0000 0.81680  0.26490  0.25540  Biso   1.000  H
  H241     1.0000 0.83020  0.21830  0.21900  Biso   1.000  H
  H242     1.0000 0.86940  0.26460  0.22420  Biso   1.000  H
  H243     1.0000 0.85450  0.28700  0.12180  Biso   1.000  H
  H244     1.0000 0.83670  0.23010  0.13240  Biso   1.000  H
  H245     1.0000 0.79760  0.26960  0.10750  Biso   1.000  H
  H246     1.0000 0.68110  0.44570  0.04960  Biso   1.000  H
  H247     1.0000 0.76090  0.35560  0.99560  Biso   1.000  H
  H248     1.0000 0.73890  0.36540  0.93980  Biso   1.000  H
  H249     1.0000 0.78560  0.39870  0.96060  Biso   1.000  H
  H250     1.0000 0.67550  0.47800  0.96930  Biso   1.000  H
  H251     1.0000 0.71510  0.45910  0.92700  Biso   1.000  H
  H252     1.0000 0.66380  0.42770  0.93740  Biso   1.000  H
  H253     1.0000 0.60270  0.41820  0.16160  Biso   1.000  H
  H254     1.0000 0.57080  0.30950  0.09760  Biso   1.000  H
  H255     1.0000 0.53980  0.29090  0.14660  Biso   1.000  H
  H256     1.0000 0.51060  0.32000  0.10190  Biso   1.000  H
  H257     1.0000 0.52200  0.42130  0.18870  Biso   1.000  H
  H258     1.0000 0.48200  0.39560  0.15060  Biso   1.000  H
  H259     1.0000 0.49930  0.36630  0.20090  Biso   1.000  H
  H260     1.0000 0.06840  0.38080  0.82360  Biso   1.000  H
  H261     1.0000 0.06010  0.45970  0.79870  Biso   1.000  H
  H262     1.0000 0.11430  0.48300  0.78290  Biso   1.000  H
  H263     1.0000 0.08610  0.50230  0.83320  Biso   1.000  H
  H264     1.0000 0.17680  0.41910  0.88790  Biso   1.000  H
  H265     1.0000 0.16800  0.47810  0.87780  Biso   1.000  H
  H266     1.0000 0.19410  0.44360  0.83510  Biso   1.000  H
  H267     1.0000 0.03430  0.28320  0.93560  Biso   1.000  H
  H268     1.0000 0.06810  0.31210  0.05540  Biso   1.000  H
  H269     1.0000 0.04510  0.25600  0.05550  Biso   1.000  H
  H270     1.0000 0.01780  0.29950  0.02310  Biso   1.000  H
  H271     1.0000 0.15400  0.24760  0.97960  Biso   1.000  H
  H272     1.0000 0.12250  0.21550  0.02050  Biso   1.000  H
  H273     1.0000 0.14510  0.26980  0.03540  Biso   1.000  H
  H274     1.0000 0.17890  0.22910  0.77130  Biso   1.000  H
  H275     1.0000 0.21950  0.19810  0.88980  Biso   1.000  H
  H276     1.0000 0.27350  0.17660  0.87070  Biso   1.000  H
  H277     1.0000 0.22480  0.14000  0.87380  Biso   1.000  H
  H278     1.0000 0.23130  0.16930  0.74240  Biso   1.000  H
  H279     1.0000 0.25090  0.12670  0.78090  Biso   1.000  H
  H280     1.0000 0.28430  0.17670  0.77200  Biso   1.000  H
  H281     1.0000 0.59960  0.13210  0.21340  Biso   1.000  H
  H282     1.0000 0.54390  0.14960  0.07100  Biso   1.000  H
  H283     1.0000 0.67440  0.06870  0.09450  Biso   1.000  H
  H284     1.0000 0.58240  0.16020  0.98320  Biso   1.000  H
  H285     1.0000 0.53650  0.15230  0.89490  Biso   1.000  H
  H286     1.0000 0.59690  0.16140  0.75360  Biso   1.000  H
  H287     1.0000 0.67150  0.08320  0.86320  Biso   1.000  H
  H288     1.0000 0.65820  0.88860  0.26400  Biso   1.000  H
  H289     1.0000 0.58980  0.81700  0.38160  Biso   1.000  H
  H290     1.0000 0.66640  0.94840  0.40480  Biso   1.000  H
  H291     1.0000 0.66200  0.92260  0.49580  Biso   1.000  H
  H292     1.0000 0.64850  0.96380  0.58080  Biso   1.000  H
  H293     1.0000 0.63550  0.91610  0.72620  Biso   1.000  H
  H294     1.0000 0.57640  0.83110  0.61230  Biso   1.000  H
  H295     1.0000 0.73590  0.17340  0.22080  Biso   1.000  H
  H296     1.0000 0.68320  0.23510  0.25540  Biso   1.000  H
  H297     1.0000 0.66980  0.28170  0.21900  Biso   1.000  H
  H298     1.0000 0.63060  0.23540  0.22420  Biso   1.000  H
  H299     1.0000 0.64550  0.21300  0.12180  Biso   1.000  H
  H300     1.0000 0.66330  0.26990  0.13240  Biso   1.000  H
  H301     1.0000 0.70240  0.23040  0.10750  Biso   1.000  H
  H302     1.0000 0.81890  0.05430  0.04960  Biso   1.000  H
  H303     1.0000 0.73910  0.14440  0.99560  Biso   1.000  H
  H304     1.0000 0.76110  0.13460  0.93980  Biso   1.000  H
  H305     1.0000 0.71440  0.10130  0.96060  Biso   1.000  H
  H306     1.0000 0.82450  0.02200  0.96930  Biso   1.000  H
  H307     1.0000 0.78490  0.04090  0.92700  Biso   1.000  H
  H308     1.0000 0.83620  0.07230  0.93740  Biso   1.000  H
  H309     1.0000 0.89730  0.08180  0.16160  Biso   1.000  H
  H310     1.0000 0.92920  0.19050  0.09760  Biso   1.000  H
  H311     1.0000 0.96020  0.20910  0.14660  Biso   1.000  H
  H312     1.0000 0.98940  0.18000  0.10190  Biso   1.000  H
  H313     1.0000 0.97800  0.07870  0.18870  Biso   1.000  H
  H314     1.0000 0.01800  0.10440  0.15060  Biso   1.000  H
  H315     1.0000 0.00070  0.13370  0.20090  Biso   1.000  H
  H316     1.0000 0.43160  0.11920  0.82360  Biso   1.000  H
  H317     1.0000 0.43990  0.04030  0.79870  Biso   1.000  H
  H318     1.0000 0.38570  0.01700  0.78290  Biso   1.000  H
  H319     1.0000 0.41390  0.99770  0.83320  Biso   1.000  H
  H320     1.0000 0.32320  0.08090  0.88790  Biso   1.000  H
  H321     1.0000 0.33200  0.02190  0.87780  Biso   1.000  H
  H322     1.0000 0.30590  0.05640  0.83510  Biso   1.000  H
  H323     1.0000 0.46570  0.21680  0.93560  Biso   1.000  H
  H324     1.0000 0.43190  0.18790  0.05540  Biso   1.000  H
  H325     1.0000 0.45490  0.24400  0.05550  Biso   1.000  H
  H326     1.0000 0.48220  0.20050  0.02310  Biso   1.000  H
  H327     1.0000 0.34600  0.25240  0.97960  Biso   1.000  H
  H328     1.0000 0.37750  0.28450  0.02050  Biso   1.000  H
  H329     1.0000 0.35490  0.23020  0.03540  Biso   1.000  H
  H330     1.0000 0.32110  0.27090  0.77130  Biso   1.000  H
  H331     1.0000 0.28050  0.30190  0.88980  Biso   1.000  H
  H332     1.0000 0.22650  0.32340  0.87070  Biso   1.000  H
  H333     1.0000 0.27520  0.36000  0.87380  Biso   1.000  H
  H334     1.0000 0.26870  0.33070  0.74240  Biso   1.000  H
  H335     1.0000 0.24910  0.37330  0.78090  Biso   1.000  H
  H336     1.0000 0.21570  0.32330  0.77200  Biso   1.000  H
  H337     1.0000 0.40040  0.63210  0.28660  Biso   1.000  H
  H338     1.0000 0.45610  0.64960  0.42900  Biso   1.000  H
  H339     1.0000 0.32560  0.56870  0.40550  Biso   1.000  H
  H340     1.0000 0.41760  0.66020  0.51680  Biso   1.000  H
  H341     1.0000 0.46350  0.65230  0.60510  Biso   1.000  H
  H342     1.0000 0.40310  0.66140  0.74640  Biso   1.000  H
  H343     1.0000 0.32850  0.58320  0.63680  Biso   1.000  H
  H344     1.0000 0.34180  0.38860  0.23600  Biso   1.000  H
  H345     1.0000 0.41020  0.31700  0.11840  Biso   1.000  H
  H346     1.0000 0.33360  0.44840  0.09520  Biso   1.000  H
  H347     1.0000 0.33800  0.42260  0.00420  Biso   1.000  H
  H348     1.0000 0.35150  0.46380  0.91920  Biso   1.000  H
  H349     1.0000 0.36450  0.41610  0.77380  Biso   1.000  H
  H350     1.0000 0.42360  0.33110  0.88770  Biso   1.000  H
  H351     1.0000 0.26410  0.67340  0.27920  Biso   1.000  H
  H352     1.0000 0.31680  0.73510  0.24460  Biso   1.000  H
  H353     1.0000 0.33020  0.78170  0.28100  Biso   1.000  H
  H354     1.0000 0.36940  0.73540  0.27580  Biso   1.000  H
  H355     1.0000 0.35450  0.71300  0.37820  Biso   1.000  H
  H356     1.0000 0.33670  0.76990  0.36760  Biso   1.000  H
  H357     1.0000 0.29760  0.73040  0.39250  Biso   1.000  H
  H358     1.0000 0.18110  0.55430  0.45040  Biso   1.000  H
  H359     1.0000 0.26090  0.64440  0.50440  Biso   1.000  H
  H360     1.0000 0.23890  0.63460  0.56020  Biso   1.000  H
  H361     1.0000 0.28560  0.60130  0.53940  Biso   1.000  H
  H362     1.0000 0.17550  0.52200  0.53070  Biso   1.000  H
  H363     1.0000 0.21510  0.54090  0.57300  Biso   1.000  H
  H364     1.0000 0.16380  0.57230  0.56260  Biso   1.000  H
  H365     1.0000 0.10270  0.58180  0.33840  Biso   1.000  H
  H366     1.0000 0.07080  0.69050  0.40240  Biso   1.000  H
  H367     1.0000 0.03980  0.70910  0.35340  Biso   1.000  H
  H368     1.0000 0.01060  0.68000  0.39810  Biso   1.000  H
  H369     1.0000 0.02200  0.57870  0.31130  Biso   1.000  H
  H370     1.0000 0.98200  0.60440  0.34940  Biso   1.000  H
  H371     1.0000 0.99930  0.63370  0.29910  Biso   1.000  H
  H372     1.0000 0.56840  0.61920  0.67640  Biso   1.000  H
  H373     1.0000 0.56010  0.54030  0.70130  Biso   1.000  H
  H374     1.0000 0.61430  0.51700  0.71710  Biso   1.000  H
  H375     1.0000 0.58610  0.49770  0.66680  Biso   1.000  H
  H376     1.0000 0.67680  0.58090  0.61210  Biso   1.000  H
  H377     1.0000 0.66800  0.52190  0.62220  Biso   1.000  H
  H378     1.0000 0.69410  0.55640  0.66490  Biso   1.000  H
  H379     1.0000 0.53430  0.71680  0.56440  Biso   1.000  H
  H380     1.0000 0.56810  0.68790  0.44460  Biso   1.000  H
  H381     1.0000 0.54510  0.74400  0.44450  Biso   1.000  H
  H382     1.0000 0.51780  0.70050  0.47690  Biso   1.000  H
  H383     1.0000 0.65400  0.75240  0.52040  Biso   1.000  H
  H384     1.0000 0.62250  0.78450  0.47950  Biso   1.000  H
  H385     1.0000 0.64510  0.73020  0.46460  Biso   1.000  H
  H386     1.0000 0.67890  0.77090  0.72870  Biso   1.000  H
  H387     1.0000 0.71950  0.80190  0.61020  Biso   1.000  H
  H388     1.0000 0.77350  0.82340  0.62930  Biso   1.000  H
  H389     1.0000 0.72480  0.86000  0.62620  Biso   1.000  H
  H390     1.0000 0.73130  0.83070  0.75760  Biso   1.000  H
  H391     1.0000 0.75090  0.87330  0.71910  Biso   1.000  H
  H392     1.0000 0.78430  0.82330  0.72800  Biso   1.000  H
  H393     1.0000 0.09960  0.86790  0.28660  Biso   1.000  H
  H394     1.0000 0.04390  0.85040  0.42900  Biso   1.000  H
  H395     1.0000 0.17440  0.93130  0.40550  Biso   1.000  H
  H396     1.0000 0.08240  0.83980  0.51680  Biso   1.000  H
  H397     1.0000 0.03650  0.84770  0.60510  Biso   1.000  H
  H398     1.0000 0.09690  0.83860  0.74640  Biso   1.000  H
  H399     1.0000 0.17150  0.91680  0.63680  Biso   1.000  H
  H400     1.0000 0.15820  0.11140  0.23600  Biso   1.000  H
  H401     1.0000 0.08980  0.18300  0.11840  Biso   1.000  H
  H402     1.0000 0.16640  0.05160  0.09520  Biso   1.000  H
  H403     1.0000 0.16200  0.07740  0.00420  Biso   1.000  H
  H404     1.0000 0.14850  0.03620  0.91920  Biso   1.000  H
  H405     1.0000 0.13550  0.08390  0.77380  Biso   1.000  H
  H406     1.0000 0.07640  0.16890  0.88770  Biso   1.000  H
  H407     1.0000 0.23590  0.82660  0.27920  Biso   1.000  H
  H408     1.0000 0.18320  0.76490  0.24460  Biso   1.000  H
  H409     1.0000 0.16980  0.71830  0.28100  Biso   1.000  H
  H410     1.0000 0.13060  0.76460  0.27580  Biso   1.000  H
  H411     1.0000 0.14550  0.78700  0.37820  Biso   1.000  H
  H412     1.0000 0.16330  0.73010  0.36760  Biso   1.000  H
  H413     1.0000 0.20240  0.76960  0.39250  Biso   1.000  H
  H414     1.0000 0.31890  0.94570  0.45040  Biso   1.000  H
  H415     1.0000 0.23910  0.85560  0.50440  Biso   1.000  H
  H416     1.0000 0.26110  0.86540  0.56020  Biso   1.000  H
  H417     1.0000 0.21440  0.89870  0.53940  Biso   1.000  H
  H418     1.0000 0.32450  0.97800  0.53070  Biso   1.000  H
  H419     1.0000 0.28490  0.95910  0.57300  Biso   1.000  H
  H420     1.0000 0.33620  0.92770  0.56260  Biso   1.000  H
  H421     1.0000 0.39730  0.91820  0.33840  Biso   1.000  H
  H422     1.0000 0.42920  0.80950  0.40240  Biso   1.000  H
  H423     1.0000 0.46020  0.79090  0.35340  Biso   1.000  H
  H424     1.0000 0.48940  0.82000  0.39810  Biso   1.000  H
  H425     1.0000 0.47800  0.92130  0.31130  Biso   1.000  H
  H426     1.0000 0.51800  0.89560  0.34940  Biso   1.000  H
  H427     1.0000 0.50070  0.86630  0.29910  Biso   1.000  H
  H428     1.0000 0.93160  0.88080  0.67640  Biso   1.000  H
  H429     1.0000 0.93990  0.95970  0.70130  Biso   1.000  H
  H430     1.0000 0.88570  0.98300  0.71710  Biso   1.000  H
  H431     1.0000 0.91390  0.00230  0.66680  Biso   1.000  H
  H432     1.0000 0.82320  0.91910  0.61210  Biso   1.000  H
  H433     1.0000 0.83200  0.97810  0.62220  Biso   1.000  H
  H434     1.0000 0.80590  0.94360  0.66490  Biso   1.000  H
  H435     1.0000 0.96570  0.78320  0.56440  Biso   1.000  H
  H436     1.0000 0.93190  0.81210  0.44460  Biso   1.000  H
  H437     1.0000 0.95490  0.75600  0.44450  Biso   1.000  H
  H438     1.0000 0.98220  0.79950  0.47690  Biso   1.000  H
  H439     1.0000 0.84600  0.74760  0.52040  Biso   1.000  H
  H440     1.0000 0.87750  0.71550  0.47950  Biso   1.000  H
  H441     1.0000 0.85490  0.76980  0.46460  Biso   1.000  H
  H442     1.0000 0.82110  0.72910  0.72870  Biso   1.000  H
  H443     1.0000 0.78050  0.69810  0.61020  Biso   1.000  H
  H444     1.0000 0.72650  0.67660  0.62930  Biso   1.000  H
  H445     1.0000 0.77520  0.64000  0.62620  Biso   1.000  H
  H446     1.0000 0.76870  0.66930  0.75760  Biso   1.000  H
  H447     1.0000 0.74910  0.62670  0.71910  Biso   1.000  H
  H448     1.0000 0.71570  0.67670  0.72800  Biso   1.000  H
  C1       1.0000 0.18107  0.57659  0.80430  Biso   1.000  C
  C2       1.0000 0.14274  0.59789  0.84103  Biso   1.000  C
  C3       1.0000 0.10231  0.62646  0.82211  Biso   1.000  C
  C4       1.0000 0.06594  0.64684  0.85446  Biso   1.000  C
  C5       1.0000 0.02391  0.67946  0.83475  Biso   1.000  C
  C6       1.0000 0.06902  0.63667  0.90644  Biso   1.000  C
  C7       1.0000 0.10916  0.60760  0.92470  Biso   1.000  C
  C8       1.0000 0.14681  0.58811  0.89249  Biso   1.000  C
  C9       1.0000 0.09780  0.62772  0.01841  Biso   1.000  C
  C10      1.0000 0.10998  0.60107  0.06042  Biso   1.000  C
  C11      1.0000 0.10521  0.61639  0.11279  Biso   1.000  C
  C12      1.0000 0.06326  0.64467  0.12831  Biso   1.000  C
  C13      1.0000 0.06075  0.66175  0.17815  Biso   1.000  C
  C14      1.0000 0.01514  0.69223  0.19411  Biso   1.000  C
  C15      1.0000 0.09872  0.64942  0.21246  Biso   1.000  C
  C16      1.0000 0.13991  0.61929  0.19700  Biso   1.000  C
  C17      1.0000 0.18094  0.60317  0.23369  Biso   1.000  C
  C18      1.0000 0.14329  0.60324  0.14738  Biso   1.000  C
  C19      1.0000 0.19903  0.46747  0.68842  Biso   1.000  C
  C20      1.0000 0.16753  0.42398  0.66832  Biso   1.000  C
  C21      1.0000 0.15057  0.38657  0.70081  Biso   1.000  C
  C22      1.0000 0.12243  0.34603  0.68243  Biso   1.000  C
  C23      1.0000 0.10205  0.30606  0.71698  Biso   1.000  C
  C24      1.0000 0.10939  0.34442  0.63133  Biso   1.000  C
  C25      1.0000 0.12518  0.38328  0.59907  Biso   1.000  C
  C26      1.0000 0.15481  0.42254  0.61742  Biso   1.000  C
  C27      1.0000 0.10991  0.38146  0.54634  Biso   1.000  C
  C28      1.0000 0.13231  0.40194  0.50497  Biso   1.000  C
  C29      1.0000 0.11199  0.39604  0.41182  Biso   1.000  C
  C30      1.0000 0.13716  0.43933  0.39534  Biso   1.000  C
  C31      1.0000 0.14570  0.44661  0.34380  Biso   1.000  C
  C32      1.0000 0.17445  0.49274  0.32624  Biso   1.000  C
  C33      1.0000 0.12880  0.41137  0.30889  Biso   1.000  C
  C34      1.0000 0.10160  0.36842  0.32524  Biso   1.000  C
  C35      1.0000 0.08192  0.33228  0.28703  Biso   1.000  C
  C36      1.0000 0.09393  0.36053  0.37642  Biso   1.000  C
  C37      1.0000 0.22670  0.68410  0.81240  Biso   1.000  C
  C38      1.0000 0.16690  0.74500  0.77660  Biso   1.000  C
  C39      1.0000 0.17430  0.73450  0.86810  Biso   1.000  C
  C40      1.0000 0.29060  0.57480  0.95980  Biso   1.000  C
  C41      1.0000 0.24630  0.61850  0.03010  Biso   1.000  C
  C42      1.0000 0.30920  0.55180  0.04690  Biso   1.000  C
  C43      1.0000 0.40060  0.61340  0.85510  Biso   1.000  C
  C44      1.0000 0.45730  0.68240  0.87910  Biso   1.000  C
  C45      1.0000 0.48940  0.61080  0.82620  Biso   1.000  C
  C46      1.0000 0.90010  0.61360  0.15920  Biso   1.000  C
  C47      1.0000 0.90740  0.52710  0.18850  Biso   1.000  C
  C48      1.0000 0.83160  0.55550  0.13780  Biso   1.000  C
  C49      1.0000 0.93200  0.72790  0.05640  Biso   1.000  C
  C50      1.0000 0.94920  0.71370  0.96510  Biso   1.000  C
  C51      1.0000 0.87010  0.75030  0.99190  Biso   1.000  C
  C52      1.0000 0.81330  0.77860  0.19440  Biso   1.000  C
  C53      1.0000 0.76380  0.82550  0.13360  Biso   1.000  C
  C54      1.0000 0.75060  0.83690  0.22570  Biso   1.000  C
  C55      1.0000 0.31893  0.92341  0.80430  Biso   1.000  C
  C56      1.0000 0.35726  0.90211  0.84103  Biso   1.000  C
  C57      1.0000 0.39769  0.87354  0.82211  Biso   1.000  C
  C58      1.0000 0.43406  0.85316  0.85446  Biso   1.000  C
  C59      1.0000 0.47609  0.82054  0.83475  Biso   1.000  C
  C60      1.0000 0.43098  0.86333  0.90644  Biso   1.000  C
  C61      1.0000 0.39084  0.89240  0.92470  Biso   1.000  C
  C62      1.0000 0.35319  0.91189  0.89249  Biso   1.000  C
  C63      1.0000 0.40220  0.87228  0.01841  Biso   1.000  C
  C64      1.0000 0.39002  0.89893  0.06042  Biso   1.000  C
  C65      1.0000 0.39479  0.88361  0.11279  Biso   1.000  C
  C66      1.0000 0.43674  0.85533  0.12831  Biso   1.000  C
  C67      1.0000 0.43925  0.83825  0.17815  Biso   1.000  C
  C68      1.0000 0.48486  0.80777  0.19411  Biso   1.000  C
  C69      1.0000 0.40128  0.85058  0.21246  Biso   1.000  C
  C70      1.0000 0.36009  0.88071  0.19700  Biso   1.000  C
  C71      1.0000 0.31906  0.89683  0.23369  Biso   1.000  C
  C72      1.0000 0.35671  0.89676  0.14738  Biso   1.000  C
  C73      1.0000 0.30097  0.03253  0.68842  Biso   1.000  C
  C74      1.0000 0.33247  0.07602  0.66832  Biso   1.000  C
  C75      1.0000 0.34943  0.11343  0.70081  Biso   1.000  C
  C76      1.0000 0.37757  0.15397  0.68243  Biso   1.000  C
  C77      1.0000 0.39795  0.19394  0.71698  Biso   1.000  C
  C78      1.0000 0.39061  0.15558  0.63133  Biso   1.000  C
  C79      1.0000 0.37482  0.11672  0.59907  Biso   1.000  C
  C80      1.0000 0.34519  0.07746  0.61742  Biso   1.000  C
  C81      1.0000 0.39009  0.11854  0.54634  Biso   1.000  C
  C82      1.0000 0.36769  0.09806  0.50497  Biso   1.000  C
  C83      1.0000 0.38801  0.10396  0.41182  Biso   1.000  C
  C84      1.0000 0.36284  0.06067  0.39534  Biso   1.000  C
  C85      1.0000 0.35430  0.05339  0.34380  Biso   1.000  C
  C86      1.0000 0.32555  0.00726  0.32624  Biso   1.000  C
  C87      1.0000 0.37120  0.08863  0.30889  Biso   1.000  C
  C88      1.0000 0.39840  0.13158  0.32524  Biso   1.000  C
  C89      1.0000 0.41808  0.16772  0.28703  Biso   1.000  C
  C90      1.0000 0.40607  0.13947  0.37642  Biso   1.000  C
  C91      1.0000 0.27330  0.81590  0.81240  Biso   1.000  C
  C92      1.0000 0.33310  0.75500  0.77660  Biso   1.000  C
  C93      1.0000 0.32570  0.76550  0.86810  Biso   1.000  C
  C94      1.0000 0.20940  0.92520  0.95980  Biso   1.000  C
  C95      1.0000 0.25370  0.88150  0.03010  Biso   1.000  C
  C96      1.0000 0.19080  0.94820  0.04690  Biso   1.000  C
  C97      1.0000 0.09940  0.88660  0.85510  Biso   1.000  C
  C98      1.0000 0.04270  0.81760  0.87910  Biso   1.000  C
  C99      1.0000 0.01060  0.88920  0.82620  Biso   1.000  C
  C100     1.0000 0.59990  0.88640  0.15920  Biso   1.000  C
  C101     1.0000 0.59260  0.97290  0.18850  Biso   1.000  C
  C102     1.0000 0.66840  0.94450  0.13780  Biso   1.000  C
  C103     1.0000 0.56800  0.77210  0.05640  Biso   1.000  C
  C104     1.0000 0.55080  0.78630  0.96510  Biso   1.000  C
  C105     1.0000 0.62990  0.74970  0.99190  Biso   1.000  C
  C106     1.0000 0.68670  0.72140  0.19440  Biso   1.000  C
  C107     1.0000 0.73620  0.67450  0.13360  Biso   1.000  C
  C108     1.0000 0.74940  0.66310  0.22570  Biso   1.000  C
  C109     1.0000 0.68107  0.42341  0.69570  Biso   1.000  C
  C110     1.0000 0.64274  0.40211  0.65897  Biso   1.000  C
  C111     1.0000 0.60231  0.37354  0.67789  Biso   1.000  C
  C112     1.0000 0.56594  0.35316  0.64554  Biso   1.000  C
  C113     1.0000 0.52391  0.32054  0.66525  Biso   1.000  C
  C114     1.0000 0.56902  0.36333  0.59356  Biso   1.000  C
  C115     1.0000 0.60916  0.39240  0.57530  Biso   1.000  C
  C116     1.0000 0.64681  0.41189  0.60751  Biso   1.000  C
  C117     1.0000 0.59780  0.37228  0.48159  Biso   1.000  C
  C118     1.0000 0.60998  0.39893  0.43958  Biso   1.000  C
  C119     1.0000 0.60521  0.38361  0.38721  Biso   1.000  C
  C120     1.0000 0.56326  0.35533  0.37169  Biso   1.000  C
  C121     1.0000 0.56075  0.33825  0.32185  Biso   1.000  C
  C122     1.0000 0.51514  0.30777  0.30589  Biso   1.000  C
  C123     1.0000 0.59872  0.35058  0.28754  Biso   1.000  C
  C124     1.0000 0.63991  0.38071  0.30300  Biso   1.000  C
  C125     1.0000 0.68094  0.39683  0.26631  Biso   1.000  C
  C126     1.0000 0.64329  0.39676  0.35262  Biso   1.000  C
  C127     1.0000 0.69903  0.53253  0.81158  Biso   1.000  C
  C128     1.0000 0.66753  0.57602  0.83168  Biso   1.000  C
  C129     1.0000 0.65057  0.61343  0.79919  Biso   1.000  C
  C130     1.0000 0.62243  0.65397  0.81757  Biso   1.000  C
  C131     1.0000 0.60205  0.69394  0.78302  Biso   1.000  C
  C132     1.0000 0.60939  0.65558  0.86867  Biso   1.000  C
  C133     1.0000 0.62518  0.61672  0.90093  Biso   1.000  C
  C134     1.0000 0.65481  0.57746  0.88258  Biso   1.000  C
  C135     1.0000 0.60991  0.61854  0.95366  Biso   1.000  C
  C136     1.0000 0.63231  0.59806  0.99503  Biso   1.000  C
  C137     1.0000 0.61199  0.60396  0.08818  Biso   1.000  C
  C138     1.0000 0.63716  0.56067  0.10466  Biso   1.000  C
  C139     1.0000 0.64570  0.55339  0.15620  Biso   1.000  C
  C140     1.0000 0.67445  0.50726  0.17376  Biso   1.000  C
  C141     1.0000 0.62880  0.58863  0.19111  Biso   1.000  C
  C142     1.0000 0.60160  0.63158  0.17476  Biso   1.000  C
  C143     1.0000 0.58192  0.66772  0.21297  Biso   1.000  C
  C144     1.0000 0.59393  0.63947  0.12358  Biso   1.000  C
  C145     1.0000 0.72670  0.31590  0.68760  Biso   1.000  C
  C146     1.0000 0.66690  0.25500  0.72340  Biso   1.000  C
  C147     1.0000 0.67430  0.26550  0.63190  Biso   1.000  C
  C148     1.0000 0.79060  0.42520  0.54020  Biso   1.000  C
  C149     1.0000 0.74630  0.38150  0.46990  Biso   1.000  C
  C150     1.0000 0.80920  0.44820  0.45310  Biso   1.000  C
  C151     1.0000 0.90060  0.38660  0.64490  Biso   1.000  C
  C152     1.0000 0.95730  0.31760  0.62090  Biso   1.000  C
  C153     1.0000 0.98940  0.38920  0.67380  Biso   1.000  C
  C154     1.0000 0.40010  0.38640  0.34080  Biso   1.000  C
  C155     1.0000 0.40740  0.47290  0.31150  Biso   1.000  C
  C156     1.0000 0.33160  0.44450  0.36220  Biso   1.000  C
  C157     1.0000 0.43200  0.27210  0.44360  Biso   1.000  C
  C158     1.0000 0.44920  0.28630  0.53490  Biso   1.000  C
  C159     1.0000 0.37010  0.24970  0.50810  Biso   1.000  C
  C160     1.0000 0.31330  0.22140  0.30560  Biso   1.000  C
  C161     1.0000 0.26380  0.17450  0.36640  Biso   1.000  C
  C162     1.0000 0.25060  0.16310  0.27430  Biso   1.000  C
  C163     1.0000 0.81893  0.07659  0.69570  Biso   1.000  C
  C164     1.0000 0.85726  0.09789  0.65897  Biso   1.000  C
  C165     1.0000 0.89769  0.12646  0.67789  Biso   1.000  C
  C166     1.0000 0.93406  0.14684  0.64554  Biso   1.000  C
  C167     1.0000 0.97609  0.17946  0.66525  Biso   1.000  C
  C168     1.0000 0.93098  0.13667  0.59356  Biso   1.000  C
  C169     1.0000 0.89084  0.10760  0.57530  Biso   1.000  C
  C170     1.0000 0.85319  0.08811  0.60751  Biso   1.000  C
  C171     1.0000 0.90220  0.12772  0.48159  Biso   1.000  C
  C172     1.0000 0.89002  0.10107  0.43958  Biso   1.000  C
  C173     1.0000 0.89479  0.11639  0.38721  Biso   1.000  C
  C174     1.0000 0.93674  0.14467  0.37169  Biso   1.000  C
  C175     1.0000 0.93925  0.16175  0.32185  Biso   1.000  C
  C176     1.0000 0.98486  0.19223  0.30589  Biso   1.000  C
  C177     1.0000 0.90128  0.14942  0.28754  Biso   1.000  C
  C178     1.0000 0.86009  0.11929  0.30300  Biso   1.000  C
  C179     1.0000 0.81906  0.10317  0.26631  Biso   1.000  C
  C180     1.0000 0.85671  0.10324  0.35262  Biso   1.000  C
  C181     1.0000 0.80097  0.96747  0.81158  Biso   1.000  C
  C182     1.0000 0.83247  0.92398  0.83168  Biso   1.000  C
  C183     1.0000 0.84943  0.88657  0.79919  Biso   1.000  C
  C184     1.0000 0.87757  0.84603  0.81757  Biso   1.000  C
  C185     1.0000 0.89795  0.80606  0.78302  Biso   1.000  C
  C186     1.0000 0.89061  0.84442  0.86867  Biso   1.000  C
  C187     1.0000 0.87482  0.88328  0.90093  Biso   1.000  C
  C188     1.0000 0.84519  0.92254  0.88258  Biso   1.000  C
  C189     1.0000 0.89009  0.88146  0.95366  Biso   1.000  C
  C190     1.0000 0.86769  0.90194  0.99503  Biso   1.000  C
  C191     1.0000 0.88801  0.89604  0.08818  Biso   1.000  C
  C192     1.0000 0.86284  0.93933  0.10466  Biso   1.000  C
  C193     1.0000 0.85430  0.94661  0.15620  Biso   1.000  C
  C194     1.0000 0.82555  0.99274  0.17376  Biso   1.000  C
  C195     1.0000 0.87120  0.91137  0.19111  Biso   1.000  C
  C196     1.0000 0.89840  0.86842  0.17476  Biso   1.000  C
  C197     1.0000 0.91808  0.83228  0.21297  Biso   1.000  C
  C198     1.0000 0.90607  0.86053  0.12358  Biso   1.000  C
  C199     1.0000 0.77330  0.18410  0.68760  Biso   1.000  C
  C200     1.0000 0.83310  0.24500  0.72340  Biso   1.000  C
  C201     1.0000 0.82570  0.23450  0.63190  Biso   1.000  C
  C202     1.0000 0.70940  0.07480  0.54020  Biso   1.000  C
  C203     1.0000 0.75370  0.11850  0.46990  Biso   1.000  C
  C204     1.0000 0.69080  0.05180  0.45310  Biso   1.000  C
  C205     1.0000 0.59940  0.11340  0.64490  Biso   1.000  C
  C206     1.0000 0.54270  0.18240  0.62090  Biso   1.000  C
  C207     1.0000 0.51060  0.11080  0.67380  Biso   1.000  C
  C208     1.0000 0.09990  0.11360  0.34080  Biso   1.000  C
  C209     1.0000 0.09260  0.02710  0.31150  Biso   1.000  C
  C210     1.0000 0.16840  0.05550  0.36220  Biso   1.000  C
  C211     1.0000 0.06800  0.22790  0.44360  Biso   1.000  C
  C212     1.0000 0.05080  0.21370  0.53490  Biso   1.000  C
  C213     1.0000 0.12990  0.25030  0.50810  Biso   1.000  C
  C214     1.0000 0.18670  0.27860  0.30560  Biso   1.000  C
  C215     1.0000 0.23620  0.32550  0.36640  Biso   1.000  C
  C216     1.0000 0.24940  0.33690  0.27430  Biso   1.000  C
  C217     1.0000 0.81893  0.42341  0.19570  Biso   1.000  C
  C218     1.0000 0.85726  0.40211  0.15897  Biso   1.000  C
  C219     1.0000 0.89769  0.37354  0.17789  Biso   1.000  C
  C220     1.0000 0.93406  0.35316  0.14554  Biso   1.000  C
  C221     1.0000 0.97609  0.32054  0.16525  Biso   1.000  C
  C222     1.0000 0.93098  0.36333  0.09356  Biso   1.000  C
  C223     1.0000 0.89084  0.39240  0.07530  Biso   1.000  C
  C224     1.0000 0.85319  0.41189  0.10751  Biso   1.000  C
  C225     1.0000 0.90220  0.37228  0.98159  Biso   1.000  C
  C226     1.0000 0.89002  0.39893  0.93958  Biso   1.000  C
  C227     1.0000 0.89479  0.38361  0.88721  Biso   1.000  C
  C228     1.0000 0.93674  0.35533  0.87169  Biso   1.000  C
  C229     1.0000 0.93925  0.33825  0.82185  Biso   1.000  C
  C230     1.0000 0.98486  0.30777  0.80589  Biso   1.000  C
  C231     1.0000 0.90128  0.35058  0.78754  Biso   1.000  C
  C232     1.0000 0.86009  0.38071  0.80300  Biso   1.000  C
  C233     1.0000 0.81906  0.39683  0.76631  Biso   1.000  C
  C234     1.0000 0.85671  0.39676  0.85262  Biso   1.000  C
  C235     1.0000 0.80097  0.53253  0.31158  Biso   1.000  C
  C236     1.0000 0.83247  0.57602  0.33168  Biso   1.000  C
  C237     1.0000 0.84943  0.61343  0.29919  Biso   1.000  C
  C238     1.0000 0.87757  0.65397  0.31757  Biso   1.000  C
  C239     1.0000 0.89795  0.69394  0.28302  Biso   1.000  C
  C240     1.0000 0.89061  0.65558  0.36867  Biso   1.000  C
  C241     1.0000 0.87482  0.61672  0.40093  Biso   1.000  C
  C242     1.0000 0.84519  0.57746  0.38258  Biso   1.000  C
  C243     1.0000 0.89009  0.61854  0.45366  Biso   1.000  C
  C244     1.0000 0.86769  0.59806  0.49503  Biso   1.000  C
  C245     1.0000 0.88801  0.60396  0.58818  Biso   1.000  C
  C246     1.0000 0.86284  0.56067  0.60466  Biso   1.000  C
  C247     1.0000 0.85430  0.55339  0.65620  Biso   1.000  C
  C248     1.0000 0.82555  0.50726  0.67376  Biso   1.000  C
  C249     1.0000 0.87120  0.58863  0.69111  Biso   1.000  C
  C250     1.0000 0.89840  0.63158  0.67476  Biso   1.000  C
  C251     1.0000 0.91808  0.66772  0.71297  Biso   1.000  C
  C252     1.0000 0.90607  0.63947  0.62358  Biso   1.000  C
  C253     1.0000 0.77330  0.31590  0.18760  Biso   1.000  C
  C254     1.0000 0.83310  0.25500  0.22340  Biso   1.000  C
  C255     1.0000 0.82570  0.26550  0.13190  Biso   1.000  C
  C256     1.0000 0.70940  0.42520  0.04020  Biso   1.000  C
  C257     1.0000 0.75370  0.38150  0.96990  Biso   1.000  C
  C258     1.0000 0.69080  0.44820  0.95310  Biso   1.000  C
  C259     1.0000 0.59940  0.38660  0.14490  Biso   1.000  C
  C260     1.0000 0.54270  0.31760  0.12090  Biso   1.000  C
  C261     1.0000 0.51060  0.38920  0.17380  Biso   1.000  C
  C262     1.0000 0.09990  0.38640  0.84080  Biso   1.000  C
  C263     1.0000 0.09260  0.47290  0.81150  Biso   1.000  C
  C264     1.0000 0.16840  0.44450  0.86220  Biso   1.000  C
  C265     1.0000 0.06800  0.27210  0.94360  Biso   1.000  C
  C266     1.0000 0.05080  0.28630  0.03490  Biso   1.000  C
  C267     1.0000 0.12990  0.24970  0.00810  Biso   1.000  C
  C268     1.0000 0.18670  0.22140  0.80560  Biso   1.000  C
  C269     1.0000 0.23620  0.17450  0.86640  Biso   1.000  C
  C270     1.0000 0.24940  0.16310  0.77430  Biso   1.000  C
  C271     1.0000 0.68107  0.07659  0.19570  Biso   1.000  C
  C272     1.0000 0.64274  0.09789  0.15897  Biso   1.000  C
  C273     1.0000 0.60231  0.12646  0.17789  Biso   1.000  C
  C274     1.0000 0.56594  0.14684  0.14554  Biso   1.000  C
  C275     1.0000 0.52391  0.17946  0.16525  Biso   1.000  C
  C276     1.0000 0.56902  0.13667  0.09356  Biso   1.000  C
  C277     1.0000 0.60916  0.10760  0.07530  Biso   1.000  C
  C278     1.0000 0.64681  0.08811  0.10751  Biso   1.000  C
  C279     1.0000 0.59780  0.12772  0.98159  Biso   1.000  C
  C280     1.0000 0.60998  0.10107  0.93958  Biso   1.000  C
  C281     1.0000 0.60521  0.11639  0.88721  Biso   1.000  C
  C282     1.0000 0.56326  0.14467  0.87169  Biso   1.000  C
  C283     1.0000 0.56075  0.16175  0.82185  Biso   1.000  C
  C284     1.0000 0.51514  0.19223  0.80589  Biso   1.000  C
  C285     1.0000 0.59872  0.14942  0.78754  Biso   1.000  C
  C286     1.0000 0.63991  0.11929  0.80300  Biso   1.000  C
  C287     1.0000 0.68094  0.10317  0.76631  Biso   1.000  C
  C288     1.0000 0.64329  0.10324  0.85262  Biso   1.000  C
  C289     1.0000 0.69903  0.96747  0.31158  Biso   1.000  C
  C290     1.0000 0.66753  0.92398  0.33168  Biso   1.000  C
  C291     1.0000 0.65057  0.88657  0.29919  Biso   1.000  C
  C292     1.0000 0.62243  0.84603  0.31757  Biso   1.000  C
  C293     1.0000 0.60205  0.80606  0.28302  Biso   1.000  C
  C294     1.0000 0.60939  0.84442  0.36867  Biso   1.000  C
  C295     1.0000 0.62518  0.88328  0.40093  Biso   1.000  C
  C296     1.0000 0.65481  0.92254  0.38258  Biso   1.000  C
  C297     1.0000 0.60991  0.88146  0.45366  Biso   1.000  C
  C298     1.0000 0.63231  0.90194  0.49503  Biso   1.000  C
  C299     1.0000 0.61199  0.89604  0.58818  Biso   1.000  C
  C300     1.0000 0.63716  0.93933  0.60466  Biso   1.000  C
  C301     1.0000 0.64570  0.94661  0.65620  Biso   1.000  C
  C302     1.0000 0.67445  0.99274  0.67376  Biso   1.000  C
  C303     1.0000 0.62880  0.91137  0.69111  Biso   1.000  C
  C304     1.0000 0.60160  0.86842  0.67476  Biso   1.000  C
  C305     1.0000 0.58192  0.83228  0.71297  Biso   1.000  C
  C306     1.0000 0.59393  0.86053  0.62358  Biso   1.000  C
  C307     1.0000 0.72670  0.18410  0.18760  Biso   1.000  C
  C308     1.0000 0.66690  0.24500  0.22340  Biso   1.000  C
  C309     1.0000 0.67430  0.23450  0.13190  Biso   1.000  C
  C310     1.0000 0.79060  0.07480  0.04020  Biso   1.000  C
  C311     1.0000 0.74630  0.11850  0.96990  Biso   1.000  C
  C312     1.0000 0.80920  0.05180  0.95310  Biso   1.000  C
  C313     1.0000 0.90060  0.11340  0.14490  Biso   1.000  C
  C314     1.0000 0.95730  0.18240  0.12090  Biso   1.000  C
  C315     1.0000 0.98940  0.11080  0.17380  Biso   1.000  C
  C316     1.0000 0.40010  0.11360  0.84080  Biso   1.000  C
  C317     1.0000 0.40740  0.02710  0.81150  Biso   1.000  C
  C318     1.0000 0.33160  0.05550  0.86220  Biso   1.000  C
  C319     1.0000 0.43200  0.22790  0.94360  Biso   1.000  C
  C320     1.0000 0.44920  0.21370  0.03490  Biso   1.000  C
  C321     1.0000 0.37010  0.25030  0.00810  Biso   1.000  C
  C322     1.0000 0.31330  0.27860  0.80560  Biso   1.000  C
  C323     1.0000 0.26380  0.32550  0.86640  Biso   1.000  C
  C324     1.0000 0.25060  0.33690  0.77430  Biso   1.000  C
  C325     1.0000 0.31893  0.57659  0.30430  Biso   1.000  C
  C326     1.0000 0.35726  0.59789  0.34103  Biso   1.000  C
  C327     1.0000 0.39769  0.62646  0.32211  Biso   1.000  C
  C328     1.0000 0.43406  0.64684  0.35446  Biso   1.000  C
  C329     1.0000 0.47609  0.67946  0.33475  Biso   1.000  C
  C330     1.0000 0.43098  0.63667  0.40644  Biso   1.000  C
  C331     1.0000 0.39084  0.60760  0.42470  Biso   1.000  C
  C332     1.0000 0.35319  0.58811  0.39249  Biso   1.000  C
  C333     1.0000 0.40220  0.62772  0.51841  Biso   1.000  C
  C334     1.0000 0.39002  0.60107  0.56042  Biso   1.000  C
  C335     1.0000 0.39479  0.61639  0.61279  Biso   1.000  C
  C336     1.0000 0.43674  0.64467  0.62831  Biso   1.000  C
  C337     1.0000 0.43925  0.66175  0.67815  Biso   1.000  C
  C338     1.0000 0.48486  0.69223  0.69411  Biso   1.000  C
  C339     1.0000 0.40128  0.64942  0.71246  Biso   1.000  C
  C340     1.0000 0.36009  0.61929  0.69700  Biso   1.000  C
  C341     1.0000 0.31906  0.60317  0.73369  Biso   1.000  C
  C342     1.0000 0.35671  0.60324  0.64738  Biso   1.000  C
  C343     1.0000 0.30097  0.46747  0.18842  Biso   1.000  C
  C344     1.0000 0.33247  0.42398  0.16832  Biso   1.000  C
  C345     1.0000 0.34943  0.38657  0.20081  Biso   1.000  C
  C346     1.0000 0.37757  0.34603  0.18243  Biso   1.000  C
  C347     1.0000 0.39795  0.30606  0.21698  Biso   1.000  C
  C348     1.0000 0.39061  0.34442  0.13133  Biso   1.000  C
  C349     1.0000 0.37482  0.38328  0.09907  Biso   1.000  C
  C350     1.0000 0.34519  0.42254  0.11742  Biso   1.000  C
  C351     1.0000 0.39009  0.38146  0.04634  Biso   1.000  C
  C352     1.0000 0.36769  0.40194  0.00497  Biso   1.000  C
  C353     1.0000 0.38801  0.39604  0.91182  Biso   1.000  C
  C354     1.0000 0.36284  0.43933  0.89534  Biso   1.000  C
  C355     1.0000 0.35430  0.44661  0.84380  Biso   1.000  C
  C356     1.0000 0.32555  0.49274  0.82624  Biso   1.000  C
  C357     1.0000 0.37120  0.41137  0.80889  Biso   1.000  C
  C358     1.0000 0.39840  0.36842  0.82524  Biso   1.000  C
  C359     1.0000 0.41808  0.33228  0.78703  Biso   1.000  C
  C360     1.0000 0.40607  0.36053  0.87642  Biso   1.000  C
  C361     1.0000 0.27330  0.68410  0.31240  Biso   1.000  C
  C362     1.0000 0.33310  0.74500  0.27660  Biso   1.000  C
  C363     1.0000 0.32570  0.73450  0.36810  Biso   1.000  C
  C364     1.0000 0.20940  0.57480  0.45980  Biso   1.000  C
  C365     1.0000 0.25370  0.61850  0.53010  Biso   1.000  C
  C366     1.0000 0.19080  0.55180  0.54690  Biso   1.000  C
  C367     1.0000 0.09940  0.61340  0.35510  Biso   1.000  C
  C368     1.0000 0.04270  0.68240  0.37910  Biso   1.000  C
  C369     1.0000 0.01060  0.61080  0.32620  Biso   1.000  C
  C370     1.0000 0.59990  0.61360  0.65920  Biso   1.000  C
  C371     1.0000 0.59260  0.52710  0.68850  Biso   1.000  C
  C372     1.0000 0.66840  0.55550  0.63780  Biso   1.000  C
  C373     1.0000 0.56800  0.72790  0.55640  Biso   1.000  C
  C374     1.0000 0.55080  0.71370  0.46510  Biso   1.000  C
  C375     1.0000 0.62990  0.75030  0.49190  Biso   1.000  C
  C376     1.0000 0.68670  0.77860  0.69440  Biso   1.000  C
  C377     1.0000 0.73620  0.82550  0.63360  Biso   1.000  C
  C378     1.0000 0.74940  0.83690  0.72570  Biso   1.000  C
  C379     1.0000 0.18107  0.92341  0.30430  Biso   1.000  C
  C380     1.0000 0.14274  0.90211  0.34103  Biso   1.000  C
  C381     1.0000 0.10231  0.87354  0.32211  Biso   1.000  C
  C382     1.0000 0.06594  0.85316  0.35446  Biso   1.000  C
  C383     1.0000 0.02391  0.82054  0.33475  Biso   1.000  C
  C384     1.0000 0.06902  0.86333  0.40644  Biso   1.000  C
  C385     1.0000 0.10916  0.89240  0.42470  Biso   1.000  C
  C386     1.0000 0.14681  0.91189  0.39249  Biso   1.000  C
  C387     1.0000 0.09780  0.87228  0.51841  Biso   1.000  C
  C388     1.0000 0.10998  0.89893  0.56042  Biso   1.000  C
  C389     1.0000 0.10521  0.88361  0.61279  Biso   1.000  C
  C390     1.0000 0.06326  0.85533  0.62831  Biso   1.000  C
  C391     1.0000 0.06075  0.83825  0.67815  Biso   1.000  C
  C392     1.0000 0.01514  0.80777  0.69411  Biso   1.000  C
  C393     1.0000 0.09872  0.85058  0.71246  Biso   1.000  C
  C394     1.0000 0.13991  0.88071  0.69700  Biso   1.000  C
  C395     1.0000 0.18094  0.89683  0.73369  Biso   1.000  C
  C396     1.0000 0.14329  0.89676  0.64738  Biso   1.000  C
  C397     1.0000 0.19903  0.03253  0.18842  Biso   1.000  C
  C398     1.0000 0.16753  0.07602  0.16832  Biso   1.000  C
  C399     1.0000 0.15057  0.11343  0.20081  Biso   1.000  C
  C400     1.0000 0.12243  0.15397  0.18243  Biso   1.000  C
  C401     1.0000 0.10205  0.19394  0.21698  Biso   1.000  C
  C402     1.0000 0.10939  0.15558  0.13133  Biso   1.000  C
  C403     1.0000 0.12518  0.11672  0.09907  Biso   1.000  C
  C404     1.0000 0.15481  0.07746  0.11742  Biso   1.000  C
  C405     1.0000 0.10991  0.11854  0.04634  Biso   1.000  C
  C406     1.0000 0.13231  0.09806  0.00497  Biso   1.000  C
  C407     1.0000 0.11199  0.10396  0.91182  Biso   1.000  C
  C408     1.0000 0.13716  0.06067  0.89534  Biso   1.000  C
  C409     1.0000 0.14570  0.05339  0.84380  Biso   1.000  C
  C410     1.0000 0.17445  0.00726  0.82624  Biso   1.000  C
  C411     1.0000 0.12880  0.08863  0.80889  Biso   1.000  C
  C412     1.0000 0.10160  0.13158  0.82524  Biso   1.000  C
  C413     1.0000 0.08192  0.16772  0.78703  Biso   1.000  C
  C414     1.0000 0.09393  0.13947  0.87642  Biso   1.000  C
  C415     1.0000 0.22670  0.81590  0.31240  Biso   1.000  C
  C416     1.0000 0.16690  0.75500  0.27660  Biso   1.000  C
  C417     1.0000 0.17430  0.76550  0.36810  Biso   1.000  C
  C418     1.0000 0.29060  0.92520  0.45980  Biso   1.000  C
  C419     1.0000 0.24630  0.88150  0.53010  Biso   1.000  C
  C420     1.0000 0.30920  0.94820  0.54690  Biso   1.000  C
  C421     1.0000 0.40060  0.88660  0.35510  Biso   1.000  C
  C422     1.0000 0.45730  0.81760  0.37910  Biso   1.000  C
  C423     1.0000 0.48940  0.88920  0.32620  Biso   1.000  C
  C424     1.0000 0.90010  0.88640  0.65920  Biso   1.000  C
  C425     1.0000 0.90740  0.97290  0.68850  Biso   1.000  C
  C426     1.0000 0.83160  0.94450  0.63780  Biso   1.000  C
  C427     1.0000 0.93200  0.77210  0.55640  Biso   1.000  C
  C428     1.0000 0.94920  0.78630  0.46510  Biso   1.000  C
  C429     1.0000 0.87010  0.74970  0.49190  Biso   1.000  C
  C430     1.0000 0.81330  0.72140  0.69440  Biso   1.000  C
  C431     1.0000 0.76380  0.67450  0.63360  Biso   1.000  C
  C432     1.0000 0.75060  0.66310  0.72570  Biso   1.000  C
  N1       1.0000 0.19170  0.71990  0.81800  Biso   1.000  N
  N2       1.0000 0.28290  0.58140  0.00940  Biso   1.000  N
  N3       1.0000 0.44680  0.63420  0.85420  Biso   1.000  N
  N4       1.0000 0.88123  0.56637  0.15890  Biso   1.000  N
  N5       1.0000 0.91740  0.72640  0.00890  Biso   1.000  N
  N6       1.0000 0.77710  0.81250  0.18520  Biso   1.000  N
  N7       1.0000 0.11247  0.59763  0.97875  Biso   1.000  N
  N8       1.0000 0.13198  0.55401  0.99709  Biso   1.000  N
  N9       1.0000 0.13058  0.55614  0.04672  Biso   1.000  N
  N10      1.0000 0.06575  0.35831  0.53159  Biso   1.000  N
  N11      1.0000 0.06223  0.36150  0.48215  Biso   1.000  N
  N12      1.0000 0.10421  0.38723  0.46540  Biso   1.000  N
  N13      1.0000 0.30830  0.78010  0.81800  Biso   1.000  N
  N14      1.0000 0.21710  0.91860  0.00940  Biso   1.000  N
  N15      1.0000 0.05320  0.86580  0.85420  Biso   1.000  N
  N16      1.0000 0.61877  0.93363  0.15890  Biso   1.000  N
  N17      1.0000 0.58260  0.77360  0.00890  Biso   1.000  N
  N18      1.0000 0.72290  0.68750  0.18520  Biso   1.000  N
  N19      1.0000 0.38753  0.90237  0.97875  Biso   1.000  N
  N20      1.0000 0.36802  0.94599  0.99709  Biso   1.000  N
  N21      1.0000 0.36942  0.94386  0.04672  Biso   1.000  N
  N22      1.0000 0.43425  0.14169  0.53159  Biso   1.000  N
  N23      1.0000 0.43777  0.13850  0.48215  Biso   1.000  N
  N24      1.0000 0.39579  0.11277  0.46540  Biso   1.000  N
  N25      1.0000 0.69170  0.28010  0.68200  Biso   1.000  N
  N26      1.0000 0.78290  0.41860  0.49060  Biso   1.000  N
  N27      1.0000 0.94680  0.36580  0.64580  Biso   1.000  N
  N28      1.0000 0.38123  0.43363  0.34110  Biso   1.000  N
  N29      1.0000 0.41740  0.27360  0.49110  Biso   1.000  N
  N30      1.0000 0.27710  0.18750  0.31480  Biso   1.000  N
  N31      1.0000 0.61247  0.40237  0.52125  Biso   1.000  N
  N32      1.0000 0.63198  0.44599  0.50291  Biso   1.000  N
  N33      1.0000 0.63058  0.44386  0.45328  Biso   1.000  N
  N34      1.0000 0.56575  0.64169  0.96841  Biso   1.000  N
  N35      1.0000 0.56223  0.63850  0.01785  Biso   1.000  N
  N36      1.0000 0.60421  0.61277  0.03460  Biso   1.000  N
  N37      1.0000 0.80830  0.21990  0.68200  Biso   1.000  N
  N38      1.0000 0.71710  0.08140  0.49060  Biso   1.000  N
  N39      1.0000 0.55320  0.13420  0.64580  Biso   1.000  N
  N40      1.0000 0.11877  0.06637  0.34110  Biso   1.000  N
  N41      1.0000 0.08260  0.22640  0.49110  Biso   1.000  N
  N42      1.0000 0.22290  0.31250  0.31480  Biso   1.000  N
  N43      1.0000 0.88753  0.09763  0.52125  Biso   1.000  N
  N44      1.0000 0.86802  0.05401  0.50291  Biso   1.000  N
  N45      1.0000 0.86942  0.05614  0.45328  Biso   1.000  N
  N46      1.0000 0.93425  0.85831  0.96841  Biso   1.000  N
  N47      1.0000 0.93777  0.86150  0.01785  Biso   1.000  N
  N48      1.0000 0.89579  0.88723  0.03460  Biso   1.000  N
  N49      1.0000 0.80830  0.28010  0.18200  Biso   1.000  N
  N50      1.0000 0.71710  0.41860  0.99060  Biso   1.000  N
  N51      1.0000 0.55320  0.36580  0.14580  Biso   1.000  N
  N52      1.0000 0.11877  0.43363  0.84110  Biso   1.000  N
  N53      1.0000 0.08260  0.27360  0.99110  Biso   1.000  N
  N54      1.0000 0.22290  0.18750  0.81480  Biso   1.000  N
  N55      1.0000 0.88753  0.40237  0.02125  Biso   1.000  N
  N56      1.0000 0.86802  0.44599  0.00291  Biso   1.000  N
  N57      1.0000 0.86942  0.44386  0.95328  Biso   1.000  N
  N58      1.0000 0.93425  0.64169  0.46841  Biso   1.000  N
  N59      1.0000 0.93777  0.63850  0.51785  Biso   1.000  N
  N60      1.0000 0.89579  0.61277  0.53460  Biso   1.000  N
  N61      1.0000 0.69170  0.21990  0.18200  Biso   1.000  N
  N62      1.0000 0.78290  0.08140  0.99060  Biso   1.000  N
  N63      1.0000 0.94680  0.13420  0.14580  Biso   1.000  N
  N64      1.0000 0.38123  0.06637  0.84110  Biso   1.000  N
  N65      1.0000 0.41740  0.22640  0.99110  Biso   1.000  N
  N66      1.0000 0.27710  0.31250  0.81480  Biso   1.000  N
  N67      1.0000 0.61247  0.09763  0.02125  Biso   1.000  N
  N68      1.0000 0.63198  0.05401  0.00291  Biso   1.000  N
  N69      1.0000 0.63058  0.05614  0.95328  Biso   1.000  N
  N70      1.0000 0.56575  0.85831  0.46841  Biso   1.000  N
  N71      1.0000 0.56223  0.86150  0.51785  Biso   1.000  N
  N72      1.0000 0.60421  0.88723  0.53460  Biso   1.000  N
  N73      1.0000 0.30830  0.71990  0.31800  Biso   1.000  N
  N74      1.0000 0.21710  0.58140  0.50940  Biso   1.000  N
  N75      1.0000 0.05320  0.63420  0.35420  Biso   1.000  N
  N76      1.0000 0.61877  0.56637  0.65890  Biso   1.000  N
  N77      1.0000 0.58260  0.72640  0.50890  Biso   1.000  N
  N78      1.0000 0.72290  0.81250  0.68520  Biso   1.000  N
  N79      1.0000 0.38753  0.59763  0.47875  Biso   1.000  N
  N80      1.0000 0.36802  0.55401  0.49709  Biso   1.000  N
  N81      1.0000 0.36942  0.55614  0.54672  Biso   1.000  N
  N82      1.0000 0.43425  0.35831  0.03159  Biso   1.000  N
  N83      1.0000 0.43777  0.36150  0.98215  Biso   1.000  N
  N84      1.0000 0.39579  0.38723  0.96540  Biso   1.000  N
  N85      1.0000 0.19170  0.78010  0.31800  Biso   1.000  N
  N86      1.0000 0.28290  0.91860  0.50940  Biso   1.000  N
  N87      1.0000 0.44680  0.86580  0.35420  Biso   1.000  N
  N88      1.0000 0.88123  0.93363  0.65890  Biso   1.000  N
  N89      1.0000 0.91740  0.77360  0.50890  Biso   1.000  N
  N90      1.0000 0.77710  0.68750  0.68520  Biso   1.000  N
  N91      1.0000 0.11247  0.90237  0.47875  Biso   1.000  N
  N92      1.0000 0.13198  0.94599  0.49709  Biso   1.000  N
  N93      1.0000 0.13058  0.94386  0.54672  Biso   1.000  N
  N94      1.0000 0.06575  0.14169  0.03159  Biso   1.000  N
  N95      1.0000 0.06223  0.13850  0.98215  Biso   1.000  N
  N96      1.0000 0.10421  0.11277  0.96540  Biso   1.000  N
  O1       1.0000 0.24780  0.66420  0.84960  Biso   1.000  O
  O2       1.0000 0.26540  0.59220  0.92575  Biso   1.000  O
  O3       1.0000 0.36090  0.63060  0.87530  Biso   1.000  O
  O4       1.0000 0.87940  0.65020  0.13850  Biso   1.000  O
  O5       1.0000 0.90540  0.74260  0.09040  Biso   1.000  O
  O6       1.0000 0.83720  0.75660  0.16100  Biso   1.000  O
  O7       1.0000 0.22291  0.55795  0.82191  Biso   1.000  O
  O8       1.0000 0.17123  0.57516  0.75858  Biso   1.000  O
  O9       1.0000 0.02581  0.68834  0.78712  Biso   1.000  O
  O10      1.0000 0.99067  0.69544  0.86328  Biso   1.000  O
  O11      1.0000 0.21596  0.57683  0.21460  Biso   1.000  O
  O12      1.0000 0.17742  0.61607  0.27916  Biso   1.000  O
  O13      1.0000 0.01788  0.71376  0.23654  Biso   1.000  O
  O14      1.0000 0.97781  0.69362  0.16416  Biso   1.000  O
  O15      1.0000 0.20210  0.46980  0.73710  Biso   1.000  O
  O16      1.0000 0.22510  0.49600  0.66060  Biso   1.000  O
  O17      1.0000 0.11337  0.30828  0.76243  Biso   1.000  O
  O18      1.0000 0.07424  0.27287  0.69618  Biso   1.000  O
  O19      1.0000 0.17694  0.52923  0.35645  Biso   1.000  O
  O20      1.0000 0.19339  0.48993  0.28259  Biso   1.000  O
  O21      1.0000 0.08547  0.34103  0.24157  Biso   1.000  O
  O22      1.0000 0.05987  0.29159  0.30333  Biso   1.000  O
  O23      1.0000 0.25220  0.83580  0.84960  Biso   1.000  O
  O24      1.0000 0.23460  0.90780  0.92575  Biso   1.000  O
  O25      1.0000 0.13910  0.86940  0.87530  Biso   1.000  O
  O26      1.0000 0.62060  0.84980  0.13850  Biso   1.000  O
  O27      1.0000 0.59460  0.75740  0.09040  Biso   1.000  O
  O28      1.0000 0.66280  0.74340  0.16100  Biso   1.000  O
  O29      1.0000 0.27709  0.94205  0.82191  Biso   1.000  O
  O30      1.0000 0.32877  0.92484  0.75858  Biso   1.000  O
  O31      1.0000 0.47419  0.81166  0.78712  Biso   1.000  O
  O32      1.0000 0.50933  0.80456  0.86328  Biso   1.000  O
  O33      1.0000 0.28404  0.92317  0.21460  Biso   1.000  O
  O34      1.0000 0.32258  0.88393  0.27916  Biso   1.000  O
  O35      1.0000 0.48212  0.78624  0.23654  Biso   1.000  O
  O36      1.0000 0.52219  0.80638  0.16416  Biso   1.000  O
  O37      1.0000 0.29790  0.03020  0.73710  Biso   1.000  O
  O38      1.0000 0.27490  0.00400  0.66060  Biso   1.000  O
  O39      1.0000 0.38663  0.19172  0.76243  Biso   1.000  O
  O40      1.0000 0.42576  0.22713  0.69618  Biso   1.000  O
  O41      1.0000 0.32306  0.97077  0.35645  Biso   1.000  O
  O42      1.0000 0.30661  0.01007  0.28259  Biso   1.000  O
  O43      1.0000 0.41453  0.15897  0.24157  Biso   1.000  O
  O44      1.0000 0.44013  0.20841  0.30333  Biso   1.000  O
  O45      1.0000 0.74780  0.33580  0.65040  Biso   1.000  O
  O46      1.0000 0.76540  0.40780  0.57425  Biso   1.000  O
  O47      1.0000 0.86090  0.36940  0.62470  Biso   1.000  O
  O48      1.0000 0.37940  0.34980  0.36150  Biso   1.000  O
  O49      1.0000 0.40540  0.25740  0.40960  Biso   1.000  O
  O50      1.0000 0.33720  0.24340  0.33900  Biso   1.000  O
  O51      1.0000 0.72291  0.44205  0.67809  Biso   1.000  O
  O52      1.0000 0.67123  0.42484  0.74142  Biso   1.000  O
  O53      1.0000 0.52581  0.31166  0.71288  Biso   1.000  O
  O54      1.0000 0.49067  0.30456  0.63672  Biso   1.000  O
  O55      1.0000 0.71596  0.42317  0.28540  Biso   1.000  O
  O56      1.0000 0.67742  0.38393  0.22084  Biso   1.000  O
  O57      1.0000 0.51788  0.28624  0.26346  Biso   1.000  O
  O58      1.0000 0.47781  0.30638  0.33584  Biso   1.000  O
  O59      1.0000 0.70210  0.53020  0.76290  Biso   1.000  O
  O60      1.0000 0.72510  0.50400  0.83940  Biso   1.000  O
  O61      1.0000 0.61337  0.69172  0.73757  Biso   1.000  O
  O62      1.0000 0.57424  0.72713  0.80382  Biso   1.000  O
  O63      1.0000 0.67694  0.47077  0.14355  Biso   1.000  O
  O64      1.0000 0.69339  0.51007  0.21741  Biso   1.000  O
  O65      1.0000 0.58547  0.65897  0.25843  Biso   1.000  O
  O66      1.0000 0.55987  0.70841  0.19667  Biso   1.000  O
  O67      1.0000 0.75220  0.16420  0.65040  Biso   1.000  O
  O68      1.0000 0.73460  0.09220  0.57425  Biso   1.000  O
  O69      1.0000 0.63910  0.13060  0.62470  Biso   1.000  O
  O70      1.0000 0.12060  0.15020  0.36150  Biso   1.000  O
  O71      1.0000 0.09460  0.24260  0.40960  Biso   1.000  O
  O72      1.0000 0.16280  0.25660  0.33900  Biso   1.000  O
  O73      1.0000 0.77709  0.05795  0.67809  Biso   1.000  O
  O74      1.0000 0.82877  0.07516  0.74142  Biso   1.000  O
  O75      1.0000 0.97419  0.18834  0.71288  Biso   1.000  O
  O76      1.0000 0.00933  0.19544  0.63672  Biso   1.000  O
  O77      1.0000 0.78404  0.07683  0.28540  Biso   1.000  O
  O78      1.0000 0.82258  0.11607  0.22084  Biso   1.000  O
  O79      1.0000 0.98212  0.21376  0.26346  Biso   1.000  O
  O80      1.0000 0.02219  0.19362  0.33584  Biso   1.000  O
  O81      1.0000 0.79790  0.96980  0.76290  Biso   1.000  O
  O82      1.0000 0.77490  0.99600  0.83940  Biso   1.000  O
  O83      1.0000 0.88663  0.80828  0.73757  Biso   1.000  O
  O84      1.0000 0.92576  0.77287  0.80382  Biso   1.000  O
  O85      1.0000 0.82306  0.02923  0.14355  Biso   1.000  O
  O86      1.0000 0.80661  0.98993  0.21741  Biso   1.000  O
  O87      1.0000 0.91453  0.84103  0.25843  Biso   1.000  O
  O88      1.0000 0.94013  0.79159  0.19667  Biso   1.000  O
  O89      1.0000 0.75220  0.33580  0.15040  Biso   1.000  O
  O90      1.0000 0.73460  0.40780  0.07425  Biso   1.000  O
  O91      1.0000 0.63910  0.36940  0.12470  Biso   1.000  O
  O92      1.0000 0.12060  0.34980  0.86150  Biso   1.000  O
  O93      1.0000 0.09460  0.25740  0.90960  Biso   1.000  O
  O94      1.0000 0.16280  0.24340  0.83900  Biso   1.000  O
  O95      1.0000 0.77709  0.44205  0.17809  Biso   1.000  O
  O96      1.0000 0.82877  0.42484  0.24142  Biso   1.000  O
  O97      1.0000 0.97419  0.31166  0.21288  Biso   1.000  O
  O98      1.0000 0.00933  0.30456  0.13672  Biso   1.000  O
  O99      1.0000 0.78404  0.42317  0.78540  Biso   1.000  O
  O100     1.0000 0.82258  0.38393  0.72084  Biso   1.000  O
  O101     1.0000 0.98212  0.28624  0.76346  Biso   1.000  O
  O102     1.0000 0.02219  0.30638  0.83584  Biso   1.000  O
  O103     1.0000 0.79790  0.53020  0.26290  Biso   1.000  O
  O104     1.0000 0.77490  0.50400  0.33940  Biso   1.000  O
  O105     1.0000 0.88663  0.69172  0.23757  Biso   1.000  O
  O106     1.0000 0.92576  0.72713  0.30382  Biso   1.000  O
  O107     1.0000 0.82306  0.47077  0.64355  Biso   1.000  O
  O108     1.0000 0.80661  0.51007  0.71741  Biso   1.000  O
  O109     1.0000 0.91453  0.65897  0.75843  Biso   1.000  O
  O110     1.0000 0.94013  0.70841  0.69667  Biso   1.000  O
  O111     1.0000 0.74780  0.16420  0.15040  Biso   1.000  O
  O112     1.0000 0.76540  0.09220  0.07425  Biso   1.000  O
  O113     1.0000 0.86090  0.13060  0.12470  Biso   1.000  O
  O114     1.0000 0.37940  0.15020  0.86150  Biso   1.000  O
  O115     1.0000 0.40540  0.24260  0.90960  Biso   1.000  O
  O116     1.0000 0.33720  0.25660  0.83900  Biso   1.000  O
  O117     1.0000 0.72291  0.05795  0.17809  Biso   1.000  O
  O118     1.0000 0.67123  0.07516  0.24142  Biso   1.000  O
  O119     1.0000 0.52581  0.18834  0.21288  Biso   1.000  O
  O120     1.0000 0.49067  0.19544  0.13672  Biso   1.000  O
  O121     1.0000 0.71596  0.07683  0.78540  Biso   1.000  O
  O122     1.0000 0.67742  0.11607  0.72084  Biso   1.000  O
  O123     1.0000 0.51788  0.21376  0.76346  Biso   1.000  O
  O124     1.0000 0.47781  0.19362  0.83584  Biso   1.000  O
  O125     1.0000 0.70210  0.96980  0.26290  Biso   1.000  O
  O126     1.0000 0.72510  0.99600  0.33940  Biso   1.000  O
  O127     1.0000 0.61337  0.80828  0.23757  Biso   1.000  O
  O128     1.0000 0.57424  0.77287  0.30382  Biso   1.000  O
  O129     1.0000 0.67694  0.02923  0.64355  Biso   1.000  O
  O130     1.0000 0.69339  0.98993  0.71741  Biso   1.000  O
  O131     1.0000 0.58547  0.84103  0.75843  Biso   1.000  O
  O132     1.0000 0.55987  0.79159  0.69667  Biso   1.000  O
  O133     1.0000 0.25220  0.66420  0.34960  Biso   1.000  O
  O134     1.0000 0.23460  0.59220  0.42575  Biso   1.000  O
  O135     1.0000 0.13910  0.63060  0.37530  Biso   1.000  O
  O136     1.0000 0.62060  0.65020  0.63850  Biso   1.000  O
  O137     1.0000 0.59460  0.74260  0.59040  Biso   1.000  O
  O138     1.0000 0.66280  0.75660  0.66100  Biso   1.000  O
  O139     1.0000 0.27709  0.55795  0.32191  Biso   1.000  O
  O140     1.0000 0.32877  0.57516  0.25858  Biso   1.000  O
  O141     1.0000 0.47419  0.68834  0.28712  Biso   1.000  O
  O142     1.0000 0.50933  0.69544  0.36328  Biso   1.000  O
  O143     1.0000 0.28404  0.57683  0.71460  Biso   1.000  O
  O144     1.0000 0.32258  0.61607  0.77916  Biso   1.000  O
  O145     1.0000 0.48212  0.71376  0.73654  Biso   1.000  O
  O146     1.0000 0.52219  0.69362  0.66416  Biso   1.000  O
  O147     1.0000 0.29790  0.46980  0.23710  Biso   1.000  O
  O148     1.0000 0.27490  0.49600  0.16060  Biso   1.000  O
  O149     1.0000 0.38663  0.30828  0.26243  Biso   1.000  O
  O150     1.0000 0.42576  0.27287  0.19618  Biso   1.000  O
  O151     1.0000 0.32306  0.52923  0.85645  Biso   1.000  O
  O152     1.0000 0.30661  0.48993  0.78259  Biso   1.000  O
  O153     1.0000 0.41453  0.34103  0.74157  Biso   1.000  O
  O154     1.0000 0.44013  0.29159  0.80333  Biso   1.000  O
  O155     1.0000 0.24780  0.83580  0.34960  Biso   1.000  O
  O156     1.0000 0.26540  0.90780  0.42575  Biso   1.000  O
  O157     1.0000 0.36090  0.86940  0.37530  Biso   1.000  O
  O158     1.0000 0.87940  0.84980  0.63850  Biso   1.000  O
  O159     1.0000 0.90540  0.75740  0.59040  Biso   1.000  O
  O160     1.0000 0.83720  0.74340  0.66100  Biso   1.000  O
  O161     1.0000 0.22291  0.94205  0.32191  Biso   1.000  O
  O162     1.0000 0.17123  0.92484  0.25858  Biso   1.000  O
  O163     1.0000 0.02581  0.81166  0.28712  Biso   1.000  O
  O164     1.0000 0.99067  0.80456  0.36328  Biso   1.000  O
  O165     1.0000 0.21596  0.92317  0.71460  Biso   1.000  O
  O166     1.0000 0.17742  0.88393  0.77916  Biso   1.000  O
  O167     1.0000 0.01788  0.78624  0.73654  Biso   1.000  O
  O168     1.0000 0.97781  0.80638  0.66416  Biso   1.000  O
  O169     1.0000 0.20210  0.03020  0.23710  Biso   1.000  O
  O170     1.0000 0.22510  0.00400  0.16060  Biso   1.000  O
  O171     1.0000 0.11337  0.19172  0.26243  Biso   1.000  O
  O172     1.0000 0.07424  0.22713  0.19618  Biso   1.000  O
  O173     1.0000 0.17694  0.97077  0.85645  Biso   1.000  O
  O174     1.0000 0.19339  0.01007  0.78259  Biso   1.000  O
  O175     1.0000 0.08547  0.15897  0.74157  Biso   1.000  O
  O176     1.0000 0.05987  0.20841  0.80333  Biso   1.000  O
